[VMEM] WARNING: physical memory size is smaller than virtual memory size.

*** ChampSim Multicore Out-of-Order Simulator ***
Warmup Instructions: 20000000
Simulation Instructions: 50000000
Number of CPUs: 1
Page size: 4096
Core 0: /data0/tzh/champsim_traces/SPEC17/625.x264_s-20B.champsimtrace.xz
Off-chip DRAM Size: 16 GiB Channels: 1 Width: 64-bit Data Rate: 3205 MT/s
Warmup halting CPU 0 at instruction 20000000 cycle 4298744 for remainder of phase
Warmup finished CPU 0 instructions: 20000000 cycles: 4298744 cumulative IPC: 4.653 (Simulation time: 00 hr 00 min 48 sec)
Warmup complete CPU 0 instructions: 20000000 cycles: 4298744 cumulative IPC: 4.653 (Simulation time: 00 hr 00 min 48 sec)
Simulation finished CPU 0 instructions: 50000004 cycles: 16042139 cumulative IPC: 3.117 (Simulation time: 00 hr 03 min 42 sec)
Simulation complete CPU 0 instructions: 50000004 cycles: 16042139 cumulative IPC: 3.117 (Simulation time: 00 hr 03 min 42 sec)

ChampSim completed all CPUs

=== Simulation ===
CPU 0 runs /data0/tzh/champsim_traces/SPEC17/625.x264_s-20B.champsimtrace.xz

Region of Interest Statistics

CPU 0 cumulative IPC: 3.117 instructions: 50000004 cycles: 16042139
CPU 0 Branch Prediction Accuracy: 99.33% MPKI: 0.2854 Average ROB Occupancy at Mispredict: 213
Branch type MPKI
BRANCH_DIRECT_JUMP: 0.00028
BRANCH_INDIRECT: 0.00022
BRANCH_CONDITIONAL: 0.1757
BRANCH_DIRECT_CALL: 2e-05
BRANCH_INDIRECT_CALL: 0.00604
BRANCH_RETURN: 0.1031

cpu0->cpu0_STLB TOTAL        ACCESS:     178378 HIT:     176851 MISS:       1527 MSHR_MERGE:          0
cpu0->cpu0_STLB LOAD         ACCESS:     178378 HIT:     176851 MISS:       1527 MSHR_MERGE:          0
cpu0->cpu0_STLB RFO          ACCESS:          0 HIT:          0 MISS:          0 MSHR_MERGE:          0
cpu0->cpu0_STLB PREFETCH     ACCESS:          0 HIT:          0 MISS:          0 MSHR_MERGE:          0
cpu0->cpu0_STLB WRITE        ACCESS:          0 HIT:          0 MISS:          0 MSHR_MERGE:          0
cpu0->cpu0_STLB TRANSLATION  ACCESS:          0 HIT:          0 MISS:          0 MSHR_MERGE:          0
cpu0->cpu0_STLB PREFETCH REQUESTED:          0 ISSUED:          0 USEFUL:          0 USELESS:          0 LATE:          0
cpu0->cpu0_STLB AVERAGE MISS LATENCY: 264.1 cycles
cpu0->cpu0_L2C TOTAL        ACCESS:     319624 HIT:     249739 MISS:      69885 MSHR_MERGE:          0
cpu0->cpu0_L2C LOAD         ACCESS:     215876 HIT:     168269 MISS:      47607 MSHR_MERGE:          0
cpu0->cpu0_L2C RFO          ACCESS:      49524 HIT:      27713 MISS:      21811 MSHR_MERGE:          0
cpu0->cpu0_L2C PREFETCH     ACCESS:          0 HIT:          0 MISS:          0 MSHR_MERGE:          0
cpu0->cpu0_L2C WRITE        ACCESS:      53502 HIT:      53284 MISS:        218 MSHR_MERGE:          0
cpu0->cpu0_L2C TRANSLATION  ACCESS:        722 HIT:        473 MISS:        249 MSHR_MERGE:          0
cpu0->cpu0_L2C PREFETCH REQUESTED:          0 ISSUED:          0 USEFUL:          0 USELESS:          0 LATE:          0
cpu0->cpu0_L2C AVERAGE MISS LATENCY: 226.4 cycles
cpu0->cpu0_L1I TOTAL        ACCESS:    7445746 HIT:    7287158 MISS:     158588 MSHR_MERGE:      54394
cpu0->cpu0_L1I LOAD         ACCESS:    7445746 HIT:    7287158 MISS:     158588 MSHR_MERGE:      54394
cpu0->cpu0_L1I RFO          ACCESS:          0 HIT:          0 MISS:          0 MSHR_MERGE:          0
cpu0->cpu0_L1I PREFETCH     ACCESS:          0 HIT:          0 MISS:          0 MSHR_MERGE:          0
cpu0->cpu0_L1I WRITE        ACCESS:          0 HIT:          0 MISS:          0 MSHR_MERGE:          0
cpu0->cpu0_L1I TRANSLATION  ACCESS:          0 HIT:          0 MISS:          0 MSHR_MERGE:          0
cpu0->cpu0_L1I PREFETCH REQUESTED:          0 ISSUED:          0 USEFUL:          0 USELESS:          0 LATE:          0
cpu0->cpu0_L1I AVERAGE MISS LATENCY: 8.798 cycles
cpu0->cpu0_L1D TOTAL        ACCESS:    9705465 HIT:    9383483 MISS:     321982 MSHR_MERGE:     159985
cpu0->cpu0_L1D LOAD         ACCESS:    4639567 HIT:    4409235 MISS:     230332 MSHR_MERGE:     118646
cpu0->cpu0_L1D RFO          ACCESS:          0 HIT:          0 MISS:          0 MSHR_MERGE:          0
cpu0->cpu0_L1D PREFETCH     ACCESS:          0 HIT:          0 MISS:          0 MSHR_MERGE:          0
cpu0->cpu0_L1D WRITE        ACCESS:    5063010 HIT:    4972218 MISS:      90792 MSHR_MERGE:      41203
cpu0->cpu0_L1D TRANSLATION  ACCESS:       2888 HIT:       2030 MISS:        858 MSHR_MERGE:        136
cpu0->cpu0_L1D PREFETCH REQUESTED:          0 ISSUED:          0 USEFUL:          0 USELESS:          0 LATE:          0
cpu0->cpu0_L1D AVERAGE MISS LATENCY: 105.1 cycles
cpu0->cpu0_ITLB TOTAL        ACCESS:    6135957 HIT:    6135957 MISS:          0 MSHR_MERGE:          0
cpu0->cpu0_ITLB LOAD         ACCESS:    6135957 HIT:    6135957 MISS:          0 MSHR_MERGE:          0
cpu0->cpu0_ITLB RFO          ACCESS:          0 HIT:          0 MISS:          0 MSHR_MERGE:          0
cpu0->cpu0_ITLB PREFETCH     ACCESS:          0 HIT:          0 MISS:          0 MSHR_MERGE:          0
cpu0->cpu0_ITLB WRITE        ACCESS:          0 HIT:          0 MISS:          0 MSHR_MERGE:          0
cpu0->cpu0_ITLB TRANSLATION  ACCESS:          0 HIT:          0 MISS:          0 MSHR_MERGE:          0
cpu0->cpu0_ITLB PREFETCH REQUESTED:          0 ISSUED:          0 USEFUL:          0 USELESS:          0 LATE:          0
cpu0->cpu0_ITLB AVERAGE MISS LATENCY: - cycles
cpu0->cpu0_DTLB TOTAL        ACCESS:    8748303 HIT:    8411849 MISS:     336454 MSHR_MERGE:     158076
cpu0->cpu0_DTLB LOAD         ACCESS:    8748303 HIT:    8411849 MISS:     336454 MSHR_MERGE:     158076
cpu0->cpu0_DTLB RFO          ACCESS:          0 HIT:          0 MISS:          0 MSHR_MERGE:          0
cpu0->cpu0_DTLB PREFETCH     ACCESS:          0 HIT:          0 MISS:          0 MSHR_MERGE:          0
cpu0->cpu0_DTLB WRITE        ACCESS:          0 HIT:          0 MISS:          0 MSHR_MERGE:          0
cpu0->cpu0_DTLB TRANSLATION  ACCESS:          0 HIT:          0 MISS:          0 MSHR_MERGE:          0
cpu0->cpu0_DTLB PREFETCH REQUESTED:          0 ISSUED:          0 USEFUL:          0 USELESS:          0 LATE:          0
cpu0->cpu0_DTLB AVERAGE MISS LATENCY: 7.272 cycles
cpu0->LLC TOTAL        ACCESS:      91557 HIT:       9231 MISS:      82326 MSHR_MERGE:          0
cpu0->LLC LOAD         ACCESS:      47607 HIT:       1196 MISS:      46411 MSHR_MERGE:          0
cpu0->LLC RFO          ACCESS:      21811 HIT:        134 MISS:      21677 MSHR_MERGE:          0
cpu0->LLC PREFETCH     ACCESS:          0 HIT:          0 MISS:          0 MSHR_MERGE:          0
cpu0->LLC WRITE        ACCESS:      21890 HIT:       7872 MISS:      14018 MSHR_MERGE:          0
cpu0->LLC TRANSLATION  ACCESS:        249 HIT:         29 MISS:        220 MSHR_MERGE:          0
cpu0->LLC PREFETCH REQUESTED:          0 ISSUED:          0 USEFUL:          0 USELESS:          0 LATE:          0
cpu0->LLC AVERAGE MISS LATENCY: 180.2 cycles

DRAM Statistics

Channel 0 RQ ROW_BUFFER_HIT:        237
  ROW_BUFFER_MISS:      68071
  AVG DBUS CONGESTED CYCLE: 10.42
Channel 0 WQ ROW_BUFFER_HIT:       1850
  ROW_BUFFER_MISS:      15517
  FULL:          0
Channel 0 REFRESHES ISSUED:       1337

[ROI Statistics]
[System Configuration]
num_cpus 1
cpu_freq 4000
fetch_width 6
decode_width 6
dispatch_width 6
execute_width 6
lq_width 2
sq_width 2
retire_width 6
scheduler_size 128
branch_mispredict_penalty 15
rob_size 352
lq_size 128
sq_size 72
ifetch_buffer_size 64
decode_buffer_size 32
dispatch_buffer_size 32
register_file_size 288
decode_latency 1
dispatch_latency 1
schedule_latency 1
execute_latency 1
page_size 4096
block_size 64
core_0_itlb_set 16
core_0_itlb_way 4
core_0_itlb_rq_size 16
core_0_itlb_wq_size 16
core_0_itlb_pq_size 0
core_0_itlb_mshr_size 8
core_0_itlb_hit_latency 1
core_0_itlb_fill_latency 1
core_0_itlb_max_tag_check 2
core_0_itlb_max_fill 2
core_0_dtlb_set 16
core_0_dtlb_way 4
core_0_dtlb_rq_size 16
core_0_dtlb_wq_size 16
core_0_dtlb_pq_size 0
core_0_dtlb_mshr_size 8
core_0_dtlb_hit_latency 1
core_0_dtlb_fill_latency 1
core_0_dtlb_max_tag_check 2
core_0_dtlb_max_fill 2
core_0_stlb_set 128
core_0_stlb_way 12
core_0_stlb_rq_size 32
core_0_stlb_wq_size 32
core_0_stlb_pq_size 0
core_0_stlb_mshr_size 16
core_0_stlb_hit_latency 4
core_0_stlb_fill_latency 4
core_0_stlb_max_tag_check 1
core_0_stlb_max_fill 1
core_0_l1i_set 64
core_0_l1i_way 8
core_0_l1i_rq_size 64
core_0_l1i_wq_size 64
core_0_l1i_pq_size 32
core_0_l1i_mshr_size 8
core_0_l1i_hit_latency 2
core_0_l1i_fill_latency 2
core_0_l1i_max_tag_check 2
core_0_l1i_max_fill 2
core_0_l1d_set 64
core_0_l1d_way 12
core_0_l1d_rq_size 64
core_0_l1d_wq_size 64
core_0_l1d_pq_size 8
core_0_l1d_mshr_size 16
core_0_l1d_hit_latency 2
core_0_l1d_fill_latency 3
core_0_l1d_max_tag_check 2
core_0_l1d_max_fill 2
core_0_l2c_set 1024
core_0_l2c_way 8
core_0_l2c_rq_size 32
core_0_l2c_wq_size 32
core_0_l2c_pq_size 16
core_0_l2c_mshr_size 32
core_0_l2c_hit_latency 5
core_0_l2c_fill_latency 5
core_0_l2c_max_tag_check 1
core_0_l2c_max_fill 1
llc_set 2048
llc_way 16
llc_rq_size 32
llc_wq_size 32
llc_pq_size 32
llc_mshr_size 64
llc_hit_latency 10
llc_fill_latency 10
llc_max_tag_check 1
llc_max_fill 1
dram_channels 1
dram_ranks 1
dram_bankgroups 8
dram_banks 4
dram_rows 65536
dram_columns 1024
dram_channel_width 8
dram_rq_size 64
dram_wq_size 64
dram_size 17179869184
core_0_itlb_prefetcher no
core_0_dtlb_prefetcher no
core_0_stlb_prefetcher no
core_0_l1i_prefetcher no
core_0_l1d_prefetcher no
core_0_l2c_prefetcher no
llc_prefetcher no
llc_replacement drrip

Core_0_instructions 50000004
Core_0_cycles 16042139
Core_0_IPC 3.11679
Core_0_branch_prediction_accuracy 99.3271
Core_0_branch_MPKI 0.28536
Core_0_average_ROB_occupancy_at_mispredict 213.002

Core_0_ITLB_total_access 6135957
Core_0_ITLB_total_hit 6135957
Core_0_ITLB_total_miss 0
Core_0_ITLB_total_MPKI 0
Core_0_ITLB_total_miss_rate 0
Core_0_ITLB_demand_access 6135957
Core_0_ITLB_demand_hit 6135957
Core_0_ITLB_demand_miss 0
Core_0_ITLB_demand_MPKI 0
Core_0_ITLB_demand_miss_rate 0
Core_0_ITLB_load_access 6135957
Core_0_ITLB_load_hit 6135957
Core_0_ITLB_load_miss 0
Core_0_ITLB_load_MPKI 0
Core_0_ITLB_load_miss_rate 0
Core_0_ITLB_rfo_access 0
Core_0_ITLB_rfo_hit 0
Core_0_ITLB_rfo_miss 0
Core_0_ITLB_rfo_MPKI 0
Core_0_ITLB_rfo_miss_rate 0
Core_0_ITLB_prefetch_access 0
Core_0_ITLB_prefetch_hit 0
Core_0_ITLB_prefetch_miss 0
Core_0_ITLB_prefetch_MPKI 0
Core_0_ITLB_prefetch_miss_rate 0
Core_0_ITLB_writeback_access 0
Core_0_ITLB_writeback_hit 0
Core_0_ITLB_writeback_miss 0
Core_0_ITLB_writeback_MPKI 0
Core_0_ITLB_writeback_miss_rate 0
Core_0_ITLB_prefetch_requested 0
Core_0_ITLB_prefetch_issued 0
Core_0_ITLB_prefetch_useful 0
Core_0_ITLB_prefetch_useless 0
Core_0_ITLB_prefetch_late 0
Core_0_ITLB_prefetch_accuracy 0
Core_0_ITLB_prefetch_coverage 0

Core_0_DTLB_total_access 8748303
Core_0_DTLB_total_hit 8411849
Core_0_DTLB_total_miss 336454
Core_0_DTLB_total_MPKI 6.72908
Core_0_DTLB_total_miss_rate 0.0384593
Core_0_DTLB_demand_access 8748303
Core_0_DTLB_demand_hit 8411849
Core_0_DTLB_demand_miss 336454
Core_0_DTLB_demand_MPKI 6.72908
Core_0_DTLB_demand_miss_rate 0.0384593
Core_0_DTLB_load_access 8748303
Core_0_DTLB_load_hit 8411849
Core_0_DTLB_load_miss 336454
Core_0_DTLB_load_MPKI 6.72908
Core_0_DTLB_load_miss_rate 0.0384593
Core_0_DTLB_rfo_access 0
Core_0_DTLB_rfo_hit 0
Core_0_DTLB_rfo_miss 0
Core_0_DTLB_rfo_MPKI 0
Core_0_DTLB_rfo_miss_rate 0
Core_0_DTLB_prefetch_access 0
Core_0_DTLB_prefetch_hit 0
Core_0_DTLB_prefetch_miss 0
Core_0_DTLB_prefetch_MPKI 0
Core_0_DTLB_prefetch_miss_rate 0
Core_0_DTLB_writeback_access 0
Core_0_DTLB_writeback_hit 0
Core_0_DTLB_writeback_miss 0
Core_0_DTLB_writeback_MPKI 0
Core_0_DTLB_writeback_miss_rate 0
Core_0_DTLB_prefetch_requested 0
Core_0_DTLB_prefetch_issued 0
Core_0_DTLB_prefetch_useful 0
Core_0_DTLB_prefetch_useless 0
Core_0_DTLB_prefetch_late 0
Core_0_DTLB_prefetch_accuracy 0
Core_0_DTLB_prefetch_coverage 0

Core_0_STLB_total_access 178378
Core_0_STLB_total_hit 176851
Core_0_STLB_total_miss 1527
Core_0_STLB_total_MPKI 0.03054
Core_0_STLB_total_miss_rate 0.00856047
Core_0_STLB_demand_access 178378
Core_0_STLB_demand_hit 176851
Core_0_STLB_demand_miss 1527
Core_0_STLB_demand_MPKI 0.03054
Core_0_STLB_demand_miss_rate 0.00856047
Core_0_STLB_load_access 178378
Core_0_STLB_load_hit 176851
Core_0_STLB_load_miss 1527
Core_0_STLB_load_MPKI 0.03054
Core_0_STLB_load_miss_rate 0.00856047
Core_0_STLB_rfo_access 0
Core_0_STLB_rfo_hit 0
Core_0_STLB_rfo_miss 0
Core_0_STLB_rfo_MPKI 0
Core_0_STLB_rfo_miss_rate 0
Core_0_STLB_prefetch_access 0
Core_0_STLB_prefetch_hit 0
Core_0_STLB_prefetch_miss 0
Core_0_STLB_prefetch_MPKI 0
Core_0_STLB_prefetch_miss_rate 0
Core_0_STLB_writeback_access 0
Core_0_STLB_writeback_hit 0
Core_0_STLB_writeback_miss 0
Core_0_STLB_writeback_MPKI 0
Core_0_STLB_writeback_miss_rate 0
Core_0_STLB_prefetch_requested 0
Core_0_STLB_prefetch_issued 0
Core_0_STLB_prefetch_useful 0
Core_0_STLB_prefetch_useless 0
Core_0_STLB_prefetch_late 0
Core_0_STLB_prefetch_accuracy 0
Core_0_STLB_prefetch_coverage 0

Core_0_L1I_total_access 7445746
Core_0_L1I_total_hit 7287158
Core_0_L1I_total_miss 158588
Core_0_L1I_total_MPKI 3.17176
Core_0_L1I_total_miss_rate 0.0212991
Core_0_L1I_demand_access 7445746
Core_0_L1I_demand_hit 7287158
Core_0_L1I_demand_miss 158588
Core_0_L1I_demand_MPKI 3.17176
Core_0_L1I_demand_miss_rate 0.0212991
Core_0_L1I_load_access 7445746
Core_0_L1I_load_hit 7287158
Core_0_L1I_load_miss 158588
Core_0_L1I_load_MPKI 3.17176
Core_0_L1I_load_miss_rate 0.0212991
Core_0_L1I_rfo_access 0
Core_0_L1I_rfo_hit 0
Core_0_L1I_rfo_miss 0
Core_0_L1I_rfo_MPKI 0
Core_0_L1I_rfo_miss_rate 0
Core_0_L1I_prefetch_access 0
Core_0_L1I_prefetch_hit 0
Core_0_L1I_prefetch_miss 0
Core_0_L1I_prefetch_MPKI 0
Core_0_L1I_prefetch_miss_rate 0
Core_0_L1I_writeback_access 0
Core_0_L1I_writeback_hit 0
Core_0_L1I_writeback_miss 0
Core_0_L1I_writeback_MPKI 0
Core_0_L1I_writeback_miss_rate 0
Core_0_L1I_prefetch_requested 0
Core_0_L1I_prefetch_issued 0
Core_0_L1I_prefetch_useful 0
Core_0_L1I_prefetch_useless 0
Core_0_L1I_prefetch_late 0
Core_0_L1I_prefetch_accuracy 0
Core_0_L1I_prefetch_coverage 0

Core_0_L1D_total_access 9702577
Core_0_L1D_total_hit 9381453
Core_0_L1D_total_miss 321124
Core_0_L1D_total_MPKI 6.42248
Core_0_L1D_total_miss_rate 0.0330968
Core_0_L1D_demand_access 4639567
Core_0_L1D_demand_hit 4409235
Core_0_L1D_demand_miss 230332
Core_0_L1D_demand_MPKI 4.60664
Core_0_L1D_demand_miss_rate 0.0496452
Core_0_L1D_load_access 4639567
Core_0_L1D_load_hit 4409235
Core_0_L1D_load_miss 230332
Core_0_L1D_load_MPKI 4.60664
Core_0_L1D_load_miss_rate 0.0496452
Core_0_L1D_rfo_access 0
Core_0_L1D_rfo_hit 0
Core_0_L1D_rfo_miss 0
Core_0_L1D_rfo_MPKI 0
Core_0_L1D_rfo_miss_rate 0
Core_0_L1D_prefetch_access 0
Core_0_L1D_prefetch_hit 0
Core_0_L1D_prefetch_miss 0
Core_0_L1D_prefetch_MPKI 0
Core_0_L1D_prefetch_miss_rate 0
Core_0_L1D_writeback_access 5063010
Core_0_L1D_writeback_hit 4972218
Core_0_L1D_writeback_miss 90792
Core_0_L1D_writeback_MPKI 1.81584
Core_0_L1D_writeback_miss_rate 0.0179324
Core_0_L1D_prefetch_requested 0
Core_0_L1D_prefetch_issued 0
Core_0_L1D_prefetch_useful 0
Core_0_L1D_prefetch_useless 0
Core_0_L1D_prefetch_late 0
Core_0_L1D_prefetch_accuracy 0
Core_0_L1D_prefetch_coverage 0

Core_0_L2C_total_access 318902
Core_0_L2C_total_hit 249266
Core_0_L2C_total_miss 69636
Core_0_L2C_total_MPKI 1.39272
Core_0_L2C_total_miss_rate 0.218362
Core_0_L2C_demand_access 265400
Core_0_L2C_demand_hit 195982
Core_0_L2C_demand_miss 69418
Core_0_L2C_demand_MPKI 1.38836
Core_0_L2C_demand_miss_rate 0.26156
Core_0_L2C_load_access 215876
Core_0_L2C_load_hit 168269
Core_0_L2C_load_miss 47607
Core_0_L2C_load_MPKI 0.95214
Core_0_L2C_load_miss_rate 0.220529
Core_0_L2C_rfo_access 49524
Core_0_L2C_rfo_hit 27713
Core_0_L2C_rfo_miss 21811
Core_0_L2C_rfo_MPKI 0.43622
Core_0_L2C_rfo_miss_rate 0.440413
Core_0_L2C_prefetch_access 0
Core_0_L2C_prefetch_hit 0
Core_0_L2C_prefetch_miss 0
Core_0_L2C_prefetch_MPKI 0
Core_0_L2C_prefetch_miss_rate 0
Core_0_L2C_writeback_access 53502
Core_0_L2C_writeback_hit 53284
Core_0_L2C_writeback_miss 218
Core_0_L2C_writeback_MPKI 0.00436
Core_0_L2C_writeback_miss_rate 0.00407461
Core_0_L2C_prefetch_requested 0
Core_0_L2C_prefetch_issued 0
Core_0_L2C_prefetch_useful 0
Core_0_L2C_prefetch_useless 0
Core_0_L2C_prefetch_late 0
Core_0_L2C_prefetch_accuracy 0
Core_0_L2C_prefetch_coverage 0

Core_0_LLC_total_access 91308
Core_0_LLC_total_hit 9202
Core_0_LLC_total_miss 82106
Core_0_LLC_total_MPKI 1.64212
Core_0_LLC_total_miss_rate 0.89922
Core_0_LLC_demand_access 69418
Core_0_LLC_demand_hit 1330
Core_0_LLC_demand_miss 68088
Core_0_LLC_demand_MPKI 1.36176
Core_0_LLC_demand_miss_rate 0.980841
Core_0_LLC_load_access 47607
Core_0_LLC_load_hit 1196
Core_0_LLC_load_miss 46411
Core_0_LLC_load_MPKI 0.92822
Core_0_LLC_load_miss_rate 0.974878
Core_0_LLC_rfo_access 21811
Core_0_LLC_rfo_hit 134
Core_0_LLC_rfo_miss 21677
Core_0_LLC_rfo_MPKI 0.43354
Core_0_LLC_rfo_miss_rate 0.993856
Core_0_LLC_prefetch_access 0
Core_0_LLC_prefetch_hit 0
Core_0_LLC_prefetch_miss 0
Core_0_LLC_prefetch_MPKI 0
Core_0_LLC_prefetch_miss_rate 0
Core_0_LLC_writeback_access 21890
Core_0_LLC_writeback_hit 7872
Core_0_LLC_writeback_miss 14018
Core_0_LLC_writeback_MPKI 0.28036
Core_0_LLC_writeback_miss_rate 0.640384
Core_0_LLC_prefetch_requested 0
Core_0_LLC_prefetch_issued 0
Core_0_LLC_prefetch_useful 0
Core_0_LLC_prefetch_useless 0
Core_0_LLC_prefetch_late 0
Core_0_LLC_prefetch_accuracy 0
Core_0_LLC_prefetch_coverage 0

[DRAM Statistics]
Channel_0_RQ_row_buffer_hit 237
Channel_0_RQ_row_buffer_miss 68071
Channel_0_WQ_row_buffer_hit 1850
Channel_0_WQ_row_buffer_miss 15517
Channel_0_WQ_full 0
Channel_0_dbus_congested 182357
DRAM_total_RQ_row_buffer_hit 237
DRAM_total_RQ_row_buffer_miss 68071
DRAM_total_WQ_row_buffer_hit 1850
DRAM_total_WQ_row_buffer_miss 15517
DRAM_total_WQ_full 0
DRAM_total_dbus_congested 182357
DRAM_avg_congested_cycle 10.417

======STLB miss causes ========
Core_0_STLB_miss_cause_breakdown
Core_0_STLB_cause_Demand_Data_miss 1527
Core_0_STLB_cause_Demand_Data_miss_rate 0.00856047
Core_0_STLB_cause_Demand_Instruction_miss 0
Core_0_STLB_cause_Demand_Instruction_miss_rate 0
Core_0_STLB_cause_L1D_Prefetch_miss 0
Core_0_STLB_cause_L1D_Prefetch_miss_rate 0
Core_0_STLB_cause_L1I_Prefetch_miss 0
Core_0_STLB_cause_L1I_Prefetch_miss_rate 0
Core_0_STLB_cause_Other_miss 0
Core_0_STLB_cause_Other_miss_rate 0
Core_0_STLB_Demand_miss 1527
Core_0_STLB_Demand_miss_rate 0.00856047
Core_0_STLB_L1D_Prefetch_miss 0
Core_0_STLB_L1D_Prefetch_miss_rate 0
Core_0_STLB_Other_miss 0
Core_0_STLB_Other_miss_rate 0
