[VMEM] WARNING: physical memory size is smaller than virtual memory size.

*** ChampSim Multicore Out-of-Order Simulator ***
Warmup Instructions: 20000000
Simulation Instructions: 50000000
Number of CPUs: 1
Page size: 4096
Core 0: /data2/zcq/gap_dpc/bfs-3.trace.gz
Off-chip DRAM Size: 16 GiB Channels: 1 Width: 64-bit Data Rate: 3205 MT/s
Warmup halting CPU 0 at instruction 20000003 cycle 5381875 for remainder of phase
Warmup finished CPU 0 instructions: 20000003 cycles: 5381875 cumulative IPC: 3.716 (Simulation time: 00 hr 01 min 02 sec)
Warmup complete CPU 0 instructions: 20000003 cycles: 5381875 cumulative IPC: 3.716 (Simulation time: 00 hr 01 min 02 sec)
Simulation finished CPU 0 instructions: 50000001 cycles: 252567764 cumulative IPC: 0.198 (Simulation time: 00 hr 15 min 40 sec)
Simulation complete CPU 0 instructions: 50000001 cycles: 252567764 cumulative IPC: 0.198 (Simulation time: 00 hr 15 min 40 sec)

ChampSim completed all CPUs

=== Simulation ===
CPU 0 runs /data2/zcq/gap_dpc/bfs-3.trace.gz

Region of Interest Statistics

CPU 0 cumulative IPC: 0.198 instructions: 50000001 cycles: 252567764
CPU 0 Branch Prediction Accuracy: 82.81% MPKI: 36.37 Average ROB Occupancy at Mispredict: 10.32
Branch type MPKI
BRANCH_DIRECT_JUMP: 4e-05
BRANCH_INDIRECT: 0
BRANCH_CONDITIONAL: 36.37
BRANCH_DIRECT_CALL: 8e-05
BRANCH_INDIRECT_CALL: 0
BRANCH_RETURN: 0.0001

cpu0->cpu0_STLB TOTAL        ACCESS:      56552 HIT:       6055 MISS:      50497 MSHR_MERGE:          0
cpu0->cpu0_STLB LOAD         ACCESS:      56552 HIT:       6055 MISS:      50497 MSHR_MERGE:          0
cpu0->cpu0_STLB RFO          ACCESS:          0 HIT:          0 MISS:          0 MSHR_MERGE:          0
cpu0->cpu0_STLB PREFETCH     ACCESS:          0 HIT:          0 MISS:          0 MSHR_MERGE:          0
cpu0->cpu0_STLB WRITE        ACCESS:          0 HIT:          0 MISS:          0 MSHR_MERGE:          0
cpu0->cpu0_STLB TRANSLATION  ACCESS:          0 HIT:          0 MISS:          0 MSHR_MERGE:          0
cpu0->cpu0_STLB PREFETCH REQUESTED:          0 ISSUED:          0 USEFUL:          0 USELESS:          0 LATE:          0
cpu0->cpu0_STLB AVERAGE MISS LATENCY: 117.2 cycles
cpu0->cpu0_L2C TOTAL        ACCESS:    1954226 HIT:     965912 MISS:     988314 MSHR_MERGE:          0
cpu0->cpu0_L2C LOAD         ACCESS:    1817764 HIT:     839382 MISS:     978382 MSHR_MERGE:          0
cpu0->cpu0_L2C RFO          ACCESS:       3759 HIT:       3118 MISS:        641 MSHR_MERGE:          0
cpu0->cpu0_L2C PREFETCH     ACCESS:          0 HIT:          0 MISS:          0 MSHR_MERGE:          0
cpu0->cpu0_L2C WRITE        ACCESS:     121495 HIT:     121489 MISS:          6 MSHR_MERGE:          0
cpu0->cpu0_L2C TRANSLATION  ACCESS:      11208 HIT:       1923 MISS:       9285 MSHR_MERGE:          0
cpu0->cpu0_L2C PREFETCH REQUESTED:          0 ISSUED:          0 USEFUL:          0 USELESS:          0 LATE:          0
cpu0->cpu0_L2C AVERAGE MISS LATENCY: 184.2 cycles
cpu0->cpu0_L1I TOTAL        ACCESS:     292837 HIT:     292833 MISS:          4 MSHR_MERGE:          0
cpu0->cpu0_L1I LOAD         ACCESS:     292837 HIT:     292833 MISS:          4 MSHR_MERGE:          0
cpu0->cpu0_L1I RFO          ACCESS:          0 HIT:          0 MISS:          0 MSHR_MERGE:          0
cpu0->cpu0_L1I PREFETCH     ACCESS:          0 HIT:          0 MISS:          0 MSHR_MERGE:          0
cpu0->cpu0_L1I WRITE        ACCESS:          0 HIT:          0 MISS:          0 MSHR_MERGE:          0
cpu0->cpu0_L1I TRANSLATION  ACCESS:          0 HIT:          0 MISS:          0 MSHR_MERGE:          0
cpu0->cpu0_L1I PREFETCH REQUESTED:          0 ISSUED:          0 USEFUL:          0 USELESS:          0 LATE:          0
cpu0->cpu0_L1I AVERAGE MISS LATENCY: 225.8 cycles
cpu0->cpu0_L1D TOTAL        ACCESS:   12846251 HIT:   10333210 MISS:    2513041 MSHR_MERGE:     680314
cpu0->cpu0_L1D LOAD         ACCESS:   11681315 HIT:    9194473 MISS:    2486842 MSHR_MERGE:     669082
cpu0->cpu0_L1D RFO          ACCESS:          0 HIT:          0 MISS:          0 MSHR_MERGE:          0
cpu0->cpu0_L1D PREFETCH     ACCESS:          0 HIT:          0 MISS:          0 MSHR_MERGE:          0
cpu0->cpu0_L1D WRITE        ACCESS:    1063757 HIT:    1048768 MISS:      14989 MSHR_MERGE:      11230
cpu0->cpu0_L1D TRANSLATION  ACCESS:     101179 HIT:      89969 MISS:      11210 MSHR_MERGE:          2
cpu0->cpu0_L1D PREFETCH REQUESTED:          0 ISSUED:          0 USEFUL:          0 USELESS:          0 LATE:          0
cpu0->cpu0_L1D AVERAGE MISS LATENCY: 107.9 cycles
cpu0->cpu0_ITLB TOTAL        ACCESS:     292809 HIT:     292809 MISS:          0 MSHR_MERGE:          0
cpu0->cpu0_ITLB LOAD         ACCESS:     292809 HIT:     292809 MISS:          0 MSHR_MERGE:          0
cpu0->cpu0_ITLB RFO          ACCESS:          0 HIT:          0 MISS:          0 MSHR_MERGE:          0
cpu0->cpu0_ITLB PREFETCH     ACCESS:          0 HIT:          0 MISS:          0 MSHR_MERGE:          0
cpu0->cpu0_ITLB WRITE        ACCESS:          0 HIT:          0 MISS:          0 MSHR_MERGE:          0
cpu0->cpu0_ITLB TRANSLATION  ACCESS:          0 HIT:          0 MISS:          0 MSHR_MERGE:          0
cpu0->cpu0_ITLB PREFETCH REQUESTED:          0 ISSUED:          0 USEFUL:          0 USELESS:          0 LATE:          0
cpu0->cpu0_ITLB AVERAGE MISS LATENCY: - cycles
cpu0->cpu0_DTLB TOTAL        ACCESS:   12744325 HIT:   12648354 MISS:      95971 MSHR_MERGE:      39419
cpu0->cpu0_DTLB LOAD         ACCESS:   12744325 HIT:   12648354 MISS:      95971 MSHR_MERGE:      39419
cpu0->cpu0_DTLB RFO          ACCESS:          0 HIT:          0 MISS:          0 MSHR_MERGE:          0
cpu0->cpu0_DTLB PREFETCH     ACCESS:          0 HIT:          0 MISS:          0 MSHR_MERGE:          0
cpu0->cpu0_DTLB WRITE        ACCESS:          0 HIT:          0 MISS:          0 MSHR_MERGE:          0
cpu0->cpu0_DTLB TRANSLATION  ACCESS:          0 HIT:          0 MISS:          0 MSHR_MERGE:          0
cpu0->cpu0_DTLB PREFETCH REQUESTED:          0 ISSUED:          0 USEFUL:          0 USELESS:          0 LATE:          0
cpu0->cpu0_DTLB AVERAGE MISS LATENCY: 110.5 cycles
cpu0->LLC TOTAL        ACCESS:    1110756 HIT:     107443 MISS:    1003313 MSHR_MERGE:          0
cpu0->LLC LOAD         ACCESS:     978382 HIT:      46291 MISS:     932091 MSHR_MERGE:          0
cpu0->LLC RFO          ACCESS:        641 HIT:        602 MISS:         39 MSHR_MERGE:          0
cpu0->LLC PREFETCH     ACCESS:          0 HIT:          0 MISS:          0 MSHR_MERGE:          0
cpu0->LLC WRITE        ACCESS:     122448 HIT:      60424 MISS:      62024 MSHR_MERGE:          0
cpu0->LLC TRANSLATION  ACCESS:       9285 HIT:        126 MISS:       9159 MSHR_MERGE:          0
cpu0->LLC PREFETCH REQUESTED:          0 ISSUED:          0 USEFUL:          0 USELESS:          0 LATE:          0
cpu0->LLC AVERAGE MISS LATENCY: 166.2 cycles

DRAM Statistics

Channel 0 RQ ROW_BUFFER_HIT:      17693
  ROW_BUFFER_MISS:     923595
  AVG DBUS CONGESTED CYCLE: 20.08
Channel 0 WQ ROW_BUFFER_HIT:      28125
  ROW_BUFFER_MISS:     110869
  FULL:          0
Channel 0 REFRESHES ISSUED:      21047

[ROI Statistics]
[System Configuration]
num_cpus 1
cpu_freq 4000
fetch_width 6
decode_width 6
dispatch_width 6
execute_width 6
lq_width 2
sq_width 2
retire_width 6
scheduler_size 128
branch_mispredict_penalty 15
rob_size 352
lq_size 128
sq_size 72
ifetch_buffer_size 64
decode_buffer_size 32
dispatch_buffer_size 32
register_file_size 288
decode_latency 1
dispatch_latency 1
schedule_latency 1
execute_latency 1
page_size 4096
block_size 64
core_0_itlb_set 16
core_0_itlb_way 4
core_0_itlb_rq_size 16
core_0_itlb_wq_size 16
core_0_itlb_pq_size 0
core_0_itlb_mshr_size 8
core_0_itlb_hit_latency 1
core_0_itlb_fill_latency 1
core_0_itlb_max_tag_check 2
core_0_itlb_max_fill 2
core_0_dtlb_set 16
core_0_dtlb_way 4
core_0_dtlb_rq_size 16
core_0_dtlb_wq_size 16
core_0_dtlb_pq_size 0
core_0_dtlb_mshr_size 8
core_0_dtlb_hit_latency 1
core_0_dtlb_fill_latency 1
core_0_dtlb_max_tag_check 2
core_0_dtlb_max_fill 2
core_0_stlb_set 128
core_0_stlb_way 12
core_0_stlb_rq_size 32
core_0_stlb_wq_size 32
core_0_stlb_pq_size 0
core_0_stlb_mshr_size 16
core_0_stlb_hit_latency 4
core_0_stlb_fill_latency 4
core_0_stlb_max_tag_check 1
core_0_stlb_max_fill 1
core_0_l1i_set 64
core_0_l1i_way 8
core_0_l1i_rq_size 64
core_0_l1i_wq_size 64
core_0_l1i_pq_size 32
core_0_l1i_mshr_size 8
core_0_l1i_hit_latency 2
core_0_l1i_fill_latency 2
core_0_l1i_max_tag_check 2
core_0_l1i_max_fill 2
core_0_l1d_set 64
core_0_l1d_way 12
core_0_l1d_rq_size 64
core_0_l1d_wq_size 64
core_0_l1d_pq_size 8
core_0_l1d_mshr_size 16
core_0_l1d_hit_latency 2
core_0_l1d_fill_latency 3
core_0_l1d_max_tag_check 2
core_0_l1d_max_fill 2
core_0_l2c_set 1024
core_0_l2c_way 8
core_0_l2c_rq_size 32
core_0_l2c_wq_size 32
core_0_l2c_pq_size 16
core_0_l2c_mshr_size 32
core_0_l2c_hit_latency 5
core_0_l2c_fill_latency 5
core_0_l2c_max_tag_check 1
core_0_l2c_max_fill 1
llc_set 2048
llc_way 16
llc_rq_size 32
llc_wq_size 32
llc_pq_size 32
llc_mshr_size 64
llc_hit_latency 10
llc_fill_latency 10
llc_max_tag_check 1
llc_max_fill 1
dram_channels 1
dram_ranks 1
dram_bankgroups 8
dram_banks 4
dram_rows 65536
dram_columns 1024
dram_channel_width 8
dram_rq_size 64
dram_wq_size 64
dram_size 17179869184
core_0_itlb_prefetcher no
core_0_dtlb_prefetcher no
core_0_stlb_prefetcher no
core_0_l1i_prefetcher no
core_0_l1d_prefetcher no
core_0_l2c_prefetcher no
llc_prefetcher no
llc_replacement drrip

Core_0_instructions 50000001
Core_0_cycles 252567764
Core_0_IPC 0.197967
Core_0_branch_prediction_accuracy 82.8086
Core_0_branch_MPKI 36.3707
Core_0_average_ROB_occupancy_at_mispredict 10.3215

Core_0_ITLB_total_access 292809
Core_0_ITLB_total_hit 292809
Core_0_ITLB_total_miss 0
Core_0_ITLB_total_MPKI 0
Core_0_ITLB_total_miss_rate 0
Core_0_ITLB_demand_access 292809
Core_0_ITLB_demand_hit 292809
Core_0_ITLB_demand_miss 0
Core_0_ITLB_demand_MPKI 0
Core_0_ITLB_demand_miss_rate 0
Core_0_ITLB_load_access 292809
Core_0_ITLB_load_hit 292809
Core_0_ITLB_load_miss 0
Core_0_ITLB_load_MPKI 0
Core_0_ITLB_load_miss_rate 0
Core_0_ITLB_rfo_access 0
Core_0_ITLB_rfo_hit 0
Core_0_ITLB_rfo_miss 0
Core_0_ITLB_rfo_MPKI 0
Core_0_ITLB_rfo_miss_rate 0
Core_0_ITLB_prefetch_access 0
Core_0_ITLB_prefetch_hit 0
Core_0_ITLB_prefetch_miss 0
Core_0_ITLB_prefetch_MPKI 0
Core_0_ITLB_prefetch_miss_rate 0
Core_0_ITLB_writeback_access 0
Core_0_ITLB_writeback_hit 0
Core_0_ITLB_writeback_miss 0
Core_0_ITLB_writeback_MPKI 0
Core_0_ITLB_writeback_miss_rate 0
Core_0_ITLB_prefetch_requested 0
Core_0_ITLB_prefetch_issued 0
Core_0_ITLB_prefetch_useful 0
Core_0_ITLB_prefetch_useless 0
Core_0_ITLB_prefetch_late 0
Core_0_ITLB_prefetch_accuracy 0
Core_0_ITLB_prefetch_coverage 0

Core_0_DTLB_total_access 12744325
Core_0_DTLB_total_hit 12648354
Core_0_DTLB_total_miss 95971
Core_0_DTLB_total_MPKI 1.91942
Core_0_DTLB_total_miss_rate 0.00753049
Core_0_DTLB_demand_access 12744325
Core_0_DTLB_demand_hit 12648354
Core_0_DTLB_demand_miss 95971
Core_0_DTLB_demand_MPKI 1.91942
Core_0_DTLB_demand_miss_rate 0.00753049
Core_0_DTLB_load_access 12744325
Core_0_DTLB_load_hit 12648354
Core_0_DTLB_load_miss 95971
Core_0_DTLB_load_MPKI 1.91942
Core_0_DTLB_load_miss_rate 0.00753049
Core_0_DTLB_rfo_access 0
Core_0_DTLB_rfo_hit 0
Core_0_DTLB_rfo_miss 0
Core_0_DTLB_rfo_MPKI 0
Core_0_DTLB_rfo_miss_rate 0
Core_0_DTLB_prefetch_access 0
Core_0_DTLB_prefetch_hit 0
Core_0_DTLB_prefetch_miss 0
Core_0_DTLB_prefetch_MPKI 0
Core_0_DTLB_prefetch_miss_rate 0
Core_0_DTLB_writeback_access 0
Core_0_DTLB_writeback_hit 0
Core_0_DTLB_writeback_miss 0
Core_0_DTLB_writeback_MPKI 0
Core_0_DTLB_writeback_miss_rate 0
Core_0_DTLB_prefetch_requested 0
Core_0_DTLB_prefetch_issued 0
Core_0_DTLB_prefetch_useful 0
Core_0_DTLB_prefetch_useless 0
Core_0_DTLB_prefetch_late 0
Core_0_DTLB_prefetch_accuracy 0
Core_0_DTLB_prefetch_coverage 0

Core_0_STLB_total_access 56552
Core_0_STLB_total_hit 6055
Core_0_STLB_total_miss 50497
Core_0_STLB_total_MPKI 1.00994
Core_0_STLB_total_miss_rate 0.89293
Core_0_STLB_demand_access 56552
Core_0_STLB_demand_hit 6055
Core_0_STLB_demand_miss 50497
Core_0_STLB_demand_MPKI 1.00994
Core_0_STLB_demand_miss_rate 0.89293
Core_0_STLB_load_access 56552
Core_0_STLB_load_hit 6055
Core_0_STLB_load_miss 50497
Core_0_STLB_load_MPKI 1.00994
Core_0_STLB_load_miss_rate 0.89293
Core_0_STLB_rfo_access 0
Core_0_STLB_rfo_hit 0
Core_0_STLB_rfo_miss 0
Core_0_STLB_rfo_MPKI 0
Core_0_STLB_rfo_miss_rate 0
Core_0_STLB_prefetch_access 0
Core_0_STLB_prefetch_hit 0
Core_0_STLB_prefetch_miss 0
Core_0_STLB_prefetch_MPKI 0
Core_0_STLB_prefetch_miss_rate 0
Core_0_STLB_writeback_access 0
Core_0_STLB_writeback_hit 0
Core_0_STLB_writeback_miss 0
Core_0_STLB_writeback_MPKI 0
Core_0_STLB_writeback_miss_rate 0
Core_0_STLB_prefetch_requested 0
Core_0_STLB_prefetch_issued 0
Core_0_STLB_prefetch_useful 0
Core_0_STLB_prefetch_useless 0
Core_0_STLB_prefetch_late 0
Core_0_STLB_prefetch_accuracy 0
Core_0_STLB_prefetch_coverage 0

Core_0_L1I_total_access 292837
Core_0_L1I_total_hit 292833
Core_0_L1I_total_miss 4
Core_0_L1I_total_MPKI 8e-05
Core_0_L1I_total_miss_rate 1.36595e-05
Core_0_L1I_demand_access 292837
Core_0_L1I_demand_hit 292833
Core_0_L1I_demand_miss 4
Core_0_L1I_demand_MPKI 8e-05
Core_0_L1I_demand_miss_rate 1.36595e-05
Core_0_L1I_load_access 292837
Core_0_L1I_load_hit 292833
Core_0_L1I_load_miss 4
Core_0_L1I_load_MPKI 8e-05
Core_0_L1I_load_miss_rate 1.36595e-05
Core_0_L1I_rfo_access 0
Core_0_L1I_rfo_hit 0
Core_0_L1I_rfo_miss 0
Core_0_L1I_rfo_MPKI 0
Core_0_L1I_rfo_miss_rate 0
Core_0_L1I_prefetch_access 0
Core_0_L1I_prefetch_hit 0
Core_0_L1I_prefetch_miss 0
Core_0_L1I_prefetch_MPKI 0
Core_0_L1I_prefetch_miss_rate 0
Core_0_L1I_writeback_access 0
Core_0_L1I_writeback_hit 0
Core_0_L1I_writeback_miss 0
Core_0_L1I_writeback_MPKI 0
Core_0_L1I_writeback_miss_rate 0
Core_0_L1I_prefetch_requested 0
Core_0_L1I_prefetch_issued 0
Core_0_L1I_prefetch_useful 0
Core_0_L1I_prefetch_useless 0
Core_0_L1I_prefetch_late 0
Core_0_L1I_prefetch_accuracy 0
Core_0_L1I_prefetch_coverage 0

Core_0_L1D_total_access 12745072
Core_0_L1D_total_hit 10243241
Core_0_L1D_total_miss 2501831
Core_0_L1D_total_MPKI 50.0366
Core_0_L1D_total_miss_rate 0.196298
Core_0_L1D_demand_access 11681315
Core_0_L1D_demand_hit 9194473
Core_0_L1D_demand_miss 2486842
Core_0_L1D_demand_MPKI 49.7368
Core_0_L1D_demand_miss_rate 0.212891
Core_0_L1D_load_access 11681315
Core_0_L1D_load_hit 9194473
Core_0_L1D_load_miss 2486842
Core_0_L1D_load_MPKI 49.7368
Core_0_L1D_load_miss_rate 0.212891
Core_0_L1D_rfo_access 0
Core_0_L1D_rfo_hit 0
Core_0_L1D_rfo_miss 0
Core_0_L1D_rfo_MPKI 0
Core_0_L1D_rfo_miss_rate 0
Core_0_L1D_prefetch_access 0
Core_0_L1D_prefetch_hit 0
Core_0_L1D_prefetch_miss 0
Core_0_L1D_prefetch_MPKI 0
Core_0_L1D_prefetch_miss_rate 0
Core_0_L1D_writeback_access 1063757
Core_0_L1D_writeback_hit 1048768
Core_0_L1D_writeback_miss 14989
Core_0_L1D_writeback_MPKI 0.29978
Core_0_L1D_writeback_miss_rate 0.0140906
Core_0_L1D_prefetch_requested 0
Core_0_L1D_prefetch_issued 0
Core_0_L1D_prefetch_useful 0
Core_0_L1D_prefetch_useless 0
Core_0_L1D_prefetch_late 0
Core_0_L1D_prefetch_accuracy 0
Core_0_L1D_prefetch_coverage 0

Core_0_L2C_total_access 1943018
Core_0_L2C_total_hit 963989
Core_0_L2C_total_miss 979029
Core_0_L2C_total_MPKI 19.5806
Core_0_L2C_total_miss_rate 0.50387
Core_0_L2C_demand_access 1821523
Core_0_L2C_demand_hit 842500
Core_0_L2C_demand_miss 979023
Core_0_L2C_demand_MPKI 19.5805
Core_0_L2C_demand_miss_rate 0.537475
Core_0_L2C_load_access 1817764
Core_0_L2C_load_hit 839382
Core_0_L2C_load_miss 978382
Core_0_L2C_load_MPKI 19.5676
Core_0_L2C_load_miss_rate 0.538234
Core_0_L2C_rfo_access 3759
Core_0_L2C_rfo_hit 3118
Core_0_L2C_rfo_miss 641
Core_0_L2C_rfo_MPKI 0.01282
Core_0_L2C_rfo_miss_rate 0.170524
Core_0_L2C_prefetch_access 0
Core_0_L2C_prefetch_hit 0
Core_0_L2C_prefetch_miss 0
Core_0_L2C_prefetch_MPKI 0
Core_0_L2C_prefetch_miss_rate 0
Core_0_L2C_writeback_access 121495
Core_0_L2C_writeback_hit 121489
Core_0_L2C_writeback_miss 6
Core_0_L2C_writeback_MPKI 0.00012
Core_0_L2C_writeback_miss_rate 4.93847e-05
Core_0_L2C_prefetch_requested 0
Core_0_L2C_prefetch_issued 0
Core_0_L2C_prefetch_useful 0
Core_0_L2C_prefetch_useless 0
Core_0_L2C_prefetch_late 0
Core_0_L2C_prefetch_accuracy 0
Core_0_L2C_prefetch_coverage 0

Core_0_LLC_total_access 1101471
Core_0_LLC_total_hit 107317
Core_0_LLC_total_miss 994154
Core_0_LLC_total_MPKI 19.8831
Core_0_LLC_total_miss_rate 0.902569
Core_0_LLC_demand_access 979023
Core_0_LLC_demand_hit 46893
Core_0_LLC_demand_miss 932130
Core_0_LLC_demand_MPKI 18.6426
Core_0_LLC_demand_miss_rate 0.952102
Core_0_LLC_load_access 978382
Core_0_LLC_load_hit 46291
Core_0_LLC_load_miss 932091
Core_0_LLC_load_MPKI 18.6418
Core_0_LLC_load_miss_rate 0.952686
Core_0_LLC_rfo_access 641
Core_0_LLC_rfo_hit 602
Core_0_LLC_rfo_miss 39
Core_0_LLC_rfo_MPKI 0.00078
Core_0_LLC_rfo_miss_rate 0.0608424
Core_0_LLC_prefetch_access 0
Core_0_LLC_prefetch_hit 0
Core_0_LLC_prefetch_miss 0
Core_0_LLC_prefetch_MPKI 0
Core_0_LLC_prefetch_miss_rate 0
Core_0_LLC_writeback_access 122448
Core_0_LLC_writeback_hit 60424
Core_0_LLC_writeback_miss 62024
Core_0_LLC_writeback_MPKI 1.24048
Core_0_LLC_writeback_miss_rate 0.506533
Core_0_LLC_prefetch_requested 0
Core_0_LLC_prefetch_issued 0
Core_0_LLC_prefetch_useful 0
Core_0_LLC_prefetch_useless 0
Core_0_LLC_prefetch_late 0
Core_0_LLC_prefetch_accuracy 0
Core_0_LLC_prefetch_coverage 0

[DRAM Statistics]
Channel_0_RQ_row_buffer_hit 17693
Channel_0_RQ_row_buffer_miss 923595
Channel_0_WQ_row_buffer_hit 28125
Channel_0_WQ_row_buffer_miss 110869
Channel_0_WQ_full 0
Channel_0_dbus_congested 2070074
DRAM_total_RQ_row_buffer_hit 17693
DRAM_total_RQ_row_buffer_miss 923595
DRAM_total_WQ_row_buffer_hit 28125
DRAM_total_WQ_row_buffer_miss 110869
DRAM_total_WQ_full 0
DRAM_total_dbus_congested 2070074
DRAM_avg_congested_cycle 20.0763

====== DRAM_RQ_TRAFFIC ========
DRAM_RQ_READ_TRAFFIC_BREAKDOWN:
data_demand_read.count = 932126
data_demand_read.share = 99.03%

inst_demand_read.count = 4
inst_demand_read.share = 0.00%

cache_inst_prefetch.count = 0
cache_inst_prefetch.share = 0.00%

cache_data_prefetch.count = 0
cache_data_prefetch.share = 0.00%

stlb_data_demand.count = 9159
stlb_data_demand.share = 0.97%

stlb_inst_demand.count = 0
stlb_inst_demand.share = 0.00%

stlb_l1i_pref.count = 0
stlb_l1i_pref.share = 0.00%

stlb_l1d_pref.count = 0
stlb_l1d_pref.share = 0.00%

DRAM_RQ_READ_TRAFFIC_SUMMARY:
cache_demand.count = 932130
cache_demand.share = 99.03%

cache_prefetch.count = 0
cache_prefetch.share = 0.00%

stlb_demand.count = 9159
stlb_demand.share = 0.97%

stlb_prefetch.count = 0
stlb_prefetch.share = 0.00%

DRAM_RQ_READ_TRAFFIC_DEBUG:
total_classified_read.count = 941289
unclassified_read.count = 0
total_read_with_other.count = 941289

classified_plus_unclassified_check.count = 941289
dram_rq_read_total_observed.count = 941289
dram_rq_read_total_observed.per_1K_instructions = 18.8258

STLB_MISS_PTW_DRAM_TOUCH_BREAKDOWN:
stlb_miss_total.count = 50497

stlb_miss_touch_dram.count = 9076
stlb_miss_touch_dram.share = 17.97%

stlb_miss_no_dram_touch.count = 41421
stlb_miss_no_dram_touch.share = 82.03%

STLB_MISS_PTW_DRAM_TOUCH_DEBUG:
stlb_miss_touch_plus_no_touch.count = 50497
stlb_miss_total_check.count = 50497

======STLB miss causes ========
Core_0_STLB_miss_cause_breakdown
Core_0_STLB_cause_Demand_Data_miss 50497
Core_0_STLB_cause_Demand_Data_miss_rate 0.89293
Core_0_STLB_cause_Demand_Instruction_miss 0
Core_0_STLB_cause_Demand_Instruction_miss_rate 0
Core_0_STLB_cause_L1D_Prefetch_miss 0
Core_0_STLB_cause_L1D_Prefetch_miss_rate 0
Core_0_STLB_cause_L1I_Prefetch_miss 0
Core_0_STLB_cause_L1I_Prefetch_miss_rate 0
Core_0_STLB_cause_Other_miss 0
Core_0_STLB_cause_Other_miss_rate 0
Core_0_STLB_Demand_miss 50497
Core_0_STLB_Demand_miss_rate 0.89293
Core_0_STLB_L1D_Prefetch_miss 0
Core_0_STLB_L1D_Prefetch_miss_rate 0
Core_0_STLB_Other_miss 0
Core_0_STLB_Other_miss_rate 0
