[VMEM] WARNING: physical memory size is smaller than virtual memory size.

*** ChampSim Multicore Out-of-Order Simulator ***
Warmup Instructions: 20000000
Simulation Instructions: 50000000
Number of CPUs: 1
Page size: 4096
Core 0: /data2/zcq/gap_dpc/cc-5.trace.gz
Off-chip DRAM Size: 16 GiB Channels: 1 Width: 64-bit Data Rate: 3205 MT/s
Warmup halting CPU 0 at instruction 20000001 cycle 4374552 for remainder of phase
Warmup finished CPU 0 instructions: 20000001 cycles: 4374552 cumulative IPC: 4.572 (Simulation time: 00 hr 00 min 51 sec)
Warmup complete CPU 0 instructions: 20000001 cycles: 4374552 cumulative IPC: 4.572 (Simulation time: 00 hr 00 min 51 sec)
Simulation finished CPU 0 instructions: 50000003 cycles: 156691781 cumulative IPC: 0.3191 (Simulation time: 00 hr 12 min 20 sec)
Simulation complete CPU 0 instructions: 50000003 cycles: 156691781 cumulative IPC: 0.3191 (Simulation time: 00 hr 12 min 20 sec)

ChampSim completed all CPUs

=== Simulation ===
CPU 0 runs /data2/zcq/gap_dpc/cc-5.trace.gz

Region of Interest Statistics

CPU 0 cumulative IPC: 0.3191 instructions: 50000003 cycles: 156691781
CPU 0 Branch Prediction Accuracy: 93.59% MPKI: 12.73 Average ROB Occupancy at Mispredict: 50.3
Branch type MPKI
BRANCH_DIRECT_JUMP: 0
BRANCH_INDIRECT: 0
BRANCH_CONDITIONAL: 12.73
BRANCH_DIRECT_CALL: 0
BRANCH_INDIRECT_CALL: 0
BRANCH_RETURN: 0

cpu0->cpu0_STLB TOTAL        ACCESS:    2306257 HIT:    2302757 MISS:       3500 MSHR_MERGE:          0
cpu0->cpu0_STLB LOAD         ACCESS:    2306257 HIT:    2302757 MISS:       3500 MSHR_MERGE:          0
cpu0->cpu0_STLB RFO          ACCESS:          0 HIT:          0 MISS:          0 MSHR_MERGE:          0
cpu0->cpu0_STLB PREFETCH     ACCESS:          0 HIT:          0 MISS:          0 MSHR_MERGE:          0
cpu0->cpu0_STLB WRITE        ACCESS:          0 HIT:          0 MISS:          0 MSHR_MERGE:          0
cpu0->cpu0_STLB TRANSLATION  ACCESS:          0 HIT:          0 MISS:          0 MSHR_MERGE:          0
cpu0->cpu0_STLB PREFETCH REQUESTED:          0 ISSUED:          0 USEFUL:          0 USELESS:          0 LATE:          0
cpu0->cpu0_STLB AVERAGE MISS LATENCY: 252 cycles
cpu0->cpu0_L2C TOTAL        ACCESS:    3748784 HIT:    1248829 MISS:    2499955 MSHR_MERGE:          0
cpu0->cpu0_L2C LOAD         ACCESS:    3589714 HIT:    1090393 MISS:    2499321 MSHR_MERGE:          0
cpu0->cpu0_L2C RFO          ACCESS:          0 HIT:          0 MISS:          0 MSHR_MERGE:          0
cpu0->cpu0_L2C PREFETCH     ACCESS:          0 HIT:          0 MISS:          0 MSHR_MERGE:          0
cpu0->cpu0_L2C WRITE        ACCESS:     155730 HIT:     155691 MISS:         39 MSHR_MERGE:          0
cpu0->cpu0_L2C TRANSLATION  ACCESS:       3340 HIT:       2745 MISS:        595 MSHR_MERGE:          0
cpu0->cpu0_L2C PREFETCH REQUESTED:          0 ISSUED:          0 USEFUL:          0 USELESS:          0 LATE:          0
cpu0->cpu0_L2C AVERAGE MISS LATENCY: 81.86 cycles
cpu0->cpu0_L1I TOTAL        ACCESS:     541604 HIT:     541604 MISS:          0 MSHR_MERGE:          0
cpu0->cpu0_L1I LOAD         ACCESS:     541604 HIT:     541604 MISS:          0 MSHR_MERGE:          0
cpu0->cpu0_L1I RFO          ACCESS:          0 HIT:          0 MISS:          0 MSHR_MERGE:          0
cpu0->cpu0_L1I PREFETCH     ACCESS:          0 HIT:          0 MISS:          0 MSHR_MERGE:          0
cpu0->cpu0_L1I WRITE        ACCESS:          0 HIT:          0 MISS:          0 MSHR_MERGE:          0
cpu0->cpu0_L1I TRANSLATION  ACCESS:          0 HIT:          0 MISS:          0 MSHR_MERGE:          0
cpu0->cpu0_L1I PREFETCH REQUESTED:          0 ISSUED:          0 USEFUL:          0 USELESS:          0 LATE:          0
cpu0->cpu0_L1I AVERAGE MISS LATENCY: - cycles
cpu0->cpu0_L1D TOTAL        ACCESS:   13116210 HIT:    8558903 MISS:    4557307 MSHR_MERGE:     964255
cpu0->cpu0_L1D LOAD         ACCESS:   12924411 HIT:    8370444 MISS:    4553967 MSHR_MERGE:     964255
cpu0->cpu0_L1D RFO          ACCESS:          0 HIT:          0 MISS:          0 MSHR_MERGE:          0
cpu0->cpu0_L1D PREFETCH     ACCESS:          0 HIT:          0 MISS:          0 MSHR_MERGE:          0
cpu0->cpu0_L1D WRITE        ACCESS:     184791 HIT:     184791 MISS:          0 MSHR_MERGE:          0
cpu0->cpu0_L1D TRANSLATION  ACCESS:       7008 HIT:       3668 MISS:       3340 MSHR_MERGE:          0
cpu0->cpu0_L1D PREFETCH REQUESTED:          0 ISSUED:          0 USEFUL:          0 USELESS:          0 LATE:          0
cpu0->cpu0_L1D AVERAGE MISS LATENCY: 65.83 cycles
cpu0->cpu0_ITLB TOTAL        ACCESS:     541570 HIT:     541570 MISS:          0 MSHR_MERGE:          0
cpu0->cpu0_ITLB LOAD         ACCESS:     541570 HIT:     541570 MISS:          0 MSHR_MERGE:          0
cpu0->cpu0_ITLB RFO          ACCESS:          0 HIT:          0 MISS:          0 MSHR_MERGE:          0
cpu0->cpu0_ITLB PREFETCH     ACCESS:          0 HIT:          0 MISS:          0 MSHR_MERGE:          0
cpu0->cpu0_ITLB WRITE        ACCESS:          0 HIT:          0 MISS:          0 MSHR_MERGE:          0
cpu0->cpu0_ITLB TRANSLATION  ACCESS:          0 HIT:          0 MISS:          0 MSHR_MERGE:          0
cpu0->cpu0_ITLB PREFETCH REQUESTED:          0 ISSUED:          0 USEFUL:          0 USELESS:          0 LATE:          0
cpu0->cpu0_ITLB AVERAGE MISS LATENCY: - cycles
cpu0->cpu0_DTLB TOTAL        ACCESS:   13109105 HIT:   10348703 MISS:    2760402 MSHR_MERGE:     454145
cpu0->cpu0_DTLB LOAD         ACCESS:   13109105 HIT:   10348703 MISS:    2760402 MSHR_MERGE:     454145
cpu0->cpu0_DTLB RFO          ACCESS:          0 HIT:          0 MISS:          0 MSHR_MERGE:          0
cpu0->cpu0_DTLB PREFETCH     ACCESS:          0 HIT:          0 MISS:          0 MSHR_MERGE:          0
cpu0->cpu0_DTLB WRITE        ACCESS:          0 HIT:          0 MISS:          0 MSHR_MERGE:          0
cpu0->cpu0_DTLB TRANSLATION  ACCESS:          0 HIT:          0 MISS:          0 MSHR_MERGE:          0
cpu0->cpu0_DTLB PREFETCH REQUESTED:          0 ISSUED:          0 USEFUL:          0 USELESS:          0 LATE:          0
cpu0->cpu0_DTLB AVERAGE MISS LATENCY: 5.434 cycles
cpu0->LLC TOTAL        ACCESS:    2655191 HIT:    1734156 MISS:     921035 MSHR_MERGE:          0
cpu0->LLC LOAD         ACCESS:    2499321 HIT:    1634474 MISS:     864847 MSHR_MERGE:          0
cpu0->LLC RFO          ACCESS:          0 HIT:          0 MISS:          0 MSHR_MERGE:          0
cpu0->LLC PREFETCH     ACCESS:          0 HIT:          0 MISS:          0 MSHR_MERGE:          0
cpu0->LLC WRITE        ACCESS:     155275 HIT:      99612 MISS:      55663 MSHR_MERGE:          0
cpu0->LLC TRANSLATION  ACCESS:        595 HIT:         70 MISS:        525 MSHR_MERGE:          0
cpu0->LLC PREFETCH REQUESTED:          0 ISSUED:          0 USEFUL:          0 USELESS:          0 LATE:          0
cpu0->LLC AVERAGE MISS LATENCY: 181.1 cycles

DRAM Statistics

Channel 0 RQ ROW_BUFFER_HIT:       3295
  ROW_BUFFER_MISS:     862034
  AVG DBUS CONGESTED CYCLE: 20.4
Channel 0 WQ ROW_BUFFER_HIT:      32334
  ROW_BUFFER_MISS:      70439
  FULL:          0
Channel 0 REFRESHES ISSUED:      13058

[ROI Statistics]
[System Configuration]
num_cpus 1
cpu_freq 4000
fetch_width 6
decode_width 6
dispatch_width 6
execute_width 6
lq_width 2
sq_width 2
retire_width 6
scheduler_size 128
branch_mispredict_penalty 15
rob_size 352
lq_size 128
sq_size 72
ifetch_buffer_size 64
decode_buffer_size 32
dispatch_buffer_size 32
register_file_size 288
decode_latency 1
dispatch_latency 1
schedule_latency 1
execute_latency 1
page_size 4096
block_size 64
core_0_itlb_set 16
core_0_itlb_way 4
core_0_itlb_rq_size 16
core_0_itlb_wq_size 16
core_0_itlb_pq_size 0
core_0_itlb_mshr_size 8
core_0_itlb_hit_latency 1
core_0_itlb_fill_latency 1
core_0_itlb_max_tag_check 2
core_0_itlb_max_fill 2
core_0_dtlb_set 16
core_0_dtlb_way 4
core_0_dtlb_rq_size 16
core_0_dtlb_wq_size 16
core_0_dtlb_pq_size 0
core_0_dtlb_mshr_size 8
core_0_dtlb_hit_latency 1
core_0_dtlb_fill_latency 1
core_0_dtlb_max_tag_check 2
core_0_dtlb_max_fill 2
core_0_stlb_set 128
core_0_stlb_way 12
core_0_stlb_rq_size 32
core_0_stlb_wq_size 32
core_0_stlb_pq_size 0
core_0_stlb_mshr_size 16
core_0_stlb_hit_latency 4
core_0_stlb_fill_latency 4
core_0_stlb_max_tag_check 1
core_0_stlb_max_fill 1
core_0_l1i_set 64
core_0_l1i_way 8
core_0_l1i_rq_size 64
core_0_l1i_wq_size 64
core_0_l1i_pq_size 32
core_0_l1i_mshr_size 8
core_0_l1i_hit_latency 2
core_0_l1i_fill_latency 2
core_0_l1i_max_tag_check 2
core_0_l1i_max_fill 2
core_0_l1d_set 64
core_0_l1d_way 12
core_0_l1d_rq_size 64
core_0_l1d_wq_size 64
core_0_l1d_pq_size 8
core_0_l1d_mshr_size 16
core_0_l1d_hit_latency 2
core_0_l1d_fill_latency 3
core_0_l1d_max_tag_check 2
core_0_l1d_max_fill 2
core_0_l2c_set 1024
core_0_l2c_way 8
core_0_l2c_rq_size 32
core_0_l2c_wq_size 32
core_0_l2c_pq_size 16
core_0_l2c_mshr_size 32
core_0_l2c_hit_latency 5
core_0_l2c_fill_latency 5
core_0_l2c_max_tag_check 1
core_0_l2c_max_fill 1
llc_set 2048
llc_way 16
llc_rq_size 32
llc_wq_size 32
llc_pq_size 32
llc_mshr_size 64
llc_hit_latency 10
llc_fill_latency 10
llc_max_tag_check 1
llc_max_fill 1
dram_channels 1
dram_ranks 1
dram_bankgroups 8
dram_banks 4
dram_rows 65536
dram_columns 1024
dram_channel_width 8
dram_rq_size 64
dram_wq_size 64
dram_size 17179869184
core_0_itlb_prefetcher no
core_0_dtlb_prefetcher no
core_0_stlb_prefetcher no
core_0_l1i_prefetcher no
core_0_l1d_prefetcher no
core_0_l2c_prefetcher no
llc_prefetcher no
llc_replacement drrip

Core_0_instructions 50000003
Core_0_cycles 156691781
Core_0_IPC 0.319098
Core_0_branch_prediction_accuracy 93.5895
Core_0_branch_MPKI 12.7334
Core_0_average_ROB_occupancy_at_mispredict 50.2987

Core_0_ITLB_total_access 541570
Core_0_ITLB_total_hit 541570
Core_0_ITLB_total_miss 0
Core_0_ITLB_total_MPKI 0
Core_0_ITLB_total_miss_rate 0
Core_0_ITLB_demand_access 541570
Core_0_ITLB_demand_hit 541570
Core_0_ITLB_demand_miss 0
Core_0_ITLB_demand_MPKI 0
Core_0_ITLB_demand_miss_rate 0
Core_0_ITLB_load_access 541570
Core_0_ITLB_load_hit 541570
Core_0_ITLB_load_miss 0
Core_0_ITLB_load_MPKI 0
Core_0_ITLB_load_miss_rate 0
Core_0_ITLB_rfo_access 0
Core_0_ITLB_rfo_hit 0
Core_0_ITLB_rfo_miss 0
Core_0_ITLB_rfo_MPKI 0
Core_0_ITLB_rfo_miss_rate 0
Core_0_ITLB_prefetch_access 0
Core_0_ITLB_prefetch_hit 0
Core_0_ITLB_prefetch_miss 0
Core_0_ITLB_prefetch_MPKI 0
Core_0_ITLB_prefetch_miss_rate 0
Core_0_ITLB_writeback_access 0
Core_0_ITLB_writeback_hit 0
Core_0_ITLB_writeback_miss 0
Core_0_ITLB_writeback_MPKI 0
Core_0_ITLB_writeback_miss_rate 0
Core_0_ITLB_prefetch_requested 0
Core_0_ITLB_prefetch_issued 0
Core_0_ITLB_prefetch_useful 0
Core_0_ITLB_prefetch_useless 0
Core_0_ITLB_prefetch_late 0
Core_0_ITLB_prefetch_accuracy 0
Core_0_ITLB_prefetch_coverage 0

Core_0_DTLB_total_access 13109105
Core_0_DTLB_total_hit 10348703
Core_0_DTLB_total_miss 2760402
Core_0_DTLB_total_MPKI 55.208
Core_0_DTLB_total_miss_rate 0.210571
Core_0_DTLB_demand_access 13109105
Core_0_DTLB_demand_hit 10348703
Core_0_DTLB_demand_miss 2760402
Core_0_DTLB_demand_MPKI 55.208
Core_0_DTLB_demand_miss_rate 0.210571
Core_0_DTLB_load_access 13109105
Core_0_DTLB_load_hit 10348703
Core_0_DTLB_load_miss 2760402
Core_0_DTLB_load_MPKI 55.208
Core_0_DTLB_load_miss_rate 0.210571
Core_0_DTLB_rfo_access 0
Core_0_DTLB_rfo_hit 0
Core_0_DTLB_rfo_miss 0
Core_0_DTLB_rfo_MPKI 0
Core_0_DTLB_rfo_miss_rate 0
Core_0_DTLB_prefetch_access 0
Core_0_DTLB_prefetch_hit 0
Core_0_DTLB_prefetch_miss 0
Core_0_DTLB_prefetch_MPKI 0
Core_0_DTLB_prefetch_miss_rate 0
Core_0_DTLB_writeback_access 0
Core_0_DTLB_writeback_hit 0
Core_0_DTLB_writeback_miss 0
Core_0_DTLB_writeback_MPKI 0
Core_0_DTLB_writeback_miss_rate 0
Core_0_DTLB_prefetch_requested 0
Core_0_DTLB_prefetch_issued 0
Core_0_DTLB_prefetch_useful 0
Core_0_DTLB_prefetch_useless 0
Core_0_DTLB_prefetch_late 0
Core_0_DTLB_prefetch_accuracy 0
Core_0_DTLB_prefetch_coverage 0

Core_0_STLB_total_access 2306257
Core_0_STLB_total_hit 2302757
Core_0_STLB_total_miss 3500
Core_0_STLB_total_MPKI 0.07
Core_0_STLB_total_miss_rate 0.00151761
Core_0_STLB_demand_access 2306257
Core_0_STLB_demand_hit 2302757
Core_0_STLB_demand_miss 3500
Core_0_STLB_demand_MPKI 0.07
Core_0_STLB_demand_miss_rate 0.00151761
Core_0_STLB_load_access 2306257
Core_0_STLB_load_hit 2302757
Core_0_STLB_load_miss 3500
Core_0_STLB_load_MPKI 0.07
Core_0_STLB_load_miss_rate 0.00151761
Core_0_STLB_rfo_access 0
Core_0_STLB_rfo_hit 0
Core_0_STLB_rfo_miss 0
Core_0_STLB_rfo_MPKI 0
Core_0_STLB_rfo_miss_rate 0
Core_0_STLB_prefetch_access 0
Core_0_STLB_prefetch_hit 0
Core_0_STLB_prefetch_miss 0
Core_0_STLB_prefetch_MPKI 0
Core_0_STLB_prefetch_miss_rate 0
Core_0_STLB_writeback_access 0
Core_0_STLB_writeback_hit 0
Core_0_STLB_writeback_miss 0
Core_0_STLB_writeback_MPKI 0
Core_0_STLB_writeback_miss_rate 0
Core_0_STLB_prefetch_requested 0
Core_0_STLB_prefetch_issued 0
Core_0_STLB_prefetch_useful 0
Core_0_STLB_prefetch_useless 0
Core_0_STLB_prefetch_late 0
Core_0_STLB_prefetch_accuracy 0
Core_0_STLB_prefetch_coverage 0

Core_0_L1I_total_access 541604
Core_0_L1I_total_hit 541604
Core_0_L1I_total_miss 0
Core_0_L1I_total_MPKI 0
Core_0_L1I_total_miss_rate 0
Core_0_L1I_demand_access 541604
Core_0_L1I_demand_hit 541604
Core_0_L1I_demand_miss 0
Core_0_L1I_demand_MPKI 0
Core_0_L1I_demand_miss_rate 0
Core_0_L1I_load_access 541604
Core_0_L1I_load_hit 541604
Core_0_L1I_load_miss 0
Core_0_L1I_load_MPKI 0
Core_0_L1I_load_miss_rate 0
Core_0_L1I_rfo_access 0
Core_0_L1I_rfo_hit 0
Core_0_L1I_rfo_miss 0
Core_0_L1I_rfo_MPKI 0
Core_0_L1I_rfo_miss_rate 0
Core_0_L1I_prefetch_access 0
Core_0_L1I_prefetch_hit 0
Core_0_L1I_prefetch_miss 0
Core_0_L1I_prefetch_MPKI 0
Core_0_L1I_prefetch_miss_rate 0
Core_0_L1I_writeback_access 0
Core_0_L1I_writeback_hit 0
Core_0_L1I_writeback_miss 0
Core_0_L1I_writeback_MPKI 0
Core_0_L1I_writeback_miss_rate 0
Core_0_L1I_prefetch_requested 0
Core_0_L1I_prefetch_issued 0
Core_0_L1I_prefetch_useful 0
Core_0_L1I_prefetch_useless 0
Core_0_L1I_prefetch_late 0
Core_0_L1I_prefetch_accuracy 0
Core_0_L1I_prefetch_coverage 0

Core_0_L1D_total_access 13109202
Core_0_L1D_total_hit 8555235
Core_0_L1D_total_miss 4553967
Core_0_L1D_total_MPKI 91.0793
Core_0_L1D_total_miss_rate 0.347387
Core_0_L1D_demand_access 12924411
Core_0_L1D_demand_hit 8370444
Core_0_L1D_demand_miss 4553967
Core_0_L1D_demand_MPKI 91.0793
Core_0_L1D_demand_miss_rate 0.352354
Core_0_L1D_load_access 12924411
Core_0_L1D_load_hit 8370444
Core_0_L1D_load_miss 4553967
Core_0_L1D_load_MPKI 91.0793
Core_0_L1D_load_miss_rate 0.352354
Core_0_L1D_rfo_access 0
Core_0_L1D_rfo_hit 0
Core_0_L1D_rfo_miss 0
Core_0_L1D_rfo_MPKI 0
Core_0_L1D_rfo_miss_rate 0
Core_0_L1D_prefetch_access 0
Core_0_L1D_prefetch_hit 0
Core_0_L1D_prefetch_miss 0
Core_0_L1D_prefetch_MPKI 0
Core_0_L1D_prefetch_miss_rate 0
Core_0_L1D_writeback_access 184791
Core_0_L1D_writeback_hit 184791
Core_0_L1D_writeback_miss 0
Core_0_L1D_writeback_MPKI 0
Core_0_L1D_writeback_miss_rate 0
Core_0_L1D_prefetch_requested 0
Core_0_L1D_prefetch_issued 0
Core_0_L1D_prefetch_useful 0
Core_0_L1D_prefetch_useless 0
Core_0_L1D_prefetch_late 0
Core_0_L1D_prefetch_accuracy 0
Core_0_L1D_prefetch_coverage 0

Core_0_L2C_total_access 3745444
Core_0_L2C_total_hit 1246084
Core_0_L2C_total_miss 2499360
Core_0_L2C_total_MPKI 49.9872
Core_0_L2C_total_miss_rate 0.667307
Core_0_L2C_demand_access 3589714
Core_0_L2C_demand_hit 1090393
Core_0_L2C_demand_miss 2499321
Core_0_L2C_demand_MPKI 49.9864
Core_0_L2C_demand_miss_rate 0.696245
Core_0_L2C_load_access 3589714
Core_0_L2C_load_hit 1090393
Core_0_L2C_load_miss 2499321
Core_0_L2C_load_MPKI 49.9864
Core_0_L2C_load_miss_rate 0.696245
Core_0_L2C_rfo_access 0
Core_0_L2C_rfo_hit 0
Core_0_L2C_rfo_miss 0
Core_0_L2C_rfo_MPKI 0
Core_0_L2C_rfo_miss_rate 0
Core_0_L2C_prefetch_access 0
Core_0_L2C_prefetch_hit 0
Core_0_L2C_prefetch_miss 0
Core_0_L2C_prefetch_MPKI 0
Core_0_L2C_prefetch_miss_rate 0
Core_0_L2C_writeback_access 155730
Core_0_L2C_writeback_hit 155691
Core_0_L2C_writeback_miss 39
Core_0_L2C_writeback_MPKI 0.00078
Core_0_L2C_writeback_miss_rate 0.000250433
Core_0_L2C_prefetch_requested 0
Core_0_L2C_prefetch_issued 0
Core_0_L2C_prefetch_useful 0
Core_0_L2C_prefetch_useless 0
Core_0_L2C_prefetch_late 0
Core_0_L2C_prefetch_accuracy 0
Core_0_L2C_prefetch_coverage 0

Core_0_LLC_total_access 2654596
Core_0_LLC_total_hit 1734086
Core_0_LLC_total_miss 920510
Core_0_LLC_total_MPKI 18.4102
Core_0_LLC_total_miss_rate 0.346761
Core_0_LLC_demand_access 2499321
Core_0_LLC_demand_hit 1634474
Core_0_LLC_demand_miss 864847
Core_0_LLC_demand_MPKI 17.2969
Core_0_LLC_demand_miss_rate 0.346033
Core_0_LLC_load_access 2499321
Core_0_LLC_load_hit 1634474
Core_0_LLC_load_miss 864847
Core_0_LLC_load_MPKI 17.2969
Core_0_LLC_load_miss_rate 0.346033
Core_0_LLC_rfo_access 0
Core_0_LLC_rfo_hit 0
Core_0_LLC_rfo_miss 0
Core_0_LLC_rfo_MPKI 0
Core_0_LLC_rfo_miss_rate 0
Core_0_LLC_prefetch_access 0
Core_0_LLC_prefetch_hit 0
Core_0_LLC_prefetch_miss 0
Core_0_LLC_prefetch_MPKI 0
Core_0_LLC_prefetch_miss_rate 0
Core_0_LLC_writeback_access 155275
Core_0_LLC_writeback_hit 99612
Core_0_LLC_writeback_miss 55663
Core_0_LLC_writeback_MPKI 1.11326
Core_0_LLC_writeback_miss_rate 0.35848
Core_0_LLC_prefetch_requested 0
Core_0_LLC_prefetch_issued 0
Core_0_LLC_prefetch_useful 0
Core_0_LLC_prefetch_useless 0
Core_0_LLC_prefetch_late 0
Core_0_LLC_prefetch_accuracy 0
Core_0_LLC_prefetch_coverage 0

[DRAM Statistics]
Channel_0_RQ_row_buffer_hit 3295
Channel_0_RQ_row_buffer_miss 862034
Channel_0_WQ_row_buffer_hit 32334
Channel_0_WQ_row_buffer_miss 70439
Channel_0_WQ_full 0
Channel_0_dbus_congested 2361557
DRAM_total_RQ_row_buffer_hit 3295
DRAM_total_RQ_row_buffer_miss 862034
DRAM_total_WQ_row_buffer_hit 32334
DRAM_total_WQ_row_buffer_miss 70439
DRAM_total_WQ_full 0
DRAM_total_dbus_congested 2361557
DRAM_avg_congested_cycle 20.4049

====== DRAM_RQ_TRAFFIC ========
DRAM_RQ_READ_TRAFFIC_BREAKDOWN:
data_demand_read.count = 864847
data_demand_read.share = 99.94%

inst_demand_read.count = 0
inst_demand_read.share = 0.00%

cache_inst_prefetch.count = 0
cache_inst_prefetch.share = 0.00%

cache_data_prefetch.count = 0
cache_data_prefetch.share = 0.00%

stlb_data_demand.count = 525
stlb_data_demand.share = 0.06%

stlb_inst_demand.count = 0
stlb_inst_demand.share = 0.00%

stlb_l1i_pref.count = 0
stlb_l1i_pref.share = 0.00%

stlb_l1d_pref.count = 0
stlb_l1d_pref.share = 0.00%

DRAM_RQ_READ_TRAFFIC_SUMMARY:
cache_demand.count = 864847
cache_demand.share = 99.94%

cache_prefetch.count = 0
cache_prefetch.share = 0.00%

stlb_demand.count = 525
stlb_demand.share = 0.06%

stlb_prefetch.count = 0
stlb_prefetch.share = 0.00%

DRAM_RQ_READ_TRAFFIC_DEBUG:
total_classified_read.count = 865372
unclassified_read.count = 0
total_read_with_other.count = 865372

classified_plus_unclassified_check.count = 865372
dram_rq_read_total_observed.count = 865372
dram_rq_read_total_observed.per_1K_instructions = 17.3074

STLB_MISS_PTW_DRAM_TOUCH_BREAKDOWN:
stlb_miss_total.count = 3500

stlb_miss_touch_dram.count = 517
stlb_miss_touch_dram.share = 14.77%

stlb_miss_no_dram_touch.count = 2983
stlb_miss_no_dram_touch.share = 85.23%

STLB_MISS_PTW_DRAM_TOUCH_DEBUG:
stlb_miss_touch_plus_no_touch.count = 3500
stlb_miss_total_check.count = 3500

======STLB miss causes ========
Core_0_STLB_miss_cause_breakdown
Core_0_STLB_cause_Demand_Data_miss 3500
Core_0_STLB_cause_Demand_Data_miss_rate 0.00151761
Core_0_STLB_cause_Demand_Instruction_miss 0
Core_0_STLB_cause_Demand_Instruction_miss_rate 0
Core_0_STLB_cause_L1D_Prefetch_miss 0
Core_0_STLB_cause_L1D_Prefetch_miss_rate 0
Core_0_STLB_cause_L1I_Prefetch_miss 0
Core_0_STLB_cause_L1I_Prefetch_miss_rate 0
Core_0_STLB_cause_Other_miss 0
Core_0_STLB_cause_Other_miss_rate 0
Core_0_STLB_Demand_miss 3500
Core_0_STLB_Demand_miss_rate 0.00151761
Core_0_STLB_L1D_Prefetch_miss 0
Core_0_STLB_L1D_Prefetch_miss_rate 0
Core_0_STLB_Other_miss 0
Core_0_STLB_Other_miss_rate 0
