[VMEM] WARNING: physical memory size is smaller than virtual memory size.

*** ChampSim Multicore Out-of-Order Simulator ***
Warmup Instructions: 20000000
Simulation Instructions: 50000000
Number of CPUs: 1
Page size: 4096
Core 0: /data0/tzh/champsim_traces/QMM/compute_int_16_new.xz
Off-chip DRAM Size: 16 GiB Channels: 1 Width: 64-bit Data Rate: 3205 MT/s
Warmup halting CPU 0 at instruction 20000005 cycle 4164186 for remainder of phase
Warmup finished CPU 0 instructions: 20000005 cycles: 4164186 cumulative IPC: 4.803 (Simulation time: 00 hr 00 min 42 sec)
Warmup complete CPU 0 instructions: 20000005 cycles: 4164186 cumulative IPC: 4.803 (Simulation time: 00 hr 00 min 42 sec)
*** Reached end of trace: (0, "/data0/tzh/champsim_traces/QMM/compute_int_16_new.xz")
*** Reached end of trace: (0, "/data0/tzh/champsim_traces/QMM/compute_int_16_new.xz")
Simulation finished CPU 0 instructions: 50000001 cycles: 49213644 cumulative IPC: 1.016 (Simulation time: 00 hr 06 min 27 sec)
Simulation complete CPU 0 instructions: 50000001 cycles: 49213644 cumulative IPC: 1.016 (Simulation time: 00 hr 06 min 27 sec)

ChampSim completed all CPUs

=== Simulation ===
CPU 0 runs /data0/tzh/champsim_traces/QMM/compute_int_16_new.xz

Region of Interest Statistics

CPU 0 cumulative IPC: 1.016 instructions: 50000001 cycles: 49213644
CPU 0 Branch Prediction Accuracy: 98.13% MPKI: 2.451 Average ROB Occupancy at Mispredict: 83.46
Branch type MPKI
BRANCH_DIRECT_JUMP: 0.00046
BRANCH_INDIRECT: 0.00012
BRANCH_CONDITIONAL: 2.45
BRANCH_DIRECT_CALL: 0.0001
BRANCH_INDIRECT_CALL: 2e-05
BRANCH_RETURN: 8e-05

cpu0->cpu0_STLB TOTAL        ACCESS:     318313 HIT:     318235 MISS:         78 MSHR_MERGE:          0
cpu0->cpu0_STLB LOAD         ACCESS:     318313 HIT:     318235 MISS:         78 MSHR_MERGE:          0
cpu0->cpu0_STLB RFO          ACCESS:          0 HIT:          0 MISS:          0 MSHR_MERGE:          0
cpu0->cpu0_STLB PREFETCH     ACCESS:          0 HIT:          0 MISS:          0 MSHR_MERGE:          0
cpu0->cpu0_STLB WRITE        ACCESS:          0 HIT:          0 MISS:          0 MSHR_MERGE:          0
cpu0->cpu0_STLB TRANSLATION  ACCESS:          0 HIT:          0 MISS:          0 MSHR_MERGE:          0
cpu0->cpu0_STLB PREFETCH REQUESTED:          0 ISSUED:          0 USEFUL:          0 USELESS:          0 LATE:          0
cpu0->cpu0_STLB AVERAGE MISS LATENCY: 262.8 cycles
cpu0->cpu0_L2C TOTAL        ACCESS:     798848 HIT:     449115 MISS:     349733 MSHR_MERGE:          0
cpu0->cpu0_L2C LOAD         ACCESS:     623446 HIT:     304180 MISS:     319266 MSHR_MERGE:          0
cpu0->cpu0_L2C RFO          ACCESS:      44330 HIT:      13910 MISS:      30420 MSHR_MERGE:          0
cpu0->cpu0_L2C PREFETCH     ACCESS:          0 HIT:          0 MISS:          0 MSHR_MERGE:          0
cpu0->cpu0_L2C WRITE        ACCESS:     131008 HIT:     130975 MISS:         33 MSHR_MERGE:          0
cpu0->cpu0_L2C TRANSLATION  ACCESS:         64 HIT:         50 MISS:         14 MSHR_MERGE:          0
cpu0->cpu0_L2C PREFETCH REQUESTED:          0 ISSUED:          0 USEFUL:          0 USELESS:          0 LATE:          0
cpu0->cpu0_L2C AVERAGE MISS LATENCY: 76.56 cycles
cpu0->cpu0_L1I TOTAL        ACCESS:    7254608 HIT:    7253780 MISS:        828 MSHR_MERGE:        295
cpu0->cpu0_L1I LOAD         ACCESS:    7254608 HIT:    7253780 MISS:        828 MSHR_MERGE:        295
cpu0->cpu0_L1I RFO          ACCESS:          0 HIT:          0 MISS:          0 MSHR_MERGE:          0
cpu0->cpu0_L1I PREFETCH     ACCESS:          0 HIT:          0 MISS:          0 MSHR_MERGE:          0
cpu0->cpu0_L1I WRITE        ACCESS:          0 HIT:          0 MISS:          0 MSHR_MERGE:          0
cpu0->cpu0_L1I TRANSLATION  ACCESS:          0 HIT:          0 MISS:          0 MSHR_MERGE:          0
cpu0->cpu0_L1I PREFETCH REQUESTED:          0 ISSUED:          0 USEFUL:          0 USELESS:          0 LATE:          0
cpu0->cpu0_L1I AVERAGE MISS LATENCY: 230.8 cycles
cpu0->cpu0_L1D TOTAL        ACCESS:   12419927 HIT:   11282491 MISS:    1137436 MSHR_MERGE:     470129
cpu0->cpu0_L1D LOAD         ACCESS:    7200956 HIT:    6304139 MISS:     896817 MSHR_MERGE:     273904
cpu0->cpu0_L1D RFO          ACCESS:          0 HIT:          0 MISS:          0 MSHR_MERGE:          0
cpu0->cpu0_L1D PREFETCH     ACCESS:          0 HIT:          0 MISS:          0 MSHR_MERGE:          0
cpu0->cpu0_L1D WRITE        ACCESS:    5218815 HIT:    4978260 MISS:     240555 MSHR_MERGE:     196225
cpu0->cpu0_L1D TRANSLATION  ACCESS:        156 HIT:         92 MISS:         64 MSHR_MERGE:          0
cpu0->cpu0_L1D PREFETCH REQUESTED:          0 ISSUED:          0 USEFUL:          0 USELESS:          0 LATE:          0
cpu0->cpu0_L1D AVERAGE MISS LATENCY: 48.48 cycles
cpu0->cpu0_ITLB TOTAL        ACCESS:    6550526 HIT:    6550384 MISS:        142 MSHR_MERGE:         78
cpu0->cpu0_ITLB LOAD         ACCESS:    6550526 HIT:    6550384 MISS:        142 MSHR_MERGE:         78
cpu0->cpu0_ITLB RFO          ACCESS:          0 HIT:          0 MISS:          0 MSHR_MERGE:          0
cpu0->cpu0_ITLB PREFETCH     ACCESS:          0 HIT:          0 MISS:          0 MSHR_MERGE:          0
cpu0->cpu0_ITLB WRITE        ACCESS:          0 HIT:          0 MISS:          0 MSHR_MERGE:          0
cpu0->cpu0_ITLB TRANSLATION  ACCESS:          0 HIT:          0 MISS:          0 MSHR_MERGE:          0
cpu0->cpu0_ITLB PREFETCH REQUESTED:          0 ISSUED:          0 USEFUL:          0 USELESS:          0 LATE:          0
cpu0->cpu0_ITLB AVERAGE MISS LATENCY: 11.08 cycles
cpu0->cpu0_DTLB TOTAL        ACCESS:   12051821 HIT:   11727791 MISS:     324030 MSHR_MERGE:       5782
cpu0->cpu0_DTLB LOAD         ACCESS:   12051821 HIT:   11727791 MISS:     324030 MSHR_MERGE:       5782
cpu0->cpu0_DTLB RFO          ACCESS:          0 HIT:          0 MISS:          0 MSHR_MERGE:          0
cpu0->cpu0_DTLB PREFETCH     ACCESS:          0 HIT:          0 MISS:          0 MSHR_MERGE:          0
cpu0->cpu0_DTLB WRITE        ACCESS:          0 HIT:          0 MISS:          0 MSHR_MERGE:          0
cpu0->cpu0_DTLB TRANSLATION  ACCESS:          0 HIT:          0 MISS:          0 MSHR_MERGE:          0
cpu0->cpu0_DTLB PREFETCH REQUESTED:          0 ISSUED:          0 USEFUL:          0 USELESS:          0 LATE:          0
cpu0->cpu0_DTLB AVERAGE MISS LATENCY: 5.064 cycles
cpu0->LLC TOTAL        ACCESS:     453459 HIT:     331958 MISS:     121501 MSHR_MERGE:          0
cpu0->LLC LOAD         ACCESS:     319266 HIT:     227182 MISS:      92084 MSHR_MERGE:          0
cpu0->LLC RFO          ACCESS:      30420 HIT:       8589 MISS:      21831 MSHR_MERGE:          0
cpu0->LLC PREFETCH     ACCESS:          0 HIT:          0 MISS:          0 MSHR_MERGE:          0
cpu0->LLC WRITE        ACCESS:     103759 HIT:      96187 MISS:       7572 MSHR_MERGE:          0
cpu0->LLC TRANSLATION  ACCESS:         14 HIT:          0 MISS:         14 MSHR_MERGE:          0
cpu0->LLC PREFETCH REQUESTED:          0 ISSUED:          0 USEFUL:          0 USELESS:          0 LATE:          0
cpu0->LLC AVERAGE MISS LATENCY: 176.8 cycles

DRAM Statistics

Channel 0 RQ ROW_BUFFER_HIT:       5576
  ROW_BUFFER_MISS:     108332
  AVG DBUS CONGESTED CYCLE: 16.07
Channel 0 WQ ROW_BUFFER_HIT:      14613
  ROW_BUFFER_MISS:      54481
  FULL:          0
Channel 0 REFRESHES ISSUED:       4101

[ROI Statistics]
[System Configuration]
num_cpus 1
cpu_freq 4000
fetch_width 6
decode_width 6
dispatch_width 6
execute_width 6
lq_width 2
sq_width 2
retire_width 6
scheduler_size 128
branch_mispredict_penalty 15
rob_size 352
lq_size 128
sq_size 72
ifetch_buffer_size 64
decode_buffer_size 32
dispatch_buffer_size 32
register_file_size 288
decode_latency 1
dispatch_latency 1
schedule_latency 1
execute_latency 1
page_size 4096
block_size 64
core_0_itlb_set 16
core_0_itlb_way 4
core_0_itlb_rq_size 16
core_0_itlb_wq_size 16
core_0_itlb_pq_size 0
core_0_itlb_mshr_size 8
core_0_itlb_hit_latency 1
core_0_itlb_fill_latency 1
core_0_itlb_max_tag_check 2
core_0_itlb_max_fill 2
core_0_dtlb_set 16
core_0_dtlb_way 4
core_0_dtlb_rq_size 16
core_0_dtlb_wq_size 16
core_0_dtlb_pq_size 0
core_0_dtlb_mshr_size 8
core_0_dtlb_hit_latency 1
core_0_dtlb_fill_latency 1
core_0_dtlb_max_tag_check 2
core_0_dtlb_max_fill 2
core_0_stlb_set 128
core_0_stlb_way 12
core_0_stlb_rq_size 32
core_0_stlb_wq_size 32
core_0_stlb_pq_size 0
core_0_stlb_mshr_size 16
core_0_stlb_hit_latency 4
core_0_stlb_fill_latency 4
core_0_stlb_max_tag_check 1
core_0_stlb_max_fill 1
core_0_l1i_set 64
core_0_l1i_way 8
core_0_l1i_rq_size 64
core_0_l1i_wq_size 64
core_0_l1i_pq_size 32
core_0_l1i_mshr_size 8
core_0_l1i_hit_latency 2
core_0_l1i_fill_latency 2
core_0_l1i_max_tag_check 2
core_0_l1i_max_fill 2
core_0_l1d_set 64
core_0_l1d_way 12
core_0_l1d_rq_size 64
core_0_l1d_wq_size 64
core_0_l1d_pq_size 8
core_0_l1d_mshr_size 16
core_0_l1d_hit_latency 2
core_0_l1d_fill_latency 3
core_0_l1d_max_tag_check 2
core_0_l1d_max_fill 2
core_0_l2c_set 1024
core_0_l2c_way 8
core_0_l2c_rq_size 32
core_0_l2c_wq_size 32
core_0_l2c_pq_size 16
core_0_l2c_mshr_size 32
core_0_l2c_hit_latency 5
core_0_l2c_fill_latency 5
core_0_l2c_max_tag_check 1
core_0_l2c_max_fill 1
llc_set 2048
llc_way 16
llc_rq_size 32
llc_wq_size 32
llc_pq_size 32
llc_mshr_size 64
llc_hit_latency 10
llc_fill_latency 10
llc_max_tag_check 1
llc_max_fill 1
dram_channels 1
dram_ranks 1
dram_bankgroups 8
dram_banks 4
dram_rows 65536
dram_columns 1024
dram_channel_width 8
dram_rq_size 64
dram_wq_size 64
dram_size 17179869184
core_0_itlb_prefetcher no
core_0_dtlb_prefetcher no
core_0_stlb_prefetcher no
core_0_l1i_prefetcher no
core_0_l1d_prefetcher no
core_0_l2c_prefetcher no
llc_prefetcher no
llc_replacement drrip

Core_0_instructions 50000001
Core_0_cycles 49213644
Core_0_IPC 1.01598
Core_0_branch_prediction_accuracy 98.134
Core_0_branch_MPKI 2.45108
Core_0_average_ROB_occupancy_at_mispredict 83.4639

Core_0_ITLB_total_access 6550526
Core_0_ITLB_total_hit 6550384
Core_0_ITLB_total_miss 142
Core_0_ITLB_total_MPKI 0.00284
Core_0_ITLB_total_miss_rate 2.16776e-05
Core_0_ITLB_demand_access 6550526
Core_0_ITLB_demand_hit 6550384
Core_0_ITLB_demand_miss 142
Core_0_ITLB_demand_MPKI 0.00284
Core_0_ITLB_demand_miss_rate 2.16776e-05
Core_0_ITLB_load_access 6550526
Core_0_ITLB_load_hit 6550384
Core_0_ITLB_load_miss 142
Core_0_ITLB_load_MPKI 0.00284
Core_0_ITLB_load_miss_rate 2.16776e-05
Core_0_ITLB_rfo_access 0
Core_0_ITLB_rfo_hit 0
Core_0_ITLB_rfo_miss 0
Core_0_ITLB_rfo_MPKI 0
Core_0_ITLB_rfo_miss_rate 0
Core_0_ITLB_prefetch_access 0
Core_0_ITLB_prefetch_hit 0
Core_0_ITLB_prefetch_miss 0
Core_0_ITLB_prefetch_MPKI 0
Core_0_ITLB_prefetch_miss_rate 0
Core_0_ITLB_writeback_access 0
Core_0_ITLB_writeback_hit 0
Core_0_ITLB_writeback_miss 0
Core_0_ITLB_writeback_MPKI 0
Core_0_ITLB_writeback_miss_rate 0
Core_0_ITLB_prefetch_requested 0
Core_0_ITLB_prefetch_issued 0
Core_0_ITLB_prefetch_useful 0
Core_0_ITLB_prefetch_useless 0
Core_0_ITLB_prefetch_late 0
Core_0_ITLB_prefetch_accuracy 0
Core_0_ITLB_prefetch_coverage 0

Core_0_DTLB_total_access 12051821
Core_0_DTLB_total_hit 11727791
Core_0_DTLB_total_miss 324030
Core_0_DTLB_total_MPKI 6.4806
Core_0_DTLB_total_miss_rate 0.0268864
Core_0_DTLB_demand_access 12051821
Core_0_DTLB_demand_hit 11727791
Core_0_DTLB_demand_miss 324030
Core_0_DTLB_demand_MPKI 6.4806
Core_0_DTLB_demand_miss_rate 0.0268864
Core_0_DTLB_load_access 12051821
Core_0_DTLB_load_hit 11727791
Core_0_DTLB_load_miss 324030
Core_0_DTLB_load_MPKI 6.4806
Core_0_DTLB_load_miss_rate 0.0268864
Core_0_DTLB_rfo_access 0
Core_0_DTLB_rfo_hit 0
Core_0_DTLB_rfo_miss 0
Core_0_DTLB_rfo_MPKI 0
Core_0_DTLB_rfo_miss_rate 0
Core_0_DTLB_prefetch_access 0
Core_0_DTLB_prefetch_hit 0
Core_0_DTLB_prefetch_miss 0
Core_0_DTLB_prefetch_MPKI 0
Core_0_DTLB_prefetch_miss_rate 0
Core_0_DTLB_writeback_access 0
Core_0_DTLB_writeback_hit 0
Core_0_DTLB_writeback_miss 0
Core_0_DTLB_writeback_MPKI 0
Core_0_DTLB_writeback_miss_rate 0
Core_0_DTLB_prefetch_requested 0
Core_0_DTLB_prefetch_issued 0
Core_0_DTLB_prefetch_useful 0
Core_0_DTLB_prefetch_useless 0
Core_0_DTLB_prefetch_late 0
Core_0_DTLB_prefetch_accuracy 0
Core_0_DTLB_prefetch_coverage 0

Core_0_STLB_total_access 318313
Core_0_STLB_total_hit 318235
Core_0_STLB_total_miss 78
Core_0_STLB_total_MPKI 0.00156
Core_0_STLB_total_miss_rate 0.000245042
Core_0_STLB_demand_access 318313
Core_0_STLB_demand_hit 318235
Core_0_STLB_demand_miss 78
Core_0_STLB_demand_MPKI 0.00156
Core_0_STLB_demand_miss_rate 0.000245042
Core_0_STLB_load_access 318313
Core_0_STLB_load_hit 318235
Core_0_STLB_load_miss 78
Core_0_STLB_load_MPKI 0.00156
Core_0_STLB_load_miss_rate 0.000245042
Core_0_STLB_rfo_access 0
Core_0_STLB_rfo_hit 0
Core_0_STLB_rfo_miss 0
Core_0_STLB_rfo_MPKI 0
Core_0_STLB_rfo_miss_rate 0
Core_0_STLB_prefetch_access 0
Core_0_STLB_prefetch_hit 0
Core_0_STLB_prefetch_miss 0
Core_0_STLB_prefetch_MPKI 0
Core_0_STLB_prefetch_miss_rate 0
Core_0_STLB_writeback_access 0
Core_0_STLB_writeback_hit 0
Core_0_STLB_writeback_miss 0
Core_0_STLB_writeback_MPKI 0
Core_0_STLB_writeback_miss_rate 0
Core_0_STLB_prefetch_requested 0
Core_0_STLB_prefetch_issued 0
Core_0_STLB_prefetch_useful 0
Core_0_STLB_prefetch_useless 0
Core_0_STLB_prefetch_late 0
Core_0_STLB_prefetch_accuracy 0
Core_0_STLB_prefetch_coverage 0

Core_0_L1I_total_access 7254608
Core_0_L1I_total_hit 7253780
Core_0_L1I_total_miss 828
Core_0_L1I_total_MPKI 0.01656
Core_0_L1I_total_miss_rate 0.000114134
Core_0_L1I_demand_access 7254608
Core_0_L1I_demand_hit 7253780
Core_0_L1I_demand_miss 828
Core_0_L1I_demand_MPKI 0.01656
Core_0_L1I_demand_miss_rate 0.000114134
Core_0_L1I_load_access 7254608
Core_0_L1I_load_hit 7253780
Core_0_L1I_load_miss 828
Core_0_L1I_load_MPKI 0.01656
Core_0_L1I_load_miss_rate 0.000114134
Core_0_L1I_rfo_access 0
Core_0_L1I_rfo_hit 0
Core_0_L1I_rfo_miss 0
Core_0_L1I_rfo_MPKI 0
Core_0_L1I_rfo_miss_rate 0
Core_0_L1I_prefetch_access 0
Core_0_L1I_prefetch_hit 0
Core_0_L1I_prefetch_miss 0
Core_0_L1I_prefetch_MPKI 0
Core_0_L1I_prefetch_miss_rate 0
Core_0_L1I_writeback_access 0
Core_0_L1I_writeback_hit 0
Core_0_L1I_writeback_miss 0
Core_0_L1I_writeback_MPKI 0
Core_0_L1I_writeback_miss_rate 0
Core_0_L1I_prefetch_requested 0
Core_0_L1I_prefetch_issued 0
Core_0_L1I_prefetch_useful 0
Core_0_L1I_prefetch_useless 0
Core_0_L1I_prefetch_late 0
Core_0_L1I_prefetch_accuracy 0
Core_0_L1I_prefetch_coverage 0

Core_0_L1D_total_access 12419771
Core_0_L1D_total_hit 11282399
Core_0_L1D_total_miss 1137372
Core_0_L1D_total_MPKI 22.7474
Core_0_L1D_total_miss_rate 0.0915775
Core_0_L1D_demand_access 7200956
Core_0_L1D_demand_hit 6304139
Core_0_L1D_demand_miss 896817
Core_0_L1D_demand_MPKI 17.9363
Core_0_L1D_demand_miss_rate 0.124541
Core_0_L1D_load_access 7200956
Core_0_L1D_load_hit 6304139
Core_0_L1D_load_miss 896817
Core_0_L1D_load_MPKI 17.9363
Core_0_L1D_load_miss_rate 0.124541
Core_0_L1D_rfo_access 0
Core_0_L1D_rfo_hit 0
Core_0_L1D_rfo_miss 0
Core_0_L1D_rfo_MPKI 0
Core_0_L1D_rfo_miss_rate 0
Core_0_L1D_prefetch_access 0
Core_0_L1D_prefetch_hit 0
Core_0_L1D_prefetch_miss 0
Core_0_L1D_prefetch_MPKI 0
Core_0_L1D_prefetch_miss_rate 0
Core_0_L1D_writeback_access 5218815
Core_0_L1D_writeback_hit 4978260
Core_0_L1D_writeback_miss 240555
Core_0_L1D_writeback_MPKI 4.8111
Core_0_L1D_writeback_miss_rate 0.0460938
Core_0_L1D_prefetch_requested 0
Core_0_L1D_prefetch_issued 0
Core_0_L1D_prefetch_useful 0
Core_0_L1D_prefetch_useless 0
Core_0_L1D_prefetch_late 0
Core_0_L1D_prefetch_accuracy 0
Core_0_L1D_prefetch_coverage 0

Core_0_L2C_total_access 798784
Core_0_L2C_total_hit 449065
Core_0_L2C_total_miss 349719
Core_0_L2C_total_MPKI 6.99438
Core_0_L2C_total_miss_rate 0.437814
Core_0_L2C_demand_access 667776
Core_0_L2C_demand_hit 318090
Core_0_L2C_demand_miss 349686
Core_0_L2C_demand_MPKI 6.99372
Core_0_L2C_demand_miss_rate 0.523658
Core_0_L2C_load_access 623446
Core_0_L2C_load_hit 304180
Core_0_L2C_load_miss 319266
Core_0_L2C_load_MPKI 6.38532
Core_0_L2C_load_miss_rate 0.512099
Core_0_L2C_rfo_access 44330
Core_0_L2C_rfo_hit 13910
Core_0_L2C_rfo_miss 30420
Core_0_L2C_rfo_MPKI 0.6084
Core_0_L2C_rfo_miss_rate 0.686217
Core_0_L2C_prefetch_access 0
Core_0_L2C_prefetch_hit 0
Core_0_L2C_prefetch_miss 0
Core_0_L2C_prefetch_MPKI 0
Core_0_L2C_prefetch_miss_rate 0
Core_0_L2C_writeback_access 131008
Core_0_L2C_writeback_hit 130975
Core_0_L2C_writeback_miss 33
Core_0_L2C_writeback_MPKI 0.00066
Core_0_L2C_writeback_miss_rate 0.000251893
Core_0_L2C_prefetch_requested 0
Core_0_L2C_prefetch_issued 0
Core_0_L2C_prefetch_useful 0
Core_0_L2C_prefetch_useless 0
Core_0_L2C_prefetch_late 0
Core_0_L2C_prefetch_accuracy 0
Core_0_L2C_prefetch_coverage 0

Core_0_LLC_total_access 453445
Core_0_LLC_total_hit 331958
Core_0_LLC_total_miss 121487
Core_0_LLC_total_MPKI 2.42974
Core_0_LLC_total_miss_rate 0.26792
Core_0_LLC_demand_access 349686
Core_0_LLC_demand_hit 235771
Core_0_LLC_demand_miss 113915
Core_0_LLC_demand_MPKI 2.2783
Core_0_LLC_demand_miss_rate 0.325764
Core_0_LLC_load_access 319266
Core_0_LLC_load_hit 227182
Core_0_LLC_load_miss 92084
Core_0_LLC_load_MPKI 1.84168
Core_0_LLC_load_miss_rate 0.288424
Core_0_LLC_rfo_access 30420
Core_0_LLC_rfo_hit 8589
Core_0_LLC_rfo_miss 21831
Core_0_LLC_rfo_MPKI 0.43662
Core_0_LLC_rfo_miss_rate 0.717653
Core_0_LLC_prefetch_access 0
Core_0_LLC_prefetch_hit 0
Core_0_LLC_prefetch_miss 0
Core_0_LLC_prefetch_MPKI 0
Core_0_LLC_prefetch_miss_rate 0
Core_0_LLC_writeback_access 103759
Core_0_LLC_writeback_hit 96187
Core_0_LLC_writeback_miss 7572
Core_0_LLC_writeback_MPKI 0.15144
Core_0_LLC_writeback_miss_rate 0.0729768
Core_0_LLC_prefetch_requested 0
Core_0_LLC_prefetch_issued 0
Core_0_LLC_prefetch_useful 0
Core_0_LLC_prefetch_useless 0
Core_0_LLC_prefetch_late 0
Core_0_LLC_prefetch_accuracy 0
Core_0_LLC_prefetch_coverage 0

[DRAM Statistics]
Channel_0_RQ_row_buffer_hit 5576
Channel_0_RQ_row_buffer_miss 108332
Channel_0_WQ_row_buffer_hit 14613
Channel_0_WQ_row_buffer_miss 54481
Channel_0_WQ_full 0
Channel_0_dbus_congested 585422
DRAM_total_RQ_row_buffer_hit 5576
DRAM_total_RQ_row_buffer_miss 108332
DRAM_total_WQ_row_buffer_hit 14613
DRAM_total_WQ_row_buffer_miss 54481
DRAM_total_WQ_full 0
DRAM_total_dbus_congested 585422
DRAM_avg_congested_cycle 16.0697

====== DRAM_RQ_TRAFFIC ========
DRAM_RQ_READ_TRAFFIC_BREAKDOWN:
data_demand_read.count = 113395
data_demand_read.share = 99.53%

inst_demand_read.count = 520
inst_demand_read.share = 0.46%

cache_inst_prefetch.count = 0
cache_inst_prefetch.share = 0.00%

cache_data_prefetch.count = 0
cache_data_prefetch.share = 0.00%

stlb_data_demand.count = 13
stlb_data_demand.share = 0.01%

stlb_inst_demand.count = 1
stlb_inst_demand.share = 0.00%

stlb_l1i_pref.count = 0
stlb_l1i_pref.share = 0.00%

stlb_l1d_pref.count = 0
stlb_l1d_pref.share = 0.00%

DRAM_RQ_READ_TRAFFIC_SUMMARY:
cache_demand.count = 113915
cache_demand.share = 99.99%

cache_prefetch.count = 0
cache_prefetch.share = 0.00%

stlb_demand.count = 14
stlb_demand.share = 0.01%

stlb_prefetch.count = 0
stlb_prefetch.share = 0.00%

DRAM_RQ_READ_TRAFFIC_DEBUG:
total_classified_read.count = 113929
unclassified_read.count = 0
total_read_with_other.count = 113929

classified_plus_unclassified_check.count = 113929
dram_rq_read_total_observed.count = 113929
dram_rq_read_total_observed.per_1K_instructions = 2.27858

STLB_MISS_PTW_DRAM_TOUCH_BREAKDOWN:
stlb_miss_total.count = 78

stlb_miss_touch_dram.count = 14
stlb_miss_touch_dram.share = 17.95%

stlb_miss_no_dram_touch.count = 64
stlb_miss_no_dram_touch.share = 82.05%

STLB_MISS_PTW_DRAM_TOUCH_DEBUG:
stlb_miss_touch_plus_no_touch.count = 78
stlb_miss_total_check.count = 78

======STLB miss causes ========
Core_0_STLB_miss_cause_breakdown
Core_0_STLB_cause_Demand_Data_miss 77
Core_0_STLB_cause_Demand_Data_miss_rate 0.0002419
Core_0_STLB_cause_Demand_Instruction_miss 1
Core_0_STLB_cause_Demand_Instruction_miss_rate 3.14156e-06
Core_0_STLB_cause_L1D_Prefetch_miss 0
Core_0_STLB_cause_L1D_Prefetch_miss_rate 0
Core_0_STLB_cause_L1I_Prefetch_miss 0
Core_0_STLB_cause_L1I_Prefetch_miss_rate 0
Core_0_STLB_cause_Other_miss 0
Core_0_STLB_cause_Other_miss_rate 0
Core_0_STLB_Demand_miss 78
Core_0_STLB_Demand_miss_rate 0.000245042
Core_0_STLB_L1D_Prefetch_miss 0
Core_0_STLB_L1D_Prefetch_miss_rate 0
Core_0_STLB_Other_miss 0
Core_0_STLB_Other_miss_rate 0
