[VMEM] WARNING: physical memory size is smaller than virtual memory size.

*** ChampSim Multicore Out-of-Order Simulator ***
Warmup Instructions: 20000000
Simulation Instructions: 50000000
Number of CPUs: 1
Page size: 4096
Core 0: /data0/tzh/champsim_traces/PARSEC/parsec_2.1.raytrace.simlarge.prebuilt.drop_36250M.length_250M.champsimtrace.xz
Off-chip DRAM Size: 16 GiB Channels: 1 Width: 64-bit Data Rate: 3205 MT/s
Warmup halting CPU 0 at instruction 20000003 cycle 4707375 for remainder of phase
Warmup finished CPU 0 instructions: 20000003 cycles: 4707375 cumulative IPC: 4.249 (Simulation time: 00 hr 00 min 55 sec)
Warmup complete CPU 0 instructions: 20000003 cycles: 4707375 cumulative IPC: 4.249 (Simulation time: 00 hr 00 min 55 sec)
Simulation finished CPU 0 instructions: 50000003 cycles: 16570410 cumulative IPC: 3.017 (Simulation time: 00 hr 03 min 42 sec)
Simulation complete CPU 0 instructions: 50000003 cycles: 16570410 cumulative IPC: 3.017 (Simulation time: 00 hr 03 min 42 sec)

ChampSim completed all CPUs

=== Simulation ===
CPU 0 runs /data0/tzh/champsim_traces/PARSEC/parsec_2.1.raytrace.simlarge.prebuilt.drop_36250M.length_250M.champsimtrace.xz

Region of Interest Statistics

CPU 0 cumulative IPC: 3.017 instructions: 50000003 cycles: 16570410
CPU 0 Branch Prediction Accuracy: 94.11% MPKI: 1.233 Average ROB Occupancy at Mispredict: 123.3
Branch type MPKI
BRANCH_DIRECT_JUMP: 0
BRANCH_INDIRECT: 0
BRANCH_CONDITIONAL: 1.233
BRANCH_DIRECT_CALL: 0
BRANCH_INDIRECT_CALL: 0
BRANCH_RETURN: 0

cpu0->cpu0_STLB TOTAL        ACCESS:       3754 HIT:       3442 MISS:        312 MSHR_MERGE:          0
cpu0->cpu0_STLB LOAD         ACCESS:       3754 HIT:       3442 MISS:        312 MSHR_MERGE:          0
cpu0->cpu0_STLB RFO          ACCESS:          0 HIT:          0 MISS:          0 MSHR_MERGE:          0
cpu0->cpu0_STLB PREFETCH     ACCESS:          0 HIT:          0 MISS:          0 MSHR_MERGE:          0
cpu0->cpu0_STLB WRITE        ACCESS:          0 HIT:          0 MISS:          0 MSHR_MERGE:          0
cpu0->cpu0_STLB TRANSLATION  ACCESS:          0 HIT:          0 MISS:          0 MSHR_MERGE:          0
cpu0->cpu0_STLB PREFETCH REQUESTED:          0 ISSUED:          0 USEFUL:          0 USELESS:          0 LATE:          0
cpu0->cpu0_STLB AVERAGE MISS LATENCY: 283.7 cycles
cpu0->cpu0_L2C TOTAL        ACCESS:      21979 HIT:      10698 MISS:      11281 MSHR_MERGE:          0
cpu0->cpu0_L2C LOAD         ACCESS:      15443 HIT:       6543 MISS:       8900 MSHR_MERGE:          0
cpu0->cpu0_L2C RFO          ACCESS:       2850 HIT:        658 MISS:       2192 MSHR_MERGE:          0
cpu0->cpu0_L2C PREFETCH     ACCESS:          0 HIT:          0 MISS:          0 MSHR_MERGE:          0
cpu0->cpu0_L2C WRITE        ACCESS:       3466 HIT:       3450 MISS:         16 MSHR_MERGE:          0
cpu0->cpu0_L2C TRANSLATION  ACCESS:        220 HIT:         47 MISS:        173 MSHR_MERGE:          0
cpu0->cpu0_L2C PREFETCH REQUESTED:          0 ISSUED:          0 USEFUL:          0 USELESS:          0 LATE:          0
cpu0->cpu0_L2C AVERAGE MISS LATENCY: 149.7 cycles
cpu0->cpu0_L1I TOTAL        ACCESS:    7953169 HIT:    7951564 MISS:       1605 MSHR_MERGE:        709
cpu0->cpu0_L1I LOAD         ACCESS:    7953169 HIT:    7951564 MISS:       1605 MSHR_MERGE:        709
cpu0->cpu0_L1I RFO          ACCESS:          0 HIT:          0 MISS:          0 MSHR_MERGE:          0
cpu0->cpu0_L1I PREFETCH     ACCESS:          0 HIT:          0 MISS:          0 MSHR_MERGE:          0
cpu0->cpu0_L1I WRITE        ACCESS:          0 HIT:          0 MISS:          0 MSHR_MERGE:          0
cpu0->cpu0_L1I TRANSLATION  ACCESS:          0 HIT:          0 MISS:          0 MSHR_MERGE:          0
cpu0->cpu0_L1I PREFETCH REQUESTED:          0 ISSUED:          0 USEFUL:          0 USELESS:          0 LATE:          0
cpu0->cpu0_L1I AVERAGE MISS LATENCY: 12.41 cycles
cpu0->cpu0_L1D TOTAL        ACCESS:   12995960 HIT:   12945270 MISS:      50690 MSHR_MERGE:      33073
cpu0->cpu0_L1D LOAD         ACCESS:    3993539 HIT:    3963125 MISS:      30414 MSHR_MERGE:      15867
cpu0->cpu0_L1D RFO          ACCESS:          0 HIT:          0 MISS:          0 MSHR_MERGE:          0
cpu0->cpu0_L1D PREFETCH     ACCESS:          0 HIT:          0 MISS:          0 MSHR_MERGE:          0
cpu0->cpu0_L1D WRITE        ACCESS:    9001796 HIT:    8981744 MISS:      20052 MSHR_MERGE:      17202
cpu0->cpu0_L1D TRANSLATION  ACCESS:        625 HIT:        401 MISS:        224 MSHR_MERGE:          4
cpu0->cpu0_L1D PREFETCH REQUESTED:          0 ISSUED:          0 USEFUL:          0 USELESS:          0 LATE:          0
cpu0->cpu0_L1D AVERAGE MISS LATENCY: 104.2 cycles
cpu0->cpu0_ITLB TOTAL        ACCESS:    5641640 HIT:    5641640 MISS:          0 MSHR_MERGE:          0
cpu0->cpu0_ITLB LOAD         ACCESS:    5641640 HIT:    5641640 MISS:          0 MSHR_MERGE:          0
cpu0->cpu0_ITLB RFO          ACCESS:          0 HIT:          0 MISS:          0 MSHR_MERGE:          0
cpu0->cpu0_ITLB PREFETCH     ACCESS:          0 HIT:          0 MISS:          0 MSHR_MERGE:          0
cpu0->cpu0_ITLB WRITE        ACCESS:          0 HIT:          0 MISS:          0 MSHR_MERGE:          0
cpu0->cpu0_ITLB TRANSLATION  ACCESS:          0 HIT:          0 MISS:          0 MSHR_MERGE:          0
cpu0->cpu0_ITLB PREFETCH REQUESTED:          0 ISSUED:          0 USEFUL:          0 USELESS:          0 LATE:          0
cpu0->cpu0_ITLB AVERAGE MISS LATENCY: - cycles
cpu0->cpu0_DTLB TOTAL        ACCESS:   11496483 HIT:   11488468 MISS:       8015 MSHR_MERGE:       4261
cpu0->cpu0_DTLB LOAD         ACCESS:   11496483 HIT:   11488468 MISS:       8015 MSHR_MERGE:       4261
cpu0->cpu0_DTLB RFO          ACCESS:          0 HIT:          0 MISS:          0 MSHR_MERGE:          0
cpu0->cpu0_DTLB PREFETCH     ACCESS:          0 HIT:          0 MISS:          0 MSHR_MERGE:          0
cpu0->cpu0_DTLB WRITE        ACCESS:          0 HIT:          0 MISS:          0 MSHR_MERGE:          0
cpu0->cpu0_DTLB TRANSLATION  ACCESS:          0 HIT:          0 MISS:          0 MSHR_MERGE:          0
cpu0->cpu0_DTLB PREFETCH REQUESTED:          0 ISSUED:          0 USEFUL:          0 USELESS:          0 LATE:          0
cpu0->cpu0_DTLB AVERAGE MISS LATENCY: 28.66 cycles
cpu0->LLC TOTAL        ACCESS:      12740 HIT:       3346 MISS:       9394 MSHR_MERGE:          0
cpu0->LLC LOAD         ACCESS:       8900 HIT:       1805 MISS:       7095 MSHR_MERGE:          0
cpu0->LLC RFO          ACCESS:       2192 HIT:          0 MISS:       2192 MSHR_MERGE:          0
cpu0->LLC PREFETCH     ACCESS:          0 HIT:          0 MISS:          0 MSHR_MERGE:          0
cpu0->LLC WRITE        ACCESS:       1475 HIT:       1475 MISS:          0 MSHR_MERGE:          0
cpu0->LLC TRANSLATION  ACCESS:        173 HIT:         66 MISS:        107 MSHR_MERGE:          0
cpu0->LLC PREFETCH REQUESTED:          0 ISSUED:          0 USEFUL:          0 USELESS:          0 LATE:          0
cpu0->LLC AVERAGE MISS LATENCY: 160.8 cycles

DRAM Statistics

Channel 0 RQ ROW_BUFFER_HIT:         22
  ROW_BUFFER_MISS:       9372
  AVG DBUS CONGESTED CYCLE: 2.708
Channel 0 WQ ROW_BUFFER_HIT:          0
  ROW_BUFFER_MISS:          0
  FULL:          0
Channel 0 REFRESHES ISSUED:       1381

[ROI Statistics]
[System Configuration]
num_cpus 1
cpu_freq 4000
fetch_width 6
decode_width 6
dispatch_width 6
execute_width 6
lq_width 2
sq_width 2
retire_width 6
scheduler_size 128
branch_mispredict_penalty 15
rob_size 352
lq_size 128
sq_size 72
ifetch_buffer_size 64
decode_buffer_size 32
dispatch_buffer_size 32
register_file_size 288
decode_latency 1
dispatch_latency 1
schedule_latency 1
execute_latency 1
page_size 4096
block_size 64
core_0_itlb_set 16
core_0_itlb_way 4
core_0_itlb_rq_size 16
core_0_itlb_wq_size 16
core_0_itlb_pq_size 0
core_0_itlb_mshr_size 8
core_0_itlb_hit_latency 1
core_0_itlb_fill_latency 1
core_0_itlb_max_tag_check 2
core_0_itlb_max_fill 2
core_0_dtlb_set 16
core_0_dtlb_way 4
core_0_dtlb_rq_size 16
core_0_dtlb_wq_size 16
core_0_dtlb_pq_size 0
core_0_dtlb_mshr_size 8
core_0_dtlb_hit_latency 1
core_0_dtlb_fill_latency 1
core_0_dtlb_max_tag_check 2
core_0_dtlb_max_fill 2
core_0_stlb_set 128
core_0_stlb_way 12
core_0_stlb_rq_size 32
core_0_stlb_wq_size 32
core_0_stlb_pq_size 0
core_0_stlb_mshr_size 16
core_0_stlb_hit_latency 4
core_0_stlb_fill_latency 4
core_0_stlb_max_tag_check 1
core_0_stlb_max_fill 1
core_0_l1i_set 64
core_0_l1i_way 8
core_0_l1i_rq_size 64
core_0_l1i_wq_size 64
core_0_l1i_pq_size 32
core_0_l1i_mshr_size 8
core_0_l1i_hit_latency 2
core_0_l1i_fill_latency 2
core_0_l1i_max_tag_check 2
core_0_l1i_max_fill 2
core_0_l1d_set 64
core_0_l1d_way 12
core_0_l1d_rq_size 64
core_0_l1d_wq_size 64
core_0_l1d_pq_size 8
core_0_l1d_mshr_size 16
core_0_l1d_hit_latency 2
core_0_l1d_fill_latency 3
core_0_l1d_max_tag_check 2
core_0_l1d_max_fill 2
core_0_l2c_set 1024
core_0_l2c_way 8
core_0_l2c_rq_size 32
core_0_l2c_wq_size 32
core_0_l2c_pq_size 16
core_0_l2c_mshr_size 32
core_0_l2c_hit_latency 5
core_0_l2c_fill_latency 5
core_0_l2c_max_tag_check 1
core_0_l2c_max_fill 1
llc_set 2048
llc_way 16
llc_rq_size 32
llc_wq_size 32
llc_pq_size 32
llc_mshr_size 64
llc_hit_latency 10
llc_fill_latency 10
llc_max_tag_check 1
llc_max_fill 1
dram_channels 1
dram_ranks 1
dram_bankgroups 8
dram_banks 4
dram_rows 65536
dram_columns 1024
dram_channel_width 8
dram_rq_size 64
dram_wq_size 64
dram_size 17179869184
core_0_itlb_prefetcher no
core_0_dtlb_prefetcher no
core_0_stlb_prefetcher no
core_0_l1i_prefetcher no
core_0_l1d_prefetcher no
core_0_l2c_prefetcher no
llc_prefetcher no
llc_replacement drrip

Core_0_instructions 50000003
Core_0_cycles 16570410
Core_0_IPC 3.01743
Core_0_branch_prediction_accuracy 94.1086
Core_0_branch_MPKI 1.23342
Core_0_average_ROB_occupancy_at_mispredict 123.344

Core_0_ITLB_total_access 5641640
Core_0_ITLB_total_hit 5641640
Core_0_ITLB_total_miss 0
Core_0_ITLB_total_MPKI 0
Core_0_ITLB_total_miss_rate 0
Core_0_ITLB_demand_access 5641640
Core_0_ITLB_demand_hit 5641640
Core_0_ITLB_demand_miss 0
Core_0_ITLB_demand_MPKI 0
Core_0_ITLB_demand_miss_rate 0
Core_0_ITLB_load_access 5641640
Core_0_ITLB_load_hit 5641640
Core_0_ITLB_load_miss 0
Core_0_ITLB_load_MPKI 0
Core_0_ITLB_load_miss_rate 0
Core_0_ITLB_rfo_access 0
Core_0_ITLB_rfo_hit 0
Core_0_ITLB_rfo_miss 0
Core_0_ITLB_rfo_MPKI 0
Core_0_ITLB_rfo_miss_rate 0
Core_0_ITLB_prefetch_access 0
Core_0_ITLB_prefetch_hit 0
Core_0_ITLB_prefetch_miss 0
Core_0_ITLB_prefetch_MPKI 0
Core_0_ITLB_prefetch_miss_rate 0
Core_0_ITLB_writeback_access 0
Core_0_ITLB_writeback_hit 0
Core_0_ITLB_writeback_miss 0
Core_0_ITLB_writeback_MPKI 0
Core_0_ITLB_writeback_miss_rate 0
Core_0_ITLB_prefetch_requested 0
Core_0_ITLB_prefetch_issued 0
Core_0_ITLB_prefetch_useful 0
Core_0_ITLB_prefetch_useless 0
Core_0_ITLB_prefetch_late 0
Core_0_ITLB_prefetch_accuracy 0
Core_0_ITLB_prefetch_coverage 0

Core_0_DTLB_total_access 11496483
Core_0_DTLB_total_hit 11488468
Core_0_DTLB_total_miss 8015
Core_0_DTLB_total_MPKI 0.1603
Core_0_DTLB_total_miss_rate 0.00069717
Core_0_DTLB_demand_access 11496483
Core_0_DTLB_demand_hit 11488468
Core_0_DTLB_demand_miss 8015
Core_0_DTLB_demand_MPKI 0.1603
Core_0_DTLB_demand_miss_rate 0.00069717
Core_0_DTLB_load_access 11496483
Core_0_DTLB_load_hit 11488468
Core_0_DTLB_load_miss 8015
Core_0_DTLB_load_MPKI 0.1603
Core_0_DTLB_load_miss_rate 0.00069717
Core_0_DTLB_rfo_access 0
Core_0_DTLB_rfo_hit 0
Core_0_DTLB_rfo_miss 0
Core_0_DTLB_rfo_MPKI 0
Core_0_DTLB_rfo_miss_rate 0
Core_0_DTLB_prefetch_access 0
Core_0_DTLB_prefetch_hit 0
Core_0_DTLB_prefetch_miss 0
Core_0_DTLB_prefetch_MPKI 0
Core_0_DTLB_prefetch_miss_rate 0
Core_0_DTLB_writeback_access 0
Core_0_DTLB_writeback_hit 0
Core_0_DTLB_writeback_miss 0
Core_0_DTLB_writeback_MPKI 0
Core_0_DTLB_writeback_miss_rate 0
Core_0_DTLB_prefetch_requested 0
Core_0_DTLB_prefetch_issued 0
Core_0_DTLB_prefetch_useful 0
Core_0_DTLB_prefetch_useless 0
Core_0_DTLB_prefetch_late 0
Core_0_DTLB_prefetch_accuracy 0
Core_0_DTLB_prefetch_coverage 0

Core_0_STLB_total_access 3754
Core_0_STLB_total_hit 3442
Core_0_STLB_total_miss 312
Core_0_STLB_total_MPKI 0.00624
Core_0_STLB_total_miss_rate 0.0831113
Core_0_STLB_demand_access 3754
Core_0_STLB_demand_hit 3442
Core_0_STLB_demand_miss 312
Core_0_STLB_demand_MPKI 0.00624
Core_0_STLB_demand_miss_rate 0.0831113
Core_0_STLB_load_access 3754
Core_0_STLB_load_hit 3442
Core_0_STLB_load_miss 312
Core_0_STLB_load_MPKI 0.00624
Core_0_STLB_load_miss_rate 0.0831113
Core_0_STLB_rfo_access 0
Core_0_STLB_rfo_hit 0
Core_0_STLB_rfo_miss 0
Core_0_STLB_rfo_MPKI 0
Core_0_STLB_rfo_miss_rate 0
Core_0_STLB_prefetch_access 0
Core_0_STLB_prefetch_hit 0
Core_0_STLB_prefetch_miss 0
Core_0_STLB_prefetch_MPKI 0
Core_0_STLB_prefetch_miss_rate 0
Core_0_STLB_writeback_access 0
Core_0_STLB_writeback_hit 0
Core_0_STLB_writeback_miss 0
Core_0_STLB_writeback_MPKI 0
Core_0_STLB_writeback_miss_rate 0
Core_0_STLB_prefetch_requested 0
Core_0_STLB_prefetch_issued 0
Core_0_STLB_prefetch_useful 0
Core_0_STLB_prefetch_useless 0
Core_0_STLB_prefetch_late 0
Core_0_STLB_prefetch_accuracy 0
Core_0_STLB_prefetch_coverage 0

Core_0_L1I_total_access 7953169
Core_0_L1I_total_hit 7951564
Core_0_L1I_total_miss 1605
Core_0_L1I_total_MPKI 0.0321
Core_0_L1I_total_miss_rate 0.000201806
Core_0_L1I_demand_access 7953169
Core_0_L1I_demand_hit 7951564
Core_0_L1I_demand_miss 1605
Core_0_L1I_demand_MPKI 0.0321
Core_0_L1I_demand_miss_rate 0.000201806
Core_0_L1I_load_access 7953169
Core_0_L1I_load_hit 7951564
Core_0_L1I_load_miss 1605
Core_0_L1I_load_MPKI 0.0321
Core_0_L1I_load_miss_rate 0.000201806
Core_0_L1I_rfo_access 0
Core_0_L1I_rfo_hit 0
Core_0_L1I_rfo_miss 0
Core_0_L1I_rfo_MPKI 0
Core_0_L1I_rfo_miss_rate 0
Core_0_L1I_prefetch_access 0
Core_0_L1I_prefetch_hit 0
Core_0_L1I_prefetch_miss 0
Core_0_L1I_prefetch_MPKI 0
Core_0_L1I_prefetch_miss_rate 0
Core_0_L1I_writeback_access 0
Core_0_L1I_writeback_hit 0
Core_0_L1I_writeback_miss 0
Core_0_L1I_writeback_MPKI 0
Core_0_L1I_writeback_miss_rate 0
Core_0_L1I_prefetch_requested 0
Core_0_L1I_prefetch_issued 0
Core_0_L1I_prefetch_useful 0
Core_0_L1I_prefetch_useless 0
Core_0_L1I_prefetch_late 0
Core_0_L1I_prefetch_accuracy 0
Core_0_L1I_prefetch_coverage 0

Core_0_L1D_total_access 12995335
Core_0_L1D_total_hit 12944869
Core_0_L1D_total_miss 50466
Core_0_L1D_total_MPKI 1.00932
Core_0_L1D_total_miss_rate 0.00388339
Core_0_L1D_demand_access 3993539
Core_0_L1D_demand_hit 3963125
Core_0_L1D_demand_miss 30414
Core_0_L1D_demand_MPKI 0.60828
Core_0_L1D_demand_miss_rate 0.0076158
Core_0_L1D_load_access 3993539
Core_0_L1D_load_hit 3963125
Core_0_L1D_load_miss 30414
Core_0_L1D_load_MPKI 0.60828
Core_0_L1D_load_miss_rate 0.0076158
Core_0_L1D_rfo_access 0
Core_0_L1D_rfo_hit 0
Core_0_L1D_rfo_miss 0
Core_0_L1D_rfo_MPKI 0
Core_0_L1D_rfo_miss_rate 0
Core_0_L1D_prefetch_access 0
Core_0_L1D_prefetch_hit 0
Core_0_L1D_prefetch_miss 0
Core_0_L1D_prefetch_MPKI 0
Core_0_L1D_prefetch_miss_rate 0
Core_0_L1D_writeback_access 9001796
Core_0_L1D_writeback_hit 8981744
Core_0_L1D_writeback_miss 20052
Core_0_L1D_writeback_MPKI 0.40104
Core_0_L1D_writeback_miss_rate 0.00222756
Core_0_L1D_prefetch_requested 0
Core_0_L1D_prefetch_issued 0
Core_0_L1D_prefetch_useful 0
Core_0_L1D_prefetch_useless 0
Core_0_L1D_prefetch_late 0
Core_0_L1D_prefetch_accuracy 0
Core_0_L1D_prefetch_coverage 0

Core_0_L2C_total_access 21759
Core_0_L2C_total_hit 10651
Core_0_L2C_total_miss 11108
Core_0_L2C_total_MPKI 0.22216
Core_0_L2C_total_miss_rate 0.510501
Core_0_L2C_demand_access 18293
Core_0_L2C_demand_hit 7201
Core_0_L2C_demand_miss 11092
Core_0_L2C_demand_MPKI 0.22184
Core_0_L2C_demand_miss_rate 0.606352
Core_0_L2C_load_access 15443
Core_0_L2C_load_hit 6543
Core_0_L2C_load_miss 8900
Core_0_L2C_load_MPKI 0.178
Core_0_L2C_load_miss_rate 0.576313
Core_0_L2C_rfo_access 2850
Core_0_L2C_rfo_hit 658
Core_0_L2C_rfo_miss 2192
Core_0_L2C_rfo_MPKI 0.04384
Core_0_L2C_rfo_miss_rate 0.769123
Core_0_L2C_prefetch_access 0
Core_0_L2C_prefetch_hit 0
Core_0_L2C_prefetch_miss 0
Core_0_L2C_prefetch_MPKI 0
Core_0_L2C_prefetch_miss_rate 0
Core_0_L2C_writeback_access 3466
Core_0_L2C_writeback_hit 3450
Core_0_L2C_writeback_miss 16
Core_0_L2C_writeback_MPKI 0.00032
Core_0_L2C_writeback_miss_rate 0.00461627
Core_0_L2C_prefetch_requested 0
Core_0_L2C_prefetch_issued 0
Core_0_L2C_prefetch_useful 0
Core_0_L2C_prefetch_useless 0
Core_0_L2C_prefetch_late 0
Core_0_L2C_prefetch_accuracy 0
Core_0_L2C_prefetch_coverage 0

Core_0_LLC_total_access 12567
Core_0_LLC_total_hit 3280
Core_0_LLC_total_miss 9287
Core_0_LLC_total_MPKI 0.18574
Core_0_LLC_total_miss_rate 0.738999
Core_0_LLC_demand_access 11092
Core_0_LLC_demand_hit 1805
Core_0_LLC_demand_miss 9287
Core_0_LLC_demand_MPKI 0.18574
Core_0_LLC_demand_miss_rate 0.83727
Core_0_LLC_load_access 8900
Core_0_LLC_load_hit 1805
Core_0_LLC_load_miss 7095
Core_0_LLC_load_MPKI 0.1419
Core_0_LLC_load_miss_rate 0.797191
Core_0_LLC_rfo_access 2192
Core_0_LLC_rfo_hit 0
Core_0_LLC_rfo_miss 2192
Core_0_LLC_rfo_MPKI 0.04384
Core_0_LLC_rfo_miss_rate 1
Core_0_LLC_prefetch_access 0
Core_0_LLC_prefetch_hit 0
Core_0_LLC_prefetch_miss 0
Core_0_LLC_prefetch_MPKI 0
Core_0_LLC_prefetch_miss_rate 0
Core_0_LLC_writeback_access 1475
Core_0_LLC_writeback_hit 1475
Core_0_LLC_writeback_miss 0
Core_0_LLC_writeback_MPKI 0
Core_0_LLC_writeback_miss_rate 0
Core_0_LLC_prefetch_requested 0
Core_0_LLC_prefetch_issued 0
Core_0_LLC_prefetch_useful 0
Core_0_LLC_prefetch_useless 0
Core_0_LLC_prefetch_late 0
Core_0_LLC_prefetch_accuracy 0
Core_0_LLC_prefetch_coverage 0

[DRAM Statistics]
Channel_0_RQ_row_buffer_hit 22
Channel_0_RQ_row_buffer_miss 9372
Channel_0_WQ_row_buffer_hit 0
Channel_0_WQ_row_buffer_miss 0
Channel_0_WQ_full 0
Channel_0_dbus_congested 780
DRAM_total_RQ_row_buffer_hit 22
DRAM_total_RQ_row_buffer_miss 9372
DRAM_total_WQ_row_buffer_hit 0
DRAM_total_WQ_row_buffer_miss 0
DRAM_total_WQ_full 0
DRAM_total_dbus_congested 780
DRAM_avg_congested_cycle 2.70769

====== DRAM_RQ_TRAFFIC ========
DRAM_RQ_READ_TRAFFIC_BREAKDOWN:
data_demand_read.count = 9287
data_demand_read.share = 98.86%

inst_demand_read.count = 0
inst_demand_read.share = 0.00%

cache_inst_prefetch.count = 0
cache_inst_prefetch.share = 0.00%

cache_data_prefetch.count = 0
cache_data_prefetch.share = 0.00%

stlb_data_demand.count = 107
stlb_data_demand.share = 1.14%

stlb_inst_demand.count = 0
stlb_inst_demand.share = 0.00%

stlb_l1i_pref.count = 0
stlb_l1i_pref.share = 0.00%

stlb_l1d_pref.count = 0
stlb_l1d_pref.share = 0.00%

DRAM_RQ_READ_TRAFFIC_SUMMARY:
cache_demand.count = 9287
cache_demand.share = 98.86%

cache_prefetch.count = 0
cache_prefetch.share = 0.00%

stlb_demand.count = 107
stlb_demand.share = 1.14%

stlb_prefetch.count = 0
stlb_prefetch.share = 0.00%

DRAM_RQ_READ_TRAFFIC_DEBUG:
total_classified_read.count = 9394
unclassified_read.count = 0
total_read_with_other.count = 9394

classified_plus_unclassified_check.count = 9394
dram_rq_read_total_observed.count = 9394
dram_rq_read_total_observed.per_1K_instructions = 0.18788

STLB_MISS_PTW_DRAM_TOUCH_BREAKDOWN:
stlb_miss_total.count = 312

stlb_miss_touch_dram.count = 106
stlb_miss_touch_dram.share = 33.97%

stlb_miss_no_dram_touch.count = 206
stlb_miss_no_dram_touch.share = 66.03%

STLB_MISS_PTW_DRAM_TOUCH_DEBUG:
stlb_miss_touch_plus_no_touch.count = 312
stlb_miss_total_check.count = 312

======STLB miss causes ========
Core_0_STLB_miss_cause_breakdown
Core_0_STLB_cause_Demand_Data_miss 312
Core_0_STLB_cause_Demand_Data_miss_rate 0.0831113
Core_0_STLB_cause_Demand_Instruction_miss 0
Core_0_STLB_cause_Demand_Instruction_miss_rate 0
Core_0_STLB_cause_L1D_Prefetch_miss 0
Core_0_STLB_cause_L1D_Prefetch_miss_rate 0
Core_0_STLB_cause_L1I_Prefetch_miss 0
Core_0_STLB_cause_L1I_Prefetch_miss_rate 0
Core_0_STLB_cause_Other_miss 0
Core_0_STLB_cause_Other_miss_rate 0
Core_0_STLB_Demand_miss 312
Core_0_STLB_Demand_miss_rate 0.0831113
Core_0_STLB_L1D_Prefetch_miss 0
Core_0_STLB_L1D_Prefetch_miss_rate 0
Core_0_STLB_Other_miss 0
Core_0_STLB_Other_miss_rate 0
