[VMEM] WARNING: physical memory size is smaller than virtual memory size.

*** ChampSim Multicore Out-of-Order Simulator ***
Warmup Instructions: 20000000
Simulation Instructions: 50000000
Number of CPUs: 1
Page size: 4096
Core 0: /data0/tzh/champsim_traces/PARSEC/parsec_2.1.vips.simlarge.prebuilt.drop_10500M.length_250M.champsimtrace.xz
Off-chip DRAM Size: 16 GiB Channels: 1 Width: 64-bit Data Rate: 3205 MT/s
[BTB] WARNING: target of return is a lower address than the corresponding call. This is usually a problem with your trace.
[BTB] WARNING: target of return is a lower address than the corresponding call. This is usually a problem with your trace.
[BTB] WARNING: target of return is a lower address than the corresponding call. This is usually a problem with your trace.
[BTB] WARNING: target of return is a lower address than the corresponding call. This is usually a problem with your trace.
[BTB] WARNING: target of return is a lower address than the corresponding call. This is usually a problem with your trace.
[BTB] WARNING: target of return is a lower address than the corresponding call. This is usually a problem with your trace.
[BTB] WARNING: target of return is a lower address than the corresponding call. This is usually a problem with your trace.
[BTB] WARNING: target of return is a lower address than the corresponding call. This is usually a problem with your trace.
[BTB] WARNING: target of return is a lower address than the corresponding call. This is usually a problem with your trace.
[BTB] WARNING: target of return is a lower address than the corresponding call. This is usually a problem with your trace.
Warmup halting CPU 0 at instruction 20000004 cycle 4105530 for remainder of phase
Warmup finished CPU 0 instructions: 20000004 cycles: 4105530 cumulative IPC: 4.871 (Simulation time: 00 hr 00 min 45 sec)
Warmup complete CPU 0 instructions: 20000004 cycles: 4105530 cumulative IPC: 4.871 (Simulation time: 00 hr 00 min 45 sec)
Simulation finished CPU 0 instructions: 50000002 cycles: 13239539 cumulative IPC: 3.777 (Simulation time: 00 hr 03 min 07 sec)
Simulation complete CPU 0 instructions: 50000002 cycles: 13239539 cumulative IPC: 3.777 (Simulation time: 00 hr 03 min 07 sec)

ChampSim completed all CPUs

=== Simulation ===
CPU 0 runs /data0/tzh/champsim_traces/PARSEC/parsec_2.1.vips.simlarge.prebuilt.drop_10500M.length_250M.champsimtrace.xz

Region of Interest Statistics

CPU 0 cumulative IPC: 3.777 instructions: 50000002 cycles: 13239539
CPU 0 Branch Prediction Accuracy: 99.8% MPKI: 0.2223 Average ROB Occupancy at Mispredict: 172.4
Branch type MPKI
BRANCH_DIRECT_JUMP: 0.00992
BRANCH_INDIRECT: 0.00212
BRANCH_CONDITIONAL: 0.2009
BRANCH_DIRECT_CALL: 0.00168
BRANCH_INDIRECT_CALL: 0.00202
BRANCH_RETURN: 0.00574

cpu0->cpu0_STLB TOTAL        ACCESS:       4303 HIT:       4251 MISS:         52 MSHR_MERGE:          0
cpu0->cpu0_STLB LOAD         ACCESS:       4303 HIT:       4251 MISS:         52 MSHR_MERGE:          0
cpu0->cpu0_STLB RFO          ACCESS:          0 HIT:          0 MISS:          0 MSHR_MERGE:          0
cpu0->cpu0_STLB PREFETCH     ACCESS:          0 HIT:          0 MISS:          0 MSHR_MERGE:          0
cpu0->cpu0_STLB WRITE        ACCESS:          0 HIT:          0 MISS:          0 MSHR_MERGE:          0
cpu0->cpu0_STLB TRANSLATION  ACCESS:          0 HIT:          0 MISS:          0 MSHR_MERGE:          0
cpu0->cpu0_STLB PREFETCH REQUESTED:          0 ISSUED:          0 USEFUL:          0 USELESS:          0 LATE:          0
cpu0->cpu0_STLB AVERAGE MISS LATENCY: 235.3 cycles
cpu0->cpu0_L2C TOTAL        ACCESS:     252940 HIT:     162377 MISS:      90563 MSHR_MERGE:          0
cpu0->cpu0_L2C LOAD         ACCESS:     131679 HIT:      79415 MISS:      52264 MSHR_MERGE:          0
cpu0->cpu0_L2C RFO          ACCESS:      38989 HIT:        742 MISS:      38247 MSHR_MERGE:          0
cpu0->cpu0_L2C PREFETCH     ACCESS:          0 HIT:          0 MISS:          0 MSHR_MERGE:          0
cpu0->cpu0_L2C WRITE        ACCESS:      82220 HIT:      82220 MISS:          0 MSHR_MERGE:          0
cpu0->cpu0_L2C TRANSLATION  ACCESS:         52 HIT:          0 MISS:         52 MSHR_MERGE:          0
cpu0->cpu0_L2C PREFETCH REQUESTED:          0 ISSUED:          0 USEFUL:          0 USELESS:          0 LATE:          0
cpu0->cpu0_L2C AVERAGE MISS LATENCY: 20.64 cycles
cpu0->cpu0_L1I TOTAL        ACCESS:    6741672 HIT:    6739518 MISS:       2154 MSHR_MERGE:        823
cpu0->cpu0_L1I LOAD         ACCESS:    6741672 HIT:    6739518 MISS:       2154 MSHR_MERGE:        823
cpu0->cpu0_L1I RFO          ACCESS:          0 HIT:          0 MISS:          0 MSHR_MERGE:          0
cpu0->cpu0_L1I PREFETCH     ACCESS:          0 HIT:          0 MISS:          0 MSHR_MERGE:          0
cpu0->cpu0_L1I WRITE        ACCESS:          0 HIT:          0 MISS:          0 MSHR_MERGE:          0
cpu0->cpu0_L1I TRANSLATION  ACCESS:          0 HIT:          0 MISS:          0 MSHR_MERGE:          0
cpu0->cpu0_L1I PREFETCH REQUESTED:          0 ISSUED:          0 USEFUL:          0 USELESS:          0 LATE:          0
cpu0->cpu0_L1I AVERAGE MISS LATENCY: 23.07 cycles
cpu0->cpu0_L1D TOTAL        ACCESS:    9689673 HIT:    9216476 MISS:     473197 MSHR_MERGE:     303808
cpu0->cpu0_L1D LOAD         ACCESS:    7117190 HIT:    6856435 MISS:     260755 MSHR_MERGE:     130407
cpu0->cpu0_L1D RFO          ACCESS:          0 HIT:          0 MISS:          0 MSHR_MERGE:          0
cpu0->cpu0_L1D PREFETCH     ACCESS:          0 HIT:          0 MISS:          0 MSHR_MERGE:          0
cpu0->cpu0_L1D WRITE        ACCESS:    2572379 HIT:    2359989 MISS:     212390 MSHR_MERGE:     173401
cpu0->cpu0_L1D TRANSLATION  ACCESS:        104 HIT:         52 MISS:         52 MSHR_MERGE:          0
cpu0->cpu0_L1D PREFETCH REQUESTED:          0 ISSUED:          0 USEFUL:          0 USELESS:          0 LATE:          0
cpu0->cpu0_L1D AVERAGE MISS LATENCY: 19.46 cycles
cpu0->cpu0_ITLB TOTAL        ACCESS:    5541086 HIT:    5540499 MISS:        587 MSHR_MERGE:        402
cpu0->cpu0_ITLB LOAD         ACCESS:    5541086 HIT:    5540499 MISS:        587 MSHR_MERGE:        402
cpu0->cpu0_ITLB RFO          ACCESS:          0 HIT:          0 MISS:          0 MSHR_MERGE:          0
cpu0->cpu0_ITLB PREFETCH     ACCESS:          0 HIT:          0 MISS:          0 MSHR_MERGE:          0
cpu0->cpu0_ITLB WRITE        ACCESS:          0 HIT:          0 MISS:          0 MSHR_MERGE:          0
cpu0->cpu0_ITLB TRANSLATION  ACCESS:          0 HIT:          0 MISS:          0 MSHR_MERGE:          0
cpu0->cpu0_ITLB PREFETCH REQUESTED:          0 ISSUED:          0 USEFUL:          0 USELESS:          0 LATE:          0
cpu0->cpu0_ITLB AVERAGE MISS LATENCY: 5 cycles
cpu0->cpu0_DTLB TOTAL        ACCESS:    9138556 HIT:    9131088 MISS:       7468 MSHR_MERGE:       3350
cpu0->cpu0_DTLB LOAD         ACCESS:    9138556 HIT:    9131088 MISS:       7468 MSHR_MERGE:       3350
cpu0->cpu0_DTLB RFO          ACCESS:          0 HIT:          0 MISS:          0 MSHR_MERGE:          0
cpu0->cpu0_DTLB PREFETCH     ACCESS:          0 HIT:          0 MISS:          0 MSHR_MERGE:          0
cpu0->cpu0_DTLB WRITE        ACCESS:          0 HIT:          0 MISS:          0 MSHR_MERGE:          0
cpu0->cpu0_DTLB TRANSLATION  ACCESS:          0 HIT:          0 MISS:          0 MSHR_MERGE:          0
cpu0->cpu0_DTLB PREFETCH REQUESTED:          0 ISSUED:          0 USEFUL:          0 USELESS:          0 LATE:          0
cpu0->cpu0_DTLB AVERAGE MISS LATENCY: 7.984 cycles
cpu0->LLC TOTAL        ACCESS:     170067 HIT:     167170 MISS:       2897 MSHR_MERGE:          0
cpu0->LLC LOAD         ACCESS:      52264 HIT:      50365 MISS:       1899 MSHR_MERGE:          0
cpu0->LLC RFO          ACCESS:      38247 HIT:      37255 MISS:        992 MSHR_MERGE:          0
cpu0->LLC PREFETCH     ACCESS:          0 HIT:          0 MISS:          0 MSHR_MERGE:          0
cpu0->LLC WRITE        ACCESS:      79504 HIT:      79498 MISS:          6 MSHR_MERGE:          0
cpu0->LLC TRANSLATION  ACCESS:         52 HIT:         52 MISS:          0 MSHR_MERGE:          0
cpu0->LLC PREFETCH REQUESTED:          0 ISSUED:          0 USEFUL:          0 USELESS:          0 LATE:          0
cpu0->LLC AVERAGE MISS LATENCY: 175 cycles

DRAM Statistics

Channel 0 RQ ROW_BUFFER_HIT:          5
  ROW_BUFFER_MISS:       2886
  AVG DBUS CONGESTED CYCLE: 12.35
Channel 0 WQ ROW_BUFFER_HIT:          3
  ROW_BUFFER_MISS:         53
  FULL:          0
Channel 0 REFRESHES ISSUED:       1103

[ROI Statistics]
[System Configuration]
num_cpus 1
cpu_freq 4000
fetch_width 6
decode_width 6
dispatch_width 6
execute_width 6
lq_width 2
sq_width 2
retire_width 6
scheduler_size 128
branch_mispredict_penalty 15
rob_size 352
lq_size 128
sq_size 72
ifetch_buffer_size 64
decode_buffer_size 32
dispatch_buffer_size 32
register_file_size 288
decode_latency 1
dispatch_latency 1
schedule_latency 1
execute_latency 1
page_size 4096
block_size 64
core_0_itlb_set 16
core_0_itlb_way 4
core_0_itlb_rq_size 16
core_0_itlb_wq_size 16
core_0_itlb_pq_size 0
core_0_itlb_mshr_size 8
core_0_itlb_hit_latency 1
core_0_itlb_fill_latency 1
core_0_itlb_max_tag_check 2
core_0_itlb_max_fill 2
core_0_dtlb_set 16
core_0_dtlb_way 4
core_0_dtlb_rq_size 16
core_0_dtlb_wq_size 16
core_0_dtlb_pq_size 0
core_0_dtlb_mshr_size 8
core_0_dtlb_hit_latency 1
core_0_dtlb_fill_latency 1
core_0_dtlb_max_tag_check 2
core_0_dtlb_max_fill 2
core_0_stlb_set 128
core_0_stlb_way 12
core_0_stlb_rq_size 32
core_0_stlb_wq_size 32
core_0_stlb_pq_size 0
core_0_stlb_mshr_size 16
core_0_stlb_hit_latency 4
core_0_stlb_fill_latency 4
core_0_stlb_max_tag_check 1
core_0_stlb_max_fill 1
core_0_l1i_set 64
core_0_l1i_way 8
core_0_l1i_rq_size 64
core_0_l1i_wq_size 64
core_0_l1i_pq_size 32
core_0_l1i_mshr_size 8
core_0_l1i_hit_latency 2
core_0_l1i_fill_latency 2
core_0_l1i_max_tag_check 2
core_0_l1i_max_fill 2
core_0_l1d_set 64
core_0_l1d_way 12
core_0_l1d_rq_size 64
core_0_l1d_wq_size 64
core_0_l1d_pq_size 8
core_0_l1d_mshr_size 16
core_0_l1d_hit_latency 2
core_0_l1d_fill_latency 3
core_0_l1d_max_tag_check 2
core_0_l1d_max_fill 2
core_0_l2c_set 1024
core_0_l2c_way 8
core_0_l2c_rq_size 32
core_0_l2c_wq_size 32
core_0_l2c_pq_size 16
core_0_l2c_mshr_size 32
core_0_l2c_hit_latency 5
core_0_l2c_fill_latency 5
core_0_l2c_max_tag_check 1
core_0_l2c_max_fill 1
llc_set 2048
llc_way 16
llc_rq_size 32
llc_wq_size 32
llc_pq_size 32
llc_mshr_size 64
llc_hit_latency 10
llc_fill_latency 10
llc_max_tag_check 1
llc_max_fill 1
dram_channels 1
dram_ranks 1
dram_bankgroups 8
dram_banks 4
dram_rows 65536
dram_columns 1024
dram_channel_width 8
dram_rq_size 64
dram_wq_size 64
dram_size 17179869184
core_0_itlb_prefetcher no
core_0_dtlb_prefetcher no
core_0_stlb_prefetcher no
core_0_l1i_prefetcher no
core_0_l1d_prefetcher no
core_0_l2c_prefetcher no
llc_prefetcher no
llc_replacement drrip

Core_0_instructions 50000002
Core_0_cycles 13239539
Core_0_IPC 3.77657
Core_0_branch_prediction_accuracy 99.8018
Core_0_branch_MPKI 0.22234
Core_0_average_ROB_occupancy_at_mispredict 172.448

Core_0_ITLB_total_access 5541086
Core_0_ITLB_total_hit 5540499
Core_0_ITLB_total_miss 587
Core_0_ITLB_total_MPKI 0.01174
Core_0_ITLB_total_miss_rate 0.000105936
Core_0_ITLB_demand_access 5541086
Core_0_ITLB_demand_hit 5540499
Core_0_ITLB_demand_miss 587
Core_0_ITLB_demand_MPKI 0.01174
Core_0_ITLB_demand_miss_rate 0.000105936
Core_0_ITLB_load_access 5541086
Core_0_ITLB_load_hit 5540499
Core_0_ITLB_load_miss 587
Core_0_ITLB_load_MPKI 0.01174
Core_0_ITLB_load_miss_rate 0.000105936
Core_0_ITLB_rfo_access 0
Core_0_ITLB_rfo_hit 0
Core_0_ITLB_rfo_miss 0
Core_0_ITLB_rfo_MPKI 0
Core_0_ITLB_rfo_miss_rate 0
Core_0_ITLB_prefetch_access 0
Core_0_ITLB_prefetch_hit 0
Core_0_ITLB_prefetch_miss 0
Core_0_ITLB_prefetch_MPKI 0
Core_0_ITLB_prefetch_miss_rate 0
Core_0_ITLB_writeback_access 0
Core_0_ITLB_writeback_hit 0
Core_0_ITLB_writeback_miss 0
Core_0_ITLB_writeback_MPKI 0
Core_0_ITLB_writeback_miss_rate 0
Core_0_ITLB_prefetch_requested 0
Core_0_ITLB_prefetch_issued 0
Core_0_ITLB_prefetch_useful 0
Core_0_ITLB_prefetch_useless 0
Core_0_ITLB_prefetch_late 0
Core_0_ITLB_prefetch_accuracy 0
Core_0_ITLB_prefetch_coverage 0

Core_0_DTLB_total_access 9138556
Core_0_DTLB_total_hit 9131088
Core_0_DTLB_total_miss 7468
Core_0_DTLB_total_MPKI 0.14936
Core_0_DTLB_total_miss_rate 0.000817197
Core_0_DTLB_demand_access 9138556
Core_0_DTLB_demand_hit 9131088
Core_0_DTLB_demand_miss 7468
Core_0_DTLB_demand_MPKI 0.14936
Core_0_DTLB_demand_miss_rate 0.000817197
Core_0_DTLB_load_access 9138556
Core_0_DTLB_load_hit 9131088
Core_0_DTLB_load_miss 7468
Core_0_DTLB_load_MPKI 0.14936
Core_0_DTLB_load_miss_rate 0.000817197
Core_0_DTLB_rfo_access 0
Core_0_DTLB_rfo_hit 0
Core_0_DTLB_rfo_miss 0
Core_0_DTLB_rfo_MPKI 0
Core_0_DTLB_rfo_miss_rate 0
Core_0_DTLB_prefetch_access 0
Core_0_DTLB_prefetch_hit 0
Core_0_DTLB_prefetch_miss 0
Core_0_DTLB_prefetch_MPKI 0
Core_0_DTLB_prefetch_miss_rate 0
Core_0_DTLB_writeback_access 0
Core_0_DTLB_writeback_hit 0
Core_0_DTLB_writeback_miss 0
Core_0_DTLB_writeback_MPKI 0
Core_0_DTLB_writeback_miss_rate 0
Core_0_DTLB_prefetch_requested 0
Core_0_DTLB_prefetch_issued 0
Core_0_DTLB_prefetch_useful 0
Core_0_DTLB_prefetch_useless 0
Core_0_DTLB_prefetch_late 0
Core_0_DTLB_prefetch_accuracy 0
Core_0_DTLB_prefetch_coverage 0

Core_0_STLB_total_access 4303
Core_0_STLB_total_hit 4251
Core_0_STLB_total_miss 52
Core_0_STLB_total_MPKI 0.00104
Core_0_STLB_total_miss_rate 0.0120846
Core_0_STLB_demand_access 4303
Core_0_STLB_demand_hit 4251
Core_0_STLB_demand_miss 52
Core_0_STLB_demand_MPKI 0.00104
Core_0_STLB_demand_miss_rate 0.0120846
Core_0_STLB_load_access 4303
Core_0_STLB_load_hit 4251
Core_0_STLB_load_miss 52
Core_0_STLB_load_MPKI 0.00104
Core_0_STLB_load_miss_rate 0.0120846
Core_0_STLB_rfo_access 0
Core_0_STLB_rfo_hit 0
Core_0_STLB_rfo_miss 0
Core_0_STLB_rfo_MPKI 0
Core_0_STLB_rfo_miss_rate 0
Core_0_STLB_prefetch_access 0
Core_0_STLB_prefetch_hit 0
Core_0_STLB_prefetch_miss 0
Core_0_STLB_prefetch_MPKI 0
Core_0_STLB_prefetch_miss_rate 0
Core_0_STLB_writeback_access 0
Core_0_STLB_writeback_hit 0
Core_0_STLB_writeback_miss 0
Core_0_STLB_writeback_MPKI 0
Core_0_STLB_writeback_miss_rate 0
Core_0_STLB_prefetch_requested 0
Core_0_STLB_prefetch_issued 0
Core_0_STLB_prefetch_useful 0
Core_0_STLB_prefetch_useless 0
Core_0_STLB_prefetch_late 0
Core_0_STLB_prefetch_accuracy 0
Core_0_STLB_prefetch_coverage 0

Core_0_L1I_total_access 6741672
Core_0_L1I_total_hit 6739518
Core_0_L1I_total_miss 2154
Core_0_L1I_total_MPKI 0.04308
Core_0_L1I_total_miss_rate 0.000319505
Core_0_L1I_demand_access 6741672
Core_0_L1I_demand_hit 6739518
Core_0_L1I_demand_miss 2154
Core_0_L1I_demand_MPKI 0.04308
Core_0_L1I_demand_miss_rate 0.000319505
Core_0_L1I_load_access 6741672
Core_0_L1I_load_hit 6739518
Core_0_L1I_load_miss 2154
Core_0_L1I_load_MPKI 0.04308
Core_0_L1I_load_miss_rate 0.000319505
Core_0_L1I_rfo_access 0
Core_0_L1I_rfo_hit 0
Core_0_L1I_rfo_miss 0
Core_0_L1I_rfo_MPKI 0
Core_0_L1I_rfo_miss_rate 0
Core_0_L1I_prefetch_access 0
Core_0_L1I_prefetch_hit 0
Core_0_L1I_prefetch_miss 0
Core_0_L1I_prefetch_MPKI 0
Core_0_L1I_prefetch_miss_rate 0
Core_0_L1I_writeback_access 0
Core_0_L1I_writeback_hit 0
Core_0_L1I_writeback_miss 0
Core_0_L1I_writeback_MPKI 0
Core_0_L1I_writeback_miss_rate 0
Core_0_L1I_prefetch_requested 0
Core_0_L1I_prefetch_issued 0
Core_0_L1I_prefetch_useful 0
Core_0_L1I_prefetch_useless 0
Core_0_L1I_prefetch_late 0
Core_0_L1I_prefetch_accuracy 0
Core_0_L1I_prefetch_coverage 0

Core_0_L1D_total_access 9689569
Core_0_L1D_total_hit 9216424
Core_0_L1D_total_miss 473145
Core_0_L1D_total_MPKI 9.4629
Core_0_L1D_total_miss_rate 0.0488303
Core_0_L1D_demand_access 7117190
Core_0_L1D_demand_hit 6856435
Core_0_L1D_demand_miss 260755
Core_0_L1D_demand_MPKI 5.2151
Core_0_L1D_demand_miss_rate 0.0366374
Core_0_L1D_load_access 7117190
Core_0_L1D_load_hit 6856435
Core_0_L1D_load_miss 260755
Core_0_L1D_load_MPKI 5.2151
Core_0_L1D_load_miss_rate 0.0366374
Core_0_L1D_rfo_access 0
Core_0_L1D_rfo_hit 0
Core_0_L1D_rfo_miss 0
Core_0_L1D_rfo_MPKI 0
Core_0_L1D_rfo_miss_rate 0
Core_0_L1D_prefetch_access 0
Core_0_L1D_prefetch_hit 0
Core_0_L1D_prefetch_miss 0
Core_0_L1D_prefetch_MPKI 0
Core_0_L1D_prefetch_miss_rate 0
Core_0_L1D_writeback_access 2572379
Core_0_L1D_writeback_hit 2359989
Core_0_L1D_writeback_miss 212390
Core_0_L1D_writeback_MPKI 4.2478
Core_0_L1D_writeback_miss_rate 0.0825656
Core_0_L1D_prefetch_requested 0
Core_0_L1D_prefetch_issued 0
Core_0_L1D_prefetch_useful 0
Core_0_L1D_prefetch_useless 0
Core_0_L1D_prefetch_late 0
Core_0_L1D_prefetch_accuracy 0
Core_0_L1D_prefetch_coverage 0

Core_0_L2C_total_access 252888
Core_0_L2C_total_hit 162377
Core_0_L2C_total_miss 90511
Core_0_L2C_total_MPKI 1.81022
Core_0_L2C_total_miss_rate 0.357909
Core_0_L2C_demand_access 170668
Core_0_L2C_demand_hit 80157
Core_0_L2C_demand_miss 90511
Core_0_L2C_demand_MPKI 1.81022
Core_0_L2C_demand_miss_rate 0.530334
Core_0_L2C_load_access 131679
Core_0_L2C_load_hit 79415
Core_0_L2C_load_miss 52264
Core_0_L2C_load_MPKI 1.04528
Core_0_L2C_load_miss_rate 0.396905
Core_0_L2C_rfo_access 38989
Core_0_L2C_rfo_hit 742
Core_0_L2C_rfo_miss 38247
Core_0_L2C_rfo_MPKI 0.76494
Core_0_L2C_rfo_miss_rate 0.980969
Core_0_L2C_prefetch_access 0
Core_0_L2C_prefetch_hit 0
Core_0_L2C_prefetch_miss 0
Core_0_L2C_prefetch_MPKI 0
Core_0_L2C_prefetch_miss_rate 0
Core_0_L2C_writeback_access 82220
Core_0_L2C_writeback_hit 82220
Core_0_L2C_writeback_miss 0
Core_0_L2C_writeback_MPKI 0
Core_0_L2C_writeback_miss_rate 0
Core_0_L2C_prefetch_requested 0
Core_0_L2C_prefetch_issued 0
Core_0_L2C_prefetch_useful 0
Core_0_L2C_prefetch_useless 0
Core_0_L2C_prefetch_late 0
Core_0_L2C_prefetch_accuracy 0
Core_0_L2C_prefetch_coverage 0

Core_0_LLC_total_access 170015
Core_0_LLC_total_hit 167118
Core_0_LLC_total_miss 2897
Core_0_LLC_total_MPKI 0.05794
Core_0_LLC_total_miss_rate 0.0170397
Core_0_LLC_demand_access 90511
Core_0_LLC_demand_hit 87620
Core_0_LLC_demand_miss 2891
Core_0_LLC_demand_MPKI 0.05782
Core_0_LLC_demand_miss_rate 0.0319409
Core_0_LLC_load_access 52264
Core_0_LLC_load_hit 50365
Core_0_LLC_load_miss 1899
Core_0_LLC_load_MPKI 0.03798
Core_0_LLC_load_miss_rate 0.0363348
Core_0_LLC_rfo_access 38247
Core_0_LLC_rfo_hit 37255
Core_0_LLC_rfo_miss 992
Core_0_LLC_rfo_MPKI 0.01984
Core_0_LLC_rfo_miss_rate 0.0259367
Core_0_LLC_prefetch_access 0
Core_0_LLC_prefetch_hit 0
Core_0_LLC_prefetch_miss 0
Core_0_LLC_prefetch_MPKI 0
Core_0_LLC_prefetch_miss_rate 0
Core_0_LLC_writeback_access 79504
Core_0_LLC_writeback_hit 79498
Core_0_LLC_writeback_miss 6
Core_0_LLC_writeback_MPKI 0.00012
Core_0_LLC_writeback_miss_rate 7.54679e-05
Core_0_LLC_prefetch_requested 0
Core_0_LLC_prefetch_issued 0
Core_0_LLC_prefetch_useful 0
Core_0_LLC_prefetch_useless 0
Core_0_LLC_prefetch_late 0
Core_0_LLC_prefetch_accuracy 0
Core_0_LLC_prefetch_coverage 0

[DRAM Statistics]
Channel_0_RQ_row_buffer_hit 5
Channel_0_RQ_row_buffer_miss 2886
Channel_0_WQ_row_buffer_hit 3
Channel_0_WQ_row_buffer_miss 53
Channel_0_WQ_full 0
Channel_0_dbus_congested 649
DRAM_total_RQ_row_buffer_hit 5
DRAM_total_RQ_row_buffer_miss 2886
DRAM_total_WQ_row_buffer_hit 3
DRAM_total_WQ_row_buffer_miss 53
DRAM_total_WQ_full 0
DRAM_total_dbus_congested 649
DRAM_avg_congested_cycle 12.3482

====== DRAM_RQ_TRAFFIC ========
DRAM_RQ_READ_TRAFFIC_BREAKDOWN:
data_demand_read.count = 2891
data_demand_read.share = 100.00%

inst_demand_read.count = 0
inst_demand_read.share = 0.00%

cache_inst_prefetch.count = 0
cache_inst_prefetch.share = 0.00%

cache_data_prefetch.count = 0
cache_data_prefetch.share = 0.00%

stlb_data_demand.count = 0
stlb_data_demand.share = 0.00%

stlb_inst_demand.count = 0
stlb_inst_demand.share = 0.00%

stlb_l1i_pref.count = 0
stlb_l1i_pref.share = 0.00%

stlb_l1d_pref.count = 0
stlb_l1d_pref.share = 0.00%

DRAM_RQ_READ_TRAFFIC_SUMMARY:
cache_demand.count = 2891
cache_demand.share = 100.00%

cache_prefetch.count = 0
cache_prefetch.share = 0.00%

stlb_demand.count = 0
stlb_demand.share = 0.00%

stlb_prefetch.count = 0
stlb_prefetch.share = 0.00%

DRAM_RQ_READ_TRAFFIC_DEBUG:
total_classified_read.count = 2891
unclassified_read.count = 0
total_read_with_other.count = 2891

classified_plus_unclassified_check.count = 2891
dram_rq_read_total_observed.count = 2891
dram_rq_read_total_observed.per_1K_instructions = 0.05782

STLB_MISS_PTW_DRAM_TOUCH_BREAKDOWN:
stlb_miss_total.count = 52

stlb_miss_touch_dram.count = 0
stlb_miss_touch_dram.share = 0.00%

stlb_miss_no_dram_touch.count = 52
stlb_miss_no_dram_touch.share = 100.00%

STLB_MISS_PTW_DRAM_TOUCH_DEBUG:
stlb_miss_touch_plus_no_touch.count = 52
stlb_miss_total_check.count = 52

======STLB miss causes ========
Core_0_STLB_miss_cause_breakdown
Core_0_STLB_cause_Demand_Data_miss 52
Core_0_STLB_cause_Demand_Data_miss_rate 0.0120846
Core_0_STLB_cause_Demand_Instruction_miss 0
Core_0_STLB_cause_Demand_Instruction_miss_rate 0
Core_0_STLB_cause_L1D_Prefetch_miss 0
Core_0_STLB_cause_L1D_Prefetch_miss_rate 0
Core_0_STLB_cause_L1I_Prefetch_miss 0
Core_0_STLB_cause_L1I_Prefetch_miss_rate 0
Core_0_STLB_cause_Other_miss 0
Core_0_STLB_cause_Other_miss_rate 0
Core_0_STLB_Demand_miss 52
Core_0_STLB_Demand_miss_rate 0.0120846
Core_0_STLB_L1D_Prefetch_miss 0
Core_0_STLB_L1D_Prefetch_miss_rate 0
Core_0_STLB_Other_miss 0
Core_0_STLB_Other_miss_rate 0
