[VMEM] WARNING: physical memory size is smaller than virtual memory size.

*** ChampSim Multicore Out-of-Order Simulator ***
Warmup Instructions: 20000000
Simulation Instructions: 50000000
Number of CPUs: 1
Page size: 4096
Core 0: /data0/tzh/champsim_traces/PARSEC/parsec_2.1.raytrace.simlarge.prebuilt.drop_23500M.length_250M.champsimtrace.xz
Off-chip DRAM Size: 16 GiB Channels: 1 Width: 64-bit Data Rate: 3205 MT/s
Warmup halting CPU 0 at instruction 20000003 cycle 4249361 for remainder of phase
Warmup finished CPU 0 instructions: 20000003 cycles: 4249361 cumulative IPC: 4.707 (Simulation time: 00 hr 00 min 56 sec)
Warmup complete CPU 0 instructions: 20000003 cycles: 4249361 cumulative IPC: 4.707 (Simulation time: 00 hr 00 min 56 sec)
Simulation finished CPU 0 instructions: 50000005 cycles: 31131191 cumulative IPC: 1.606 (Simulation time: 00 hr 05 min 55 sec)
Simulation complete CPU 0 instructions: 50000005 cycles: 31131191 cumulative IPC: 1.606 (Simulation time: 00 hr 05 min 55 sec)

ChampSim completed all CPUs

=== Simulation ===
CPU 0 runs /data0/tzh/champsim_traces/PARSEC/parsec_2.1.raytrace.simlarge.prebuilt.drop_23500M.length_250M.champsimtrace.xz

Region of Interest Statistics

CPU 0 cumulative IPC: 1.606 instructions: 50000005 cycles: 31131191
CPU 0 Branch Prediction Accuracy: 100% MPKI: 0 Average ROB Occupancy at Mispredict: -
Branch type MPKI
BRANCH_DIRECT_JUMP: 0
BRANCH_INDIRECT: 0
BRANCH_CONDITIONAL: 0
BRANCH_DIRECT_CALL: 0
BRANCH_INDIRECT_CALL: 0
BRANCH_RETURN: 0

cpu0->cpu0_STLB TOTAL        ACCESS:       7248 HIT:       4285 MISS:       2963 MSHR_MERGE:          0
cpu0->cpu0_STLB LOAD         ACCESS:       7248 HIT:       4285 MISS:       2963 MSHR_MERGE:          0
cpu0->cpu0_STLB RFO          ACCESS:          0 HIT:          0 MISS:          0 MSHR_MERGE:          0
cpu0->cpu0_STLB PREFETCH     ACCESS:          0 HIT:          0 MISS:          0 MSHR_MERGE:          0
cpu0->cpu0_STLB WRITE        ACCESS:          0 HIT:          0 MISS:          0 MSHR_MERGE:          0
cpu0->cpu0_STLB TRANSLATION  ACCESS:          0 HIT:          0 MISS:          0 MSHR_MERGE:          0
cpu0->cpu0_STLB PREFETCH REQUESTED:          0 ISSUED:          0 USEFUL:          0 USELESS:          0 LATE:          0
cpu0->cpu0_STLB AVERAGE MISS LATENCY: 239.9 cycles
cpu0->cpu0_L2C TOTAL        ACCESS:     375222 HIT:     178776 MISS:     196446 MSHR_MERGE:          0
cpu0->cpu0_L2C LOAD         ACCESS:     194664 HIT:      87880 MISS:     106784 MSHR_MERGE:          0
cpu0->cpu0_L2C RFO          ACCESS:      90055 HIT:        770 MISS:      89285 MSHR_MERGE:          0
cpu0->cpu0_L2C PREFETCH     ACCESS:          0 HIT:          0 MISS:          0 MSHR_MERGE:          0
cpu0->cpu0_L2C WRITE        ACCESS:      90106 HIT:      90106 MISS:          0 MSHR_MERGE:          0
cpu0->cpu0_L2C TRANSLATION  ACCESS:        397 HIT:         20 MISS:        377 MSHR_MERGE:          0
cpu0->cpu0_L2C PREFETCH REQUESTED:          0 ISSUED:          0 USEFUL:          0 USELESS:          0 LATE:          0
cpu0->cpu0_L2C AVERAGE MISS LATENCY: 207.6 cycles
cpu0->cpu0_L1I TOTAL        ACCESS:    8390938 HIT:    8390938 MISS:          0 MSHR_MERGE:          0
cpu0->cpu0_L1I LOAD         ACCESS:    8390938 HIT:    8390938 MISS:          0 MSHR_MERGE:          0
cpu0->cpu0_L1I RFO          ACCESS:          0 HIT:          0 MISS:          0 MSHR_MERGE:          0
cpu0->cpu0_L1I PREFETCH     ACCESS:          0 HIT:          0 MISS:          0 MSHR_MERGE:          0
cpu0->cpu0_L1I WRITE        ACCESS:          0 HIT:          0 MISS:          0 MSHR_MERGE:          0
cpu0->cpu0_L1I TRANSLATION  ACCESS:          0 HIT:          0 MISS:          0 MSHR_MERGE:          0
cpu0->cpu0_L1I PREFETCH REQUESTED:          0 ISSUED:          0 USEFUL:          0 USELESS:          0 LATE:          0
cpu0->cpu0_L1I AVERAGE MISS LATENCY: - cycles
cpu0->cpu0_L1D TOTAL        ACCESS:   12116192 HIT:   11243342 MISS:     872850 MSHR_MERGE:     587667
cpu0->cpu0_L1D LOAD         ACCESS:    3895977 HIT:    3519548 MISS:     376429 MSHR_MERGE:     181765
cpu0->cpu0_L1D RFO          ACCESS:          0 HIT:          0 MISS:          0 MSHR_MERGE:          0
cpu0->cpu0_L1D PREFETCH     ACCESS:          0 HIT:          0 MISS:          0 MSHR_MERGE:          0
cpu0->cpu0_L1D WRITE        ACCESS:    8214283 HIT:    7718259 MISS:     496024 MSHR_MERGE:     405902
cpu0->cpu0_L1D TRANSLATION  ACCESS:       5932 HIT:       5535 MISS:        397 MSHR_MERGE:          0
cpu0->cpu0_L1D PREFETCH REQUESTED:          0 ISSUED:          0 USEFUL:          0 USELESS:          0 LATE:          0
cpu0->cpu0_L1D AVERAGE MISS LATENCY: 151.7 cycles
cpu0->cpu0_ITLB TOTAL        ACCESS:    6473051 HIT:    6473051 MISS:          0 MSHR_MERGE:          0
cpu0->cpu0_ITLB LOAD         ACCESS:    6473051 HIT:    6473051 MISS:          0 MSHR_MERGE:          0
cpu0->cpu0_ITLB RFO          ACCESS:          0 HIT:          0 MISS:          0 MSHR_MERGE:          0
cpu0->cpu0_ITLB PREFETCH     ACCESS:          0 HIT:          0 MISS:          0 MSHR_MERGE:          0
cpu0->cpu0_ITLB WRITE        ACCESS:          0 HIT:          0 MISS:          0 MSHR_MERGE:          0
cpu0->cpu0_ITLB TRANSLATION  ACCESS:          0 HIT:          0 MISS:          0 MSHR_MERGE:          0
cpu0->cpu0_ITLB PREFETCH REQUESTED:          0 ISSUED:          0 USEFUL:          0 USELESS:          0 LATE:          0
cpu0->cpu0_ITLB AVERAGE MISS LATENCY: - cycles
cpu0->cpu0_DTLB TOTAL        ACCESS:   10727260 HIT:   10710163 MISS:      17097 MSHR_MERGE:       9849
cpu0->cpu0_DTLB LOAD         ACCESS:   10727260 HIT:   10710163 MISS:      17097 MSHR_MERGE:       9849
cpu0->cpu0_DTLB RFO          ACCESS:          0 HIT:          0 MISS:          0 MSHR_MERGE:          0
cpu0->cpu0_DTLB PREFETCH     ACCESS:          0 HIT:          0 MISS:          0 MSHR_MERGE:          0
cpu0->cpu0_DTLB WRITE        ACCESS:          0 HIT:          0 MISS:          0 MSHR_MERGE:          0
cpu0->cpu0_DTLB TRANSLATION  ACCESS:          0 HIT:          0 MISS:          0 MSHR_MERGE:          0
cpu0->cpu0_DTLB PREFETCH REQUESTED:          0 ISSUED:          0 USEFUL:          0 USELESS:          0 LATE:          0
cpu0->cpu0_DTLB AVERAGE MISS LATENCY: 103.5 cycles
cpu0->LLC TOTAL        ACCESS:     285682 HIT:      83938 MISS:     201744 MSHR_MERGE:          0
cpu0->LLC LOAD         ACCESS:     106784 HIT:       5500 MISS:     101284 MSHR_MERGE:          0
cpu0->LLC RFO          ACCESS:      89285 HIT:          0 MISS:      89285 MSHR_MERGE:          0
cpu0->LLC PREFETCH     ACCESS:          0 HIT:          0 MISS:          0 MSHR_MERGE:          0
cpu0->LLC WRITE        ACCESS:      89236 HIT:      78437 MISS:      10799 MSHR_MERGE:          0
cpu0->LLC TRANSLATION  ACCESS:        377 HIT:          1 MISS:        376 MSHR_MERGE:          0
cpu0->LLC PREFETCH REQUESTED:          0 ISSUED:          0 USEFUL:          0 USELESS:          0 LATE:          0
cpu0->LLC AVERAGE MISS LATENCY: 187 cycles

DRAM Statistics

Channel 0 RQ ROW_BUFFER_HIT:         92
  ROW_BUFFER_MISS:     190853
  AVG DBUS CONGESTED CYCLE: 11.2
Channel 0 WQ ROW_BUFFER_HIT:      34822
  ROW_BUFFER_MISS:      53360
  FULL:          0
Channel 0 REFRESHES ISSUED:       2594

[ROI Statistics]
[System Configuration]
num_cpus 1
cpu_freq 4000
fetch_width 6
decode_width 6
dispatch_width 6
execute_width 6
lq_width 2
sq_width 2
retire_width 6
scheduler_size 128
branch_mispredict_penalty 15
rob_size 352
lq_size 128
sq_size 72
ifetch_buffer_size 64
decode_buffer_size 32
dispatch_buffer_size 32
register_file_size 288
decode_latency 1
dispatch_latency 1
schedule_latency 1
execute_latency 1
page_size 4096
block_size 64
core_0_itlb_set 16
core_0_itlb_way 4
core_0_itlb_rq_size 16
core_0_itlb_wq_size 16
core_0_itlb_pq_size 0
core_0_itlb_mshr_size 8
core_0_itlb_hit_latency 1
core_0_itlb_fill_latency 1
core_0_itlb_max_tag_check 2
core_0_itlb_max_fill 2
core_0_dtlb_set 16
core_0_dtlb_way 4
core_0_dtlb_rq_size 16
core_0_dtlb_wq_size 16
core_0_dtlb_pq_size 0
core_0_dtlb_mshr_size 8
core_0_dtlb_hit_latency 1
core_0_dtlb_fill_latency 1
core_0_dtlb_max_tag_check 2
core_0_dtlb_max_fill 2
core_0_stlb_set 128
core_0_stlb_way 12
core_0_stlb_rq_size 32
core_0_stlb_wq_size 32
core_0_stlb_pq_size 0
core_0_stlb_mshr_size 16
core_0_stlb_hit_latency 4
core_0_stlb_fill_latency 4
core_0_stlb_max_tag_check 1
core_0_stlb_max_fill 1
core_0_l1i_set 64
core_0_l1i_way 8
core_0_l1i_rq_size 64
core_0_l1i_wq_size 64
core_0_l1i_pq_size 32
core_0_l1i_mshr_size 8
core_0_l1i_hit_latency 2
core_0_l1i_fill_latency 2
core_0_l1i_max_tag_check 2
core_0_l1i_max_fill 2
core_0_l1d_set 64
core_0_l1d_way 12
core_0_l1d_rq_size 64
core_0_l1d_wq_size 64
core_0_l1d_pq_size 8
core_0_l1d_mshr_size 16
core_0_l1d_hit_latency 2
core_0_l1d_fill_latency 3
core_0_l1d_max_tag_check 2
core_0_l1d_max_fill 2
core_0_l2c_set 1024
core_0_l2c_way 8
core_0_l2c_rq_size 32
core_0_l2c_wq_size 32
core_0_l2c_pq_size 16
core_0_l2c_mshr_size 32
core_0_l2c_hit_latency 5
core_0_l2c_fill_latency 5
core_0_l2c_max_tag_check 1
core_0_l2c_max_fill 1
llc_set 2048
llc_way 16
llc_rq_size 32
llc_wq_size 32
llc_pq_size 32
llc_mshr_size 64
llc_hit_latency 10
llc_fill_latency 10
llc_max_tag_check 1
llc_max_fill 1
dram_channels 1
dram_ranks 1
dram_bankgroups 8
dram_banks 4
dram_rows 65536
dram_columns 1024
dram_channel_width 8
dram_rq_size 64
dram_wq_size 64
dram_size 17179869184
core_0_itlb_prefetcher no
core_0_dtlb_prefetcher no
core_0_stlb_prefetcher no
core_0_l1i_prefetcher no
core_0_l1d_prefetcher no
core_0_l2c_prefetcher no
llc_prefetcher no
llc_replacement drrip

Core_0_instructions 50000005
Core_0_cycles 31131191
Core_0_IPC 1.60611
Core_0_branch_prediction_accuracy 100
Core_0_branch_MPKI 0
Core_0_average_ROB_occupancy_at_mispredict 0

Core_0_ITLB_total_access 6473051
Core_0_ITLB_total_hit 6473051
Core_0_ITLB_total_miss 0
Core_0_ITLB_total_MPKI 0
Core_0_ITLB_total_miss_rate 0
Core_0_ITLB_demand_access 6473051
Core_0_ITLB_demand_hit 6473051
Core_0_ITLB_demand_miss 0
Core_0_ITLB_demand_MPKI 0
Core_0_ITLB_demand_miss_rate 0
Core_0_ITLB_load_access 6473051
Core_0_ITLB_load_hit 6473051
Core_0_ITLB_load_miss 0
Core_0_ITLB_load_MPKI 0
Core_0_ITLB_load_miss_rate 0
Core_0_ITLB_rfo_access 0
Core_0_ITLB_rfo_hit 0
Core_0_ITLB_rfo_miss 0
Core_0_ITLB_rfo_MPKI 0
Core_0_ITLB_rfo_miss_rate 0
Core_0_ITLB_prefetch_access 0
Core_0_ITLB_prefetch_hit 0
Core_0_ITLB_prefetch_miss 0
Core_0_ITLB_prefetch_MPKI 0
Core_0_ITLB_prefetch_miss_rate 0
Core_0_ITLB_writeback_access 0
Core_0_ITLB_writeback_hit 0
Core_0_ITLB_writeback_miss 0
Core_0_ITLB_writeback_MPKI 0
Core_0_ITLB_writeback_miss_rate 0
Core_0_ITLB_prefetch_requested 0
Core_0_ITLB_prefetch_issued 0
Core_0_ITLB_prefetch_useful 0
Core_0_ITLB_prefetch_useless 0
Core_0_ITLB_prefetch_late 0
Core_0_ITLB_prefetch_accuracy 0
Core_0_ITLB_prefetch_coverage 0

Core_0_DTLB_total_access 10727260
Core_0_DTLB_total_hit 10710163
Core_0_DTLB_total_miss 17097
Core_0_DTLB_total_MPKI 0.34194
Core_0_DTLB_total_miss_rate 0.00159379
Core_0_DTLB_demand_access 10727260
Core_0_DTLB_demand_hit 10710163
Core_0_DTLB_demand_miss 17097
Core_0_DTLB_demand_MPKI 0.34194
Core_0_DTLB_demand_miss_rate 0.00159379
Core_0_DTLB_load_access 10727260
Core_0_DTLB_load_hit 10710163
Core_0_DTLB_load_miss 17097
Core_0_DTLB_load_MPKI 0.34194
Core_0_DTLB_load_miss_rate 0.00159379
Core_0_DTLB_rfo_access 0
Core_0_DTLB_rfo_hit 0
Core_0_DTLB_rfo_miss 0
Core_0_DTLB_rfo_MPKI 0
Core_0_DTLB_rfo_miss_rate 0
Core_0_DTLB_prefetch_access 0
Core_0_DTLB_prefetch_hit 0
Core_0_DTLB_prefetch_miss 0
Core_0_DTLB_prefetch_MPKI 0
Core_0_DTLB_prefetch_miss_rate 0
Core_0_DTLB_writeback_access 0
Core_0_DTLB_writeback_hit 0
Core_0_DTLB_writeback_miss 0
Core_0_DTLB_writeback_MPKI 0
Core_0_DTLB_writeback_miss_rate 0
Core_0_DTLB_prefetch_requested 0
Core_0_DTLB_prefetch_issued 0
Core_0_DTLB_prefetch_useful 0
Core_0_DTLB_prefetch_useless 0
Core_0_DTLB_prefetch_late 0
Core_0_DTLB_prefetch_accuracy 0
Core_0_DTLB_prefetch_coverage 0

Core_0_STLB_total_access 7248
Core_0_STLB_total_hit 4285
Core_0_STLB_total_miss 2963
Core_0_STLB_total_MPKI 0.05926
Core_0_STLB_total_miss_rate 0.408802
Core_0_STLB_demand_access 7248
Core_0_STLB_demand_hit 4285
Core_0_STLB_demand_miss 2963
Core_0_STLB_demand_MPKI 0.05926
Core_0_STLB_demand_miss_rate 0.408802
Core_0_STLB_load_access 7248
Core_0_STLB_load_hit 4285
Core_0_STLB_load_miss 2963
Core_0_STLB_load_MPKI 0.05926
Core_0_STLB_load_miss_rate 0.408802
Core_0_STLB_rfo_access 0
Core_0_STLB_rfo_hit 0
Core_0_STLB_rfo_miss 0
Core_0_STLB_rfo_MPKI 0
Core_0_STLB_rfo_miss_rate 0
Core_0_STLB_prefetch_access 0
Core_0_STLB_prefetch_hit 0
Core_0_STLB_prefetch_miss 0
Core_0_STLB_prefetch_MPKI 0
Core_0_STLB_prefetch_miss_rate 0
Core_0_STLB_writeback_access 0
Core_0_STLB_writeback_hit 0
Core_0_STLB_writeback_miss 0
Core_0_STLB_writeback_MPKI 0
Core_0_STLB_writeback_miss_rate 0
Core_0_STLB_prefetch_requested 0
Core_0_STLB_prefetch_issued 0
Core_0_STLB_prefetch_useful 0
Core_0_STLB_prefetch_useless 0
Core_0_STLB_prefetch_late 0
Core_0_STLB_prefetch_accuracy 0
Core_0_STLB_prefetch_coverage 0

Core_0_L1I_total_access 8390938
Core_0_L1I_total_hit 8390938
Core_0_L1I_total_miss 0
Core_0_L1I_total_MPKI 0
Core_0_L1I_total_miss_rate 0
Core_0_L1I_demand_access 8390938
Core_0_L1I_demand_hit 8390938
Core_0_L1I_demand_miss 0
Core_0_L1I_demand_MPKI 0
Core_0_L1I_demand_miss_rate 0
Core_0_L1I_load_access 8390938
Core_0_L1I_load_hit 8390938
Core_0_L1I_load_miss 0
Core_0_L1I_load_MPKI 0
Core_0_L1I_load_miss_rate 0
Core_0_L1I_rfo_access 0
Core_0_L1I_rfo_hit 0
Core_0_L1I_rfo_miss 0
Core_0_L1I_rfo_MPKI 0
Core_0_L1I_rfo_miss_rate 0
Core_0_L1I_prefetch_access 0
Core_0_L1I_prefetch_hit 0
Core_0_L1I_prefetch_miss 0
Core_0_L1I_prefetch_MPKI 0
Core_0_L1I_prefetch_miss_rate 0
Core_0_L1I_writeback_access 0
Core_0_L1I_writeback_hit 0
Core_0_L1I_writeback_miss 0
Core_0_L1I_writeback_MPKI 0
Core_0_L1I_writeback_miss_rate 0
Core_0_L1I_prefetch_requested 0
Core_0_L1I_prefetch_issued 0
Core_0_L1I_prefetch_useful 0
Core_0_L1I_prefetch_useless 0
Core_0_L1I_prefetch_late 0
Core_0_L1I_prefetch_accuracy 0
Core_0_L1I_prefetch_coverage 0

Core_0_L1D_total_access 12110260
Core_0_L1D_total_hit 11237807
Core_0_L1D_total_miss 872453
Core_0_L1D_total_MPKI 17.4491
Core_0_L1D_total_miss_rate 0.0720425
Core_0_L1D_demand_access 3895977
Core_0_L1D_demand_hit 3519548
Core_0_L1D_demand_miss 376429
Core_0_L1D_demand_MPKI 7.52858
Core_0_L1D_demand_miss_rate 0.0966199
Core_0_L1D_load_access 3895977
Core_0_L1D_load_hit 3519548
Core_0_L1D_load_miss 376429
Core_0_L1D_load_MPKI 7.52858
Core_0_L1D_load_miss_rate 0.0966199
Core_0_L1D_rfo_access 0
Core_0_L1D_rfo_hit 0
Core_0_L1D_rfo_miss 0
Core_0_L1D_rfo_MPKI 0
Core_0_L1D_rfo_miss_rate 0
Core_0_L1D_prefetch_access 0
Core_0_L1D_prefetch_hit 0
Core_0_L1D_prefetch_miss 0
Core_0_L1D_prefetch_MPKI 0
Core_0_L1D_prefetch_miss_rate 0
Core_0_L1D_writeback_access 8214283
Core_0_L1D_writeback_hit 7718259
Core_0_L1D_writeback_miss 496024
Core_0_L1D_writeback_MPKI 9.92048
Core_0_L1D_writeback_miss_rate 0.0603856
Core_0_L1D_prefetch_requested 0
Core_0_L1D_prefetch_issued 0
Core_0_L1D_prefetch_useful 0
Core_0_L1D_prefetch_useless 0
Core_0_L1D_prefetch_late 0
Core_0_L1D_prefetch_accuracy 0
Core_0_L1D_prefetch_coverage 0

Core_0_L2C_total_access 374825
Core_0_L2C_total_hit 178756
Core_0_L2C_total_miss 196069
Core_0_L2C_total_MPKI 3.92138
Core_0_L2C_total_miss_rate 0.523095
Core_0_L2C_demand_access 284719
Core_0_L2C_demand_hit 88650
Core_0_L2C_demand_miss 196069
Core_0_L2C_demand_MPKI 3.92138
Core_0_L2C_demand_miss_rate 0.68864
Core_0_L2C_load_access 194664
Core_0_L2C_load_hit 87880
Core_0_L2C_load_miss 106784
Core_0_L2C_load_MPKI 2.13568
Core_0_L2C_load_miss_rate 0.548555
Core_0_L2C_rfo_access 90055
Core_0_L2C_rfo_hit 770
Core_0_L2C_rfo_miss 89285
Core_0_L2C_rfo_MPKI 1.7857
Core_0_L2C_rfo_miss_rate 0.99145
Core_0_L2C_prefetch_access 0
Core_0_L2C_prefetch_hit 0
Core_0_L2C_prefetch_miss 0
Core_0_L2C_prefetch_MPKI 0
Core_0_L2C_prefetch_miss_rate 0
Core_0_L2C_writeback_access 90106
Core_0_L2C_writeback_hit 90106
Core_0_L2C_writeback_miss 0
Core_0_L2C_writeback_MPKI 0
Core_0_L2C_writeback_miss_rate 0
Core_0_L2C_prefetch_requested 0
Core_0_L2C_prefetch_issued 0
Core_0_L2C_prefetch_useful 0
Core_0_L2C_prefetch_useless 0
Core_0_L2C_prefetch_late 0
Core_0_L2C_prefetch_accuracy 0
Core_0_L2C_prefetch_coverage 0

Core_0_LLC_total_access 285305
Core_0_LLC_total_hit 83937
Core_0_LLC_total_miss 201368
Core_0_LLC_total_MPKI 4.02736
Core_0_LLC_total_miss_rate 0.705799
Core_0_LLC_demand_access 196069
Core_0_LLC_demand_hit 5500
Core_0_LLC_demand_miss 190569
Core_0_LLC_demand_MPKI 3.81138
Core_0_LLC_demand_miss_rate 0.971949
Core_0_LLC_load_access 106784
Core_0_LLC_load_hit 5500
Core_0_LLC_load_miss 101284
Core_0_LLC_load_MPKI 2.02568
Core_0_LLC_load_miss_rate 0.948494
Core_0_LLC_rfo_access 89285
Core_0_LLC_rfo_hit 0
Core_0_LLC_rfo_miss 89285
Core_0_LLC_rfo_MPKI 1.7857
Core_0_LLC_rfo_miss_rate 1
Core_0_LLC_prefetch_access 0
Core_0_LLC_prefetch_hit 0
Core_0_LLC_prefetch_miss 0
Core_0_LLC_prefetch_MPKI 0
Core_0_LLC_prefetch_miss_rate 0
Core_0_LLC_writeback_access 89236
Core_0_LLC_writeback_hit 78437
Core_0_LLC_writeback_miss 10799
Core_0_LLC_writeback_MPKI 0.21598
Core_0_LLC_writeback_miss_rate 0.121016
Core_0_LLC_prefetch_requested 0
Core_0_LLC_prefetch_issued 0
Core_0_LLC_prefetch_useful 0
Core_0_LLC_prefetch_useless 0
Core_0_LLC_prefetch_late 0
Core_0_LLC_prefetch_accuracy 0
Core_0_LLC_prefetch_coverage 0

[DRAM Statistics]
Channel_0_RQ_row_buffer_hit 92
Channel_0_RQ_row_buffer_miss 190853
Channel_0_WQ_row_buffer_hit 34822
Channel_0_WQ_row_buffer_miss 53360
Channel_0_WQ_full 0
Channel_0_dbus_congested 911113
DRAM_total_RQ_row_buffer_hit 92
DRAM_total_RQ_row_buffer_miss 190853
DRAM_total_WQ_row_buffer_hit 34822
DRAM_total_WQ_row_buffer_miss 53360
DRAM_total_WQ_full 0
DRAM_total_dbus_congested 911113
DRAM_avg_congested_cycle 11.1965

====== DRAM_RQ_TRAFFIC ========
DRAM_RQ_READ_TRAFFIC_BREAKDOWN:
data_demand_read.count = 190569
data_demand_read.share = 99.80%

inst_demand_read.count = 0
inst_demand_read.share = 0.00%

cache_inst_prefetch.count = 0
cache_inst_prefetch.share = 0.00%

cache_data_prefetch.count = 0
cache_data_prefetch.share = 0.00%

stlb_data_demand.count = 376
stlb_data_demand.share = 0.20%

stlb_inst_demand.count = 0
stlb_inst_demand.share = 0.00%

stlb_l1i_pref.count = 0
stlb_l1i_pref.share = 0.00%

stlb_l1d_pref.count = 0
stlb_l1d_pref.share = 0.00%

DRAM_RQ_READ_TRAFFIC_SUMMARY:
cache_demand.count = 190569
cache_demand.share = 99.80%

cache_prefetch.count = 0
cache_prefetch.share = 0.00%

stlb_demand.count = 376
stlb_demand.share = 0.20%

stlb_prefetch.count = 0
stlb_prefetch.share = 0.00%

DRAM_RQ_READ_TRAFFIC_DEBUG:
total_classified_read.count = 190945
unclassified_read.count = 0
total_read_with_other.count = 190945

classified_plus_unclassified_check.count = 190945
dram_rq_read_total_observed.count = 190945
dram_rq_read_total_observed.per_1K_instructions = 3.8189

STLB_MISS_PTW_DRAM_TOUCH_BREAKDOWN:
stlb_miss_total.count = 2963

stlb_miss_touch_dram.count = 371
stlb_miss_touch_dram.share = 12.52%

stlb_miss_no_dram_touch.count = 2592
stlb_miss_no_dram_touch.share = 87.48%

STLB_MISS_PTW_DRAM_TOUCH_DEBUG:
stlb_miss_touch_plus_no_touch.count = 2963
stlb_miss_total_check.count = 2963

======STLB miss causes ========
Core_0_STLB_miss_cause_breakdown
Core_0_STLB_cause_Demand_Data_miss 2963
Core_0_STLB_cause_Demand_Data_miss_rate 0.408802
Core_0_STLB_cause_Demand_Instruction_miss 0
Core_0_STLB_cause_Demand_Instruction_miss_rate 0
Core_0_STLB_cause_L1D_Prefetch_miss 0
Core_0_STLB_cause_L1D_Prefetch_miss_rate 0
Core_0_STLB_cause_L1I_Prefetch_miss 0
Core_0_STLB_cause_L1I_Prefetch_miss_rate 0
Core_0_STLB_cause_Other_miss 0
Core_0_STLB_cause_Other_miss_rate 0
Core_0_STLB_Demand_miss 2963
Core_0_STLB_Demand_miss_rate 0.408802
Core_0_STLB_L1D_Prefetch_miss 0
Core_0_STLB_L1D_Prefetch_miss_rate 0
Core_0_STLB_Other_miss 0
Core_0_STLB_Other_miss_rate 0
