[VMEM] WARNING: physical memory size is smaller than virtual memory size.

*** ChampSim Multicore Out-of-Order Simulator ***
Warmup Instructions: 20000000
Simulation Instructions: 50000000
Number of CPUs: 1
Page size: 4096
Core 0: /data2/zcq/gap_dpc/pr-5.trace.gz
Off-chip DRAM Size: 16 GiB Channels: 1 Width: 64-bit Data Rate: 3205 MT/s
Warmup halting CPU 0 at instruction 20000000 cycle 5018269 for remainder of phase
Warmup finished CPU 0 instructions: 20000000 cycles: 5018269 cumulative IPC: 3.985 (Simulation time: 00 hr 01 min 08 sec)
Warmup complete CPU 0 instructions: 20000000 cycles: 5018269 cumulative IPC: 3.985 (Simulation time: 00 hr 01 min 08 sec)
Simulation finished CPU 0 instructions: 50000002 cycles: 564602075 cumulative IPC: 0.08856 (Simulation time: 00 hr 47 min 57 sec)
Simulation complete CPU 0 instructions: 50000002 cycles: 564602075 cumulative IPC: 0.08856 (Simulation time: 00 hr 47 min 57 sec)

ChampSim completed all CPUs

=== Simulation ===
CPU 0 runs /data2/zcq/gap_dpc/pr-5.trace.gz

Region of Interest Statistics

CPU 0 cumulative IPC: 0.08856 instructions: 50000002 cycles: 564602075
CPU 0 Branch Prediction Accuracy: 96.86% MPKI: 5.992 Average ROB Occupancy at Mispredict: 259.9
Branch type MPKI
BRANCH_DIRECT_JUMP: 0
BRANCH_INDIRECT: 0
BRANCH_CONDITIONAL: 5.992
BRANCH_DIRECT_CALL: 0
BRANCH_INDIRECT_CALL: 0
BRANCH_RETURN: 0

cpu0->cpu0_STLB TOTAL        ACCESS:    6059079 HIT:    6049468 MISS:       9611 MSHR_MERGE:          0
cpu0->cpu0_STLB LOAD         ACCESS:    6059079 HIT:    6049468 MISS:       9611 MSHR_MERGE:          0
cpu0->cpu0_STLB RFO          ACCESS:          0 HIT:          0 MISS:          0 MSHR_MERGE:          0
cpu0->cpu0_STLB PREFETCH     ACCESS:          0 HIT:          0 MISS:          0 MSHR_MERGE:          0
cpu0->cpu0_STLB WRITE        ACCESS:          0 HIT:          0 MISS:          0 MSHR_MERGE:          0
cpu0->cpu0_STLB TRANSLATION  ACCESS:          0 HIT:          0 MISS:          0 MSHR_MERGE:          0
cpu0->cpu0_STLB PREFETCH REQUESTED:          0 ISSUED:          0 USEFUL:          0 USELESS:          0 LATE:          0
cpu0->cpu0_STLB AVERAGE MISS LATENCY: 233.3 cycles
cpu0->cpu0_L2C TOTAL        ACCESS:    9101647 HIT:    2602802 MISS:    6498845 MSHR_MERGE:          0
cpu0->cpu0_L2C LOAD         ACCESS:    9070311 HIT:    2573427 MISS:    6496884 MSHR_MERGE:          0
cpu0->cpu0_L2C RFO          ACCESS:          0 HIT:          0 MISS:          0 MSHR_MERGE:          0
cpu0->cpu0_L2C PREFETCH     ACCESS:          0 HIT:          0 MISS:          0 MSHR_MERGE:          0
cpu0->cpu0_L2C WRITE        ACCESS:      22395 HIT:      22295 MISS:        100 MSHR_MERGE:          0
cpu0->cpu0_L2C TRANSLATION  ACCESS:       8941 HIT:       7080 MISS:       1861 MSHR_MERGE:          0
cpu0->cpu0_L2C PREFETCH REQUESTED:          0 ISSUED:          0 USEFUL:          0 USELESS:          0 LATE:          0
cpu0->cpu0_L2C AVERAGE MISS LATENCY: 75.99 cycles
cpu0->cpu0_L1I TOTAL        ACCESS:    6804101 HIT:    6804101 MISS:          0 MSHR_MERGE:          0
cpu0->cpu0_L1I LOAD         ACCESS:    6804101 HIT:    6804101 MISS:          0 MSHR_MERGE:          0
cpu0->cpu0_L1I RFO          ACCESS:          0 HIT:          0 MISS:          0 MSHR_MERGE:          0
cpu0->cpu0_L1I PREFETCH     ACCESS:          0 HIT:          0 MISS:          0 MSHR_MERGE:          0
cpu0->cpu0_L1I WRITE        ACCESS:          0 HIT:          0 MISS:          0 MSHR_MERGE:          0
cpu0->cpu0_L1I TRANSLATION  ACCESS:          0 HIT:          0 MISS:          0 MSHR_MERGE:          0
cpu0->cpu0_L1I PREFETCH REQUESTED:          0 ISSUED:          0 USEFUL:          0 USELESS:          0 LATE:          0
cpu0->cpu0_L1I AVERAGE MISS LATENCY: - cycles
cpu0->cpu0_L1D TOTAL        ACCESS:   19781615 HIT:    8582100 MISS:   11199515 MSHR_MERGE:    2120264
cpu0->cpu0_L1D LOAD         ACCESS:   19163776 HIT:    7973202 MISS:   11190574 MSHR_MERGE:    2120264
cpu0->cpu0_L1D RFO          ACCESS:          0 HIT:          0 MISS:          0 MSHR_MERGE:          0
cpu0->cpu0_L1D PREFETCH     ACCESS:          0 HIT:          0 MISS:          0 MSHR_MERGE:          0
cpu0->cpu0_L1D WRITE        ACCESS:     598600 HIT:     598600 MISS:          0 MSHR_MERGE:          0
cpu0->cpu0_L1D TRANSLATION  ACCESS:      19239 HIT:      10298 MISS:       8941 MSHR_MERGE:          0
cpu0->cpu0_L1D PREFETCH REQUESTED:          0 ISSUED:          0 USEFUL:          0 USELESS:          0 LATE:          0
cpu0->cpu0_L1D AVERAGE MISS LATENCY: 63.11 cycles
cpu0->cpu0_ITLB TOTAL        ACCESS:    6804100 HIT:    6804100 MISS:          0 MSHR_MERGE:          0
cpu0->cpu0_ITLB LOAD         ACCESS:    6804100 HIT:    6804100 MISS:          0 MSHR_MERGE:          0
cpu0->cpu0_ITLB RFO          ACCESS:          0 HIT:          0 MISS:          0 MSHR_MERGE:          0
cpu0->cpu0_ITLB PREFETCH     ACCESS:          0 HIT:          0 MISS:          0 MSHR_MERGE:          0
cpu0->cpu0_ITLB WRITE        ACCESS:          0 HIT:          0 MISS:          0 MSHR_MERGE:          0
cpu0->cpu0_ITLB TRANSLATION  ACCESS:          0 HIT:          0 MISS:          0 MSHR_MERGE:          0
cpu0->cpu0_ITLB PREFETCH REQUESTED:          0 ISSUED:          0 USEFUL:          0 USELESS:          0 LATE:          0
cpu0->cpu0_ITLB AVERAGE MISS LATENCY: - cycles
cpu0->cpu0_DTLB TOTAL        ACCESS:   19623903 HIT:   13522583 MISS:    6101320 MSHR_MERGE:      42241
cpu0->cpu0_DTLB LOAD         ACCESS:   19623903 HIT:   13522583 MISS:    6101320 MSHR_MERGE:      42241
cpu0->cpu0_DTLB RFO          ACCESS:          0 HIT:          0 MISS:          0 MSHR_MERGE:          0
cpu0->cpu0_DTLB PREFETCH     ACCESS:          0 HIT:          0 MISS:          0 MSHR_MERGE:          0
cpu0->cpu0_DTLB WRITE        ACCESS:          0 HIT:          0 MISS:          0 MSHR_MERGE:          0
cpu0->cpu0_DTLB TRANSLATION  ACCESS:          0 HIT:          0 MISS:          0 MSHR_MERGE:          0
cpu0->cpu0_DTLB PREFETCH REQUESTED:          0 ISSUED:          0 USEFUL:          0 USELESS:          0 LATE:          0
cpu0->cpu0_DTLB AVERAGE MISS LATENCY: 5.372 cycles
cpu0->LLC TOTAL        ACCESS:    6517710 HIT:    4296720 MISS:    2220990 MSHR_MERGE:          0
cpu0->LLC LOAD         ACCESS:    6496884 HIT:    4288489 MISS:    2208395 MSHR_MERGE:          0
cpu0->LLC RFO          ACCESS:          0 HIT:          0 MISS:          0 MSHR_MERGE:          0
cpu0->LLC PREFETCH     ACCESS:          0 HIT:          0 MISS:          0 MSHR_MERGE:          0
cpu0->LLC WRITE        ACCESS:      18965 HIT:       7953 MISS:      11012 MSHR_MERGE:          0
cpu0->LLC TRANSLATION  ACCESS:       1861 HIT:        278 MISS:       1583 MSHR_MERGE:          0
cpu0->LLC PREFETCH REQUESTED:          0 ISSUED:          0 USEFUL:          0 USELESS:          0 LATE:          0
cpu0->LLC AVERAGE MISS LATENCY: 177.5 cycles

DRAM Statistics

Channel 0 RQ ROW_BUFFER_HIT:       9051
  ROW_BUFFER_MISS:    2200927
  AVG DBUS CONGESTED CYCLE: 15.36
Channel 0 WQ ROW_BUFFER_HIT:       5585
  ROW_BUFFER_MISS:      14612
  FULL:          0
Channel 0 REFRESHES ISSUED:      47050

[ROI Statistics]
[System Configuration]
num_cpus 1
cpu_freq 4000
fetch_width 6
decode_width 6
dispatch_width 6
execute_width 6
lq_width 2
sq_width 2
retire_width 6
scheduler_size 128
branch_mispredict_penalty 15
rob_size 352
lq_size 128
sq_size 72
ifetch_buffer_size 64
decode_buffer_size 32
dispatch_buffer_size 32
register_file_size 288
decode_latency 1
dispatch_latency 1
schedule_latency 1
execute_latency 1
page_size 4096
block_size 64
core_0_itlb_set 16
core_0_itlb_way 4
core_0_itlb_rq_size 16
core_0_itlb_wq_size 16
core_0_itlb_pq_size 0
core_0_itlb_mshr_size 8
core_0_itlb_hit_latency 1
core_0_itlb_fill_latency 1
core_0_itlb_max_tag_check 2
core_0_itlb_max_fill 2
core_0_dtlb_set 16
core_0_dtlb_way 4
core_0_dtlb_rq_size 16
core_0_dtlb_wq_size 16
core_0_dtlb_pq_size 0
core_0_dtlb_mshr_size 8
core_0_dtlb_hit_latency 1
core_0_dtlb_fill_latency 1
core_0_dtlb_max_tag_check 2
core_0_dtlb_max_fill 2
core_0_stlb_set 128
core_0_stlb_way 12
core_0_stlb_rq_size 32
core_0_stlb_wq_size 32
core_0_stlb_pq_size 0
core_0_stlb_mshr_size 16
core_0_stlb_hit_latency 4
core_0_stlb_fill_latency 4
core_0_stlb_max_tag_check 1
core_0_stlb_max_fill 1
core_0_l1i_set 64
core_0_l1i_way 8
core_0_l1i_rq_size 64
core_0_l1i_wq_size 64
core_0_l1i_pq_size 32
core_0_l1i_mshr_size 8
core_0_l1i_hit_latency 2
core_0_l1i_fill_latency 2
core_0_l1i_max_tag_check 2
core_0_l1i_max_fill 2
core_0_l1d_set 64
core_0_l1d_way 12
core_0_l1d_rq_size 64
core_0_l1d_wq_size 64
core_0_l1d_pq_size 8
core_0_l1d_mshr_size 16
core_0_l1d_hit_latency 2
core_0_l1d_fill_latency 3
core_0_l1d_max_tag_check 2
core_0_l1d_max_fill 2
core_0_l2c_set 1024
core_0_l2c_way 8
core_0_l2c_rq_size 32
core_0_l2c_wq_size 32
core_0_l2c_pq_size 16
core_0_l2c_mshr_size 32
core_0_l2c_hit_latency 5
core_0_l2c_fill_latency 5
core_0_l2c_max_tag_check 1
core_0_l2c_max_fill 1
llc_set 2048
llc_way 16
llc_rq_size 32
llc_wq_size 32
llc_pq_size 32
llc_mshr_size 64
llc_hit_latency 10
llc_fill_latency 10
llc_max_tag_check 1
llc_max_fill 1
dram_channels 1
dram_ranks 1
dram_bankgroups 8
dram_banks 4
dram_rows 65536
dram_columns 1024
dram_channel_width 8
dram_rq_size 64
dram_wq_size 64
dram_size 17179869184
core_0_itlb_prefetcher no
core_0_dtlb_prefetcher no
core_0_stlb_prefetcher no
core_0_l1i_prefetcher no
core_0_l1d_prefetcher no
core_0_l2c_prefetcher no
llc_prefetcher no
llc_replacement drrip

Core_0_instructions 50000002
Core_0_cycles 564602075
Core_0_IPC 0.0885579
Core_0_branch_prediction_accuracy 96.8608
Core_0_branch_MPKI 5.99216
Core_0_average_ROB_occupancy_at_mispredict 259.946

Core_0_ITLB_total_access 6804100
Core_0_ITLB_total_hit 6804100
Core_0_ITLB_total_miss 0
Core_0_ITLB_total_MPKI 0
Core_0_ITLB_total_miss_rate 0
Core_0_ITLB_demand_access 6804100
Core_0_ITLB_demand_hit 6804100
Core_0_ITLB_demand_miss 0
Core_0_ITLB_demand_MPKI 0
Core_0_ITLB_demand_miss_rate 0
Core_0_ITLB_load_access 6804100
Core_0_ITLB_load_hit 6804100
Core_0_ITLB_load_miss 0
Core_0_ITLB_load_MPKI 0
Core_0_ITLB_load_miss_rate 0
Core_0_ITLB_rfo_access 0
Core_0_ITLB_rfo_hit 0
Core_0_ITLB_rfo_miss 0
Core_0_ITLB_rfo_MPKI 0
Core_0_ITLB_rfo_miss_rate 0
Core_0_ITLB_prefetch_access 0
Core_0_ITLB_prefetch_hit 0
Core_0_ITLB_prefetch_miss 0
Core_0_ITLB_prefetch_MPKI 0
Core_0_ITLB_prefetch_miss_rate 0
Core_0_ITLB_writeback_access 0
Core_0_ITLB_writeback_hit 0
Core_0_ITLB_writeback_miss 0
Core_0_ITLB_writeback_MPKI 0
Core_0_ITLB_writeback_miss_rate 0
Core_0_ITLB_prefetch_requested 0
Core_0_ITLB_prefetch_issued 0
Core_0_ITLB_prefetch_useful 0
Core_0_ITLB_prefetch_useless 0
Core_0_ITLB_prefetch_late 0
Core_0_ITLB_prefetch_accuracy 0
Core_0_ITLB_prefetch_coverage 0

Core_0_DTLB_total_access 19623903
Core_0_DTLB_total_hit 13522583
Core_0_DTLB_total_miss 6101320
Core_0_DTLB_total_MPKI 122.026
Core_0_DTLB_total_miss_rate 0.310913
Core_0_DTLB_demand_access 19623903
Core_0_DTLB_demand_hit 13522583
Core_0_DTLB_demand_miss 6101320
Core_0_DTLB_demand_MPKI 122.026
Core_0_DTLB_demand_miss_rate 0.310913
Core_0_DTLB_load_access 19623903
Core_0_DTLB_load_hit 13522583
Core_0_DTLB_load_miss 6101320
Core_0_DTLB_load_MPKI 122.026
Core_0_DTLB_load_miss_rate 0.310913
Core_0_DTLB_rfo_access 0
Core_0_DTLB_rfo_hit 0
Core_0_DTLB_rfo_miss 0
Core_0_DTLB_rfo_MPKI 0
Core_0_DTLB_rfo_miss_rate 0
Core_0_DTLB_prefetch_access 0
Core_0_DTLB_prefetch_hit 0
Core_0_DTLB_prefetch_miss 0
Core_0_DTLB_prefetch_MPKI 0
Core_0_DTLB_prefetch_miss_rate 0
Core_0_DTLB_writeback_access 0
Core_0_DTLB_writeback_hit 0
Core_0_DTLB_writeback_miss 0
Core_0_DTLB_writeback_MPKI 0
Core_0_DTLB_writeback_miss_rate 0
Core_0_DTLB_prefetch_requested 0
Core_0_DTLB_prefetch_issued 0
Core_0_DTLB_prefetch_useful 0
Core_0_DTLB_prefetch_useless 0
Core_0_DTLB_prefetch_late 0
Core_0_DTLB_prefetch_accuracy 0
Core_0_DTLB_prefetch_coverage 0

Core_0_STLB_total_access 6059079
Core_0_STLB_total_hit 6049468
Core_0_STLB_total_miss 9611
Core_0_STLB_total_MPKI 0.19222
Core_0_STLB_total_miss_rate 0.00158621
Core_0_STLB_demand_access 6059079
Core_0_STLB_demand_hit 6049468
Core_0_STLB_demand_miss 9611
Core_0_STLB_demand_MPKI 0.19222
Core_0_STLB_demand_miss_rate 0.00158621
Core_0_STLB_load_access 6059079
Core_0_STLB_load_hit 6049468
Core_0_STLB_load_miss 9611
Core_0_STLB_load_MPKI 0.19222
Core_0_STLB_load_miss_rate 0.00158621
Core_0_STLB_rfo_access 0
Core_0_STLB_rfo_hit 0
Core_0_STLB_rfo_miss 0
Core_0_STLB_rfo_MPKI 0
Core_0_STLB_rfo_miss_rate 0
Core_0_STLB_prefetch_access 0
Core_0_STLB_prefetch_hit 0
Core_0_STLB_prefetch_miss 0
Core_0_STLB_prefetch_MPKI 0
Core_0_STLB_prefetch_miss_rate 0
Core_0_STLB_writeback_access 0
Core_0_STLB_writeback_hit 0
Core_0_STLB_writeback_miss 0
Core_0_STLB_writeback_MPKI 0
Core_0_STLB_writeback_miss_rate 0
Core_0_STLB_prefetch_requested 0
Core_0_STLB_prefetch_issued 0
Core_0_STLB_prefetch_useful 0
Core_0_STLB_prefetch_useless 0
Core_0_STLB_prefetch_late 0
Core_0_STLB_prefetch_accuracy 0
Core_0_STLB_prefetch_coverage 0

Core_0_L1I_total_access 6804101
Core_0_L1I_total_hit 6804101
Core_0_L1I_total_miss 0
Core_0_L1I_total_MPKI 0
Core_0_L1I_total_miss_rate 0
Core_0_L1I_demand_access 6804101
Core_0_L1I_demand_hit 6804101
Core_0_L1I_demand_miss 0
Core_0_L1I_demand_MPKI 0
Core_0_L1I_demand_miss_rate 0
Core_0_L1I_load_access 6804101
Core_0_L1I_load_hit 6804101
Core_0_L1I_load_miss 0
Core_0_L1I_load_MPKI 0
Core_0_L1I_load_miss_rate 0
Core_0_L1I_rfo_access 0
Core_0_L1I_rfo_hit 0
Core_0_L1I_rfo_miss 0
Core_0_L1I_rfo_MPKI 0
Core_0_L1I_rfo_miss_rate 0
Core_0_L1I_prefetch_access 0
Core_0_L1I_prefetch_hit 0
Core_0_L1I_prefetch_miss 0
Core_0_L1I_prefetch_MPKI 0
Core_0_L1I_prefetch_miss_rate 0
Core_0_L1I_writeback_access 0
Core_0_L1I_writeback_hit 0
Core_0_L1I_writeback_miss 0
Core_0_L1I_writeback_MPKI 0
Core_0_L1I_writeback_miss_rate 0
Core_0_L1I_prefetch_requested 0
Core_0_L1I_prefetch_issued 0
Core_0_L1I_prefetch_useful 0
Core_0_L1I_prefetch_useless 0
Core_0_L1I_prefetch_late 0
Core_0_L1I_prefetch_accuracy 0
Core_0_L1I_prefetch_coverage 0

Core_0_L1D_total_access 19762376
Core_0_L1D_total_hit 8571802
Core_0_L1D_total_miss 11190574
Core_0_L1D_total_MPKI 223.811
Core_0_L1D_total_miss_rate 0.566257
Core_0_L1D_demand_access 19163776
Core_0_L1D_demand_hit 7973202
Core_0_L1D_demand_miss 11190574
Core_0_L1D_demand_MPKI 223.811
Core_0_L1D_demand_miss_rate 0.583944
Core_0_L1D_load_access 19163776
Core_0_L1D_load_hit 7973202
Core_0_L1D_load_miss 11190574
Core_0_L1D_load_MPKI 223.811
Core_0_L1D_load_miss_rate 0.583944
Core_0_L1D_rfo_access 0
Core_0_L1D_rfo_hit 0
Core_0_L1D_rfo_miss 0
Core_0_L1D_rfo_MPKI 0
Core_0_L1D_rfo_miss_rate 0
Core_0_L1D_prefetch_access 0
Core_0_L1D_prefetch_hit 0
Core_0_L1D_prefetch_miss 0
Core_0_L1D_prefetch_MPKI 0
Core_0_L1D_prefetch_miss_rate 0
Core_0_L1D_writeback_access 598600
Core_0_L1D_writeback_hit 598600
Core_0_L1D_writeback_miss 0
Core_0_L1D_writeback_MPKI 0
Core_0_L1D_writeback_miss_rate 0
Core_0_L1D_prefetch_requested 0
Core_0_L1D_prefetch_issued 0
Core_0_L1D_prefetch_useful 0
Core_0_L1D_prefetch_useless 0
Core_0_L1D_prefetch_late 0
Core_0_L1D_prefetch_accuracy 0
Core_0_L1D_prefetch_coverage 0

Core_0_L2C_total_access 9092706
Core_0_L2C_total_hit 2595722
Core_0_L2C_total_miss 6496984
Core_0_L2C_total_MPKI 129.94
Core_0_L2C_total_miss_rate 0.714527
Core_0_L2C_demand_access 9070311
Core_0_L2C_demand_hit 2573427
Core_0_L2C_demand_miss 6496884
Core_0_L2C_demand_MPKI 129.938
Core_0_L2C_demand_miss_rate 0.71628
Core_0_L2C_load_access 9070311
Core_0_L2C_load_hit 2573427
Core_0_L2C_load_miss 6496884
Core_0_L2C_load_MPKI 129.938
Core_0_L2C_load_miss_rate 0.71628
Core_0_L2C_rfo_access 0
Core_0_L2C_rfo_hit 0
Core_0_L2C_rfo_miss 0
Core_0_L2C_rfo_MPKI 0
Core_0_L2C_rfo_miss_rate 0
Core_0_L2C_prefetch_access 0
Core_0_L2C_prefetch_hit 0
Core_0_L2C_prefetch_miss 0
Core_0_L2C_prefetch_MPKI 0
Core_0_L2C_prefetch_miss_rate 0
Core_0_L2C_writeback_access 22395
Core_0_L2C_writeback_hit 22295
Core_0_L2C_writeback_miss 100
Core_0_L2C_writeback_MPKI 0.002
Core_0_L2C_writeback_miss_rate 0.00446528
Core_0_L2C_prefetch_requested 0
Core_0_L2C_prefetch_issued 0
Core_0_L2C_prefetch_useful 0
Core_0_L2C_prefetch_useless 0
Core_0_L2C_prefetch_late 0
Core_0_L2C_prefetch_accuracy 0
Core_0_L2C_prefetch_coverage 0

Core_0_LLC_total_access 6515849
Core_0_LLC_total_hit 4296442
Core_0_LLC_total_miss 2219407
Core_0_LLC_total_MPKI 44.3881
Core_0_LLC_total_miss_rate 0.340617
Core_0_LLC_demand_access 6496884
Core_0_LLC_demand_hit 4288489
Core_0_LLC_demand_miss 2208395
Core_0_LLC_demand_MPKI 44.1679
Core_0_LLC_demand_miss_rate 0.339916
Core_0_LLC_load_access 6496884
Core_0_LLC_load_hit 4288489
Core_0_LLC_load_miss 2208395
Core_0_LLC_load_MPKI 44.1679
Core_0_LLC_load_miss_rate 0.339916
Core_0_LLC_rfo_access 0
Core_0_LLC_rfo_hit 0
Core_0_LLC_rfo_miss 0
Core_0_LLC_rfo_MPKI 0
Core_0_LLC_rfo_miss_rate 0
Core_0_LLC_prefetch_access 0
Core_0_LLC_prefetch_hit 0
Core_0_LLC_prefetch_miss 0
Core_0_LLC_prefetch_MPKI 0
Core_0_LLC_prefetch_miss_rate 0
Core_0_LLC_writeback_access 18965
Core_0_LLC_writeback_hit 7953
Core_0_LLC_writeback_miss 11012
Core_0_LLC_writeback_MPKI 0.22024
Core_0_LLC_writeback_miss_rate 0.580649
Core_0_LLC_prefetch_requested 0
Core_0_LLC_prefetch_issued 0
Core_0_LLC_prefetch_useful 0
Core_0_LLC_prefetch_useless 0
Core_0_LLC_prefetch_late 0
Core_0_LLC_prefetch_accuracy 0
Core_0_LLC_prefetch_coverage 0

[DRAM Statistics]
Channel_0_RQ_row_buffer_hit 9051
Channel_0_RQ_row_buffer_miss 2200927
Channel_0_WQ_row_buffer_hit 5585
Channel_0_WQ_row_buffer_miss 14612
Channel_0_WQ_full 0
Channel_0_dbus_congested 539014
DRAM_total_RQ_row_buffer_hit 9051
DRAM_total_RQ_row_buffer_miss 2200927
DRAM_total_WQ_row_buffer_hit 5585
DRAM_total_WQ_row_buffer_miss 14612
DRAM_total_WQ_full 0
DRAM_total_dbus_congested 539014
DRAM_avg_congested_cycle 15.3617

====== DRAM_RQ_TRAFFIC ========
DRAM_RQ_READ_TRAFFIC_BREAKDOWN:
data_demand_read.count = 2208395
data_demand_read.share = 99.93%

inst_demand_read.count = 0
inst_demand_read.share = 0.00%

cache_inst_prefetch.count = 0
cache_inst_prefetch.share = 0.00%

cache_data_prefetch.count = 0
cache_data_prefetch.share = 0.00%

stlb_data_demand.count = 1583
stlb_data_demand.share = 0.07%

stlb_inst_demand.count = 0
stlb_inst_demand.share = 0.00%

stlb_l1i_pref.count = 0
stlb_l1i_pref.share = 0.00%

stlb_l1d_pref.count = 0
stlb_l1d_pref.share = 0.00%

DRAM_RQ_READ_TRAFFIC_SUMMARY:
cache_demand.count = 2208395
cache_demand.share = 99.93%

cache_prefetch.count = 0
cache_prefetch.share = 0.00%

stlb_demand.count = 1583
stlb_demand.share = 0.07%

stlb_prefetch.count = 0
stlb_prefetch.share = 0.00%

DRAM_RQ_READ_TRAFFIC_DEBUG:
total_classified_read.count = 2209978
unclassified_read.count = 0
total_read_with_other.count = 2209978

classified_plus_unclassified_check.count = 2209978
dram_rq_read_total_observed.count = 2209978
dram_rq_read_total_observed.per_1K_instructions = 44.1996

STLB_MISS_PTW_DRAM_TOUCH_BREAKDOWN:
stlb_miss_total.count = 9611

stlb_miss_touch_dram.count = 1566
stlb_miss_touch_dram.share = 16.29%

stlb_miss_no_dram_touch.count = 8045
stlb_miss_no_dram_touch.share = 83.71%

STLB_MISS_PTW_DRAM_TOUCH_DEBUG:
stlb_miss_touch_plus_no_touch.count = 9611
stlb_miss_total_check.count = 9611

======STLB miss causes ========
Core_0_STLB_miss_cause_breakdown
Core_0_STLB_cause_Demand_Data_miss 9611
Core_0_STLB_cause_Demand_Data_miss_rate 0.00158621
Core_0_STLB_cause_Demand_Instruction_miss 0
Core_0_STLB_cause_Demand_Instruction_miss_rate 0
Core_0_STLB_cause_L1D_Prefetch_miss 0
Core_0_STLB_cause_L1D_Prefetch_miss_rate 0
Core_0_STLB_cause_L1I_Prefetch_miss 0
Core_0_STLB_cause_L1I_Prefetch_miss_rate 0
Core_0_STLB_cause_Other_miss 0
Core_0_STLB_cause_Other_miss_rate 0
Core_0_STLB_Demand_miss 9611
Core_0_STLB_Demand_miss_rate 0.00158621
Core_0_STLB_L1D_Prefetch_miss 0
Core_0_STLB_L1D_Prefetch_miss_rate 0
Core_0_STLB_Other_miss 0
Core_0_STLB_Other_miss_rate 0
