[VMEM] WARNING: physical memory size is smaller than virtual memory size.

*** ChampSim Multicore Out-of-Order Simulator ***
Warmup Instructions: 20000000
Simulation Instructions: 50000000
Number of CPUs: 1
Page size: 4096
Core 0: /data0/tzh/champsim_traces/QMM/srv_6_new.xz
Off-chip DRAM Size: 16 GiB Channels: 1 Width: 64-bit Data Rate: 3205 MT/s
[BTB] WARNING: target of return is a lower address than the corresponding call. This is usually a problem with your trace.
[BTB] WARNING: target of return is a lower address than the corresponding call. This is usually a problem with your trace.
[BTB] WARNING: target of return is a lower address than the corresponding call. This is usually a problem with your trace.
[BTB] WARNING: target of return is a lower address than the corresponding call. This is usually a problem with your trace.
[BTB] WARNING: target of return is a lower address than the corresponding call. This is usually a problem with your trace.
[BTB] WARNING: target of return is a lower address than the corresponding call. This is usually a problem with your trace.
[BTB] WARNING: target of return is a lower address than the corresponding call. This is usually a problem with your trace.
[BTB] WARNING: target of return is a lower address than the corresponding call. This is usually a problem with your trace.
[BTB] WARNING: target of return is a lower address than the corresponding call. This is usually a problem with your trace.
[BTB] WARNING: target of return is a lower address than the corresponding call. This is usually a problem with your trace.
Warmup halting CPU 0 at instruction 20000003 cycle 4493791 for remainder of phase
Warmup finished CPU 0 instructions: 20000003 cycles: 4493791 cumulative IPC: 4.451 (Simulation time: 00 hr 01 min 00 sec)
Warmup complete CPU 0 instructions: 20000003 cycles: 4493791 cumulative IPC: 4.451 (Simulation time: 00 hr 01 min 00 sec)
*** Reached end of trace: (0, "/data0/tzh/champsim_traces/QMM/srv_6_new.xz")
*** Reached end of trace: (0, "/data0/tzh/champsim_traces/QMM/srv_6_new.xz")
Simulation finished CPU 0 instructions: 50000004 cycles: 27773470 cumulative IPC: 1.8 (Simulation time: 00 hr 05 min 02 sec)
Simulation complete CPU 0 instructions: 50000004 cycles: 27773470 cumulative IPC: 1.8 (Simulation time: 00 hr 05 min 02 sec)

ChampSim completed all CPUs

=== Simulation ===
CPU 0 runs /data0/tzh/champsim_traces/QMM/srv_6_new.xz

Region of Interest Statistics

CPU 0 cumulative IPC: 1.8 instructions: 50000004 cycles: 27773470
CPU 0 Branch Prediction Accuracy: 98.65% MPKI: 2.406 Average ROB Occupancy at Mispredict: 143.2
Branch type MPKI
BRANCH_DIRECT_JUMP: 0.1469
BRANCH_INDIRECT: 0.1652
BRANCH_CONDITIONAL: 1.486
BRANCH_DIRECT_CALL: 0.2703
BRANCH_INDIRECT_CALL: 0.0796
BRANCH_RETURN: 0.2579

cpu0->cpu0_STLB TOTAL        ACCESS:     806073 HIT:     720580 MISS:      85493 MSHR_MERGE:          0
cpu0->cpu0_STLB LOAD         ACCESS:     806073 HIT:     720580 MISS:      85493 MSHR_MERGE:          0
cpu0->cpu0_STLB RFO          ACCESS:          0 HIT:          0 MISS:          0 MSHR_MERGE:          0
cpu0->cpu0_STLB PREFETCH     ACCESS:          0 HIT:          0 MISS:          0 MSHR_MERGE:          0
cpu0->cpu0_STLB WRITE        ACCESS:          0 HIT:          0 MISS:          0 MSHR_MERGE:          0
cpu0->cpu0_STLB TRANSLATION  ACCESS:          0 HIT:          0 MISS:          0 MSHR_MERGE:          0
cpu0->cpu0_STLB PREFETCH REQUESTED:          0 ISSUED:          0 USEFUL:          0 USELESS:          0 LATE:          0
cpu0->cpu0_STLB AVERAGE MISS LATENCY: 39.78 cycles
cpu0->cpu0_L2C TOTAL        ACCESS:    2222466 HIT:    1439323 MISS:     783143 MSHR_MERGE:          0
cpu0->cpu0_L2C LOAD         ACCESS:    1800179 HIT:    1107749 MISS:     692430 MSHR_MERGE:          0
cpu0->cpu0_L2C RFO          ACCESS:      82309 HIT:      40532 MISS:      41777 MSHR_MERGE:          0
cpu0->cpu0_L2C PREFETCH     ACCESS:          0 HIT:          0 MISS:          0 MSHR_MERGE:          0
cpu0->cpu0_L2C WRITE        ACCESS:     259538 HIT:     257861 MISS:       1677 MSHR_MERGE:          0
cpu0->cpu0_L2C TRANSLATION  ACCESS:      80440 HIT:      33181 MISS:      47259 MSHR_MERGE:          0
cpu0->cpu0_L2C PREFETCH REQUESTED:          0 ISSUED:          0 USEFUL:          0 USELESS:          0 LATE:          0
cpu0->cpu0_L2C AVERAGE MISS LATENCY: 33.73 cycles
cpu0->cpu0_L1I TOTAL        ACCESS:    7909294 HIT:    5873821 MISS:    2035473 MSHR_MERGE:     782046
cpu0->cpu0_L1I LOAD         ACCESS:    7909294 HIT:    5873821 MISS:    2035473 MSHR_MERGE:     782046
cpu0->cpu0_L1I RFO          ACCESS:          0 HIT:          0 MISS:          0 MSHR_MERGE:          0
cpu0->cpu0_L1I PREFETCH     ACCESS:          0 HIT:          0 MISS:          0 MSHR_MERGE:          0
cpu0->cpu0_L1I WRITE        ACCESS:          0 HIT:          0 MISS:          0 MSHR_MERGE:          0
cpu0->cpu0_L1I TRANSLATION  ACCESS:          0 HIT:          0 MISS:          0 MSHR_MERGE:          0
cpu0->cpu0_L1I PREFETCH REQUESTED:          0 ISSUED:          0 USEFUL:          0 USELESS:          0 LATE:          0
cpu0->cpu0_L1I AVERAGE MISS LATENCY: 13.81 cycles
cpu0->cpu0_L1D TOTAL        ACCESS:   11562462 HIT:   10505394 MISS:    1057068 MSHR_MERGE:     347559
cpu0->cpu0_L1D LOAD         ACCESS:    6391662 HIT:    5647476 MISS:     744186 MSHR_MERGE:     197426
cpu0->cpu0_L1D RFO          ACCESS:          0 HIT:          0 MISS:          0 MSHR_MERGE:          0
cpu0->cpu0_L1D PREFETCH     ACCESS:          0 HIT:          0 MISS:          0 MSHR_MERGE:          0
cpu0->cpu0_L1D WRITE        ACCESS:    4975014 HIT:    4744183 MISS:     230831 MSHR_MERGE:     148522
cpu0->cpu0_L1D TRANSLATION  ACCESS:     195786 HIT:     113735 MISS:      82051 MSHR_MERGE:       1611
cpu0->cpu0_L1D PREFETCH REQUESTED:          0 ISSUED:          0 USEFUL:          0 USELESS:          0 LATE:          0
cpu0->cpu0_L1D AVERAGE MISS LATENCY: 35.02 cycles
cpu0->cpu0_ITLB TOTAL        ACCESS:    6720890 HIT:    6227059 MISS:     493831 MSHR_MERGE:     305699
cpu0->cpu0_ITLB LOAD         ACCESS:    6720890 HIT:    6227059 MISS:     493831 MSHR_MERGE:     305699
cpu0->cpu0_ITLB RFO          ACCESS:          0 HIT:          0 MISS:          0 MSHR_MERGE:          0
cpu0->cpu0_ITLB PREFETCH     ACCESS:          0 HIT:          0 MISS:          0 MSHR_MERGE:          0
cpu0->cpu0_ITLB WRITE        ACCESS:          0 HIT:          0 MISS:          0 MSHR_MERGE:          0
cpu0->cpu0_ITLB TRANSLATION  ACCESS:          0 HIT:          0 MISS:          0 MSHR_MERGE:          0
cpu0->cpu0_ITLB PREFETCH REQUESTED:          0 ISSUED:          0 USEFUL:          0 USELESS:          0 LATE:          0
cpu0->cpu0_ITLB AVERAGE MISS LATENCY: 9.321 cycles
cpu0->cpu0_DTLB TOTAL        ACCESS:   10687289 HIT:    9846618 MISS:     840671 MSHR_MERGE:     222730
cpu0->cpu0_DTLB LOAD         ACCESS:   10687289 HIT:    9846618 MISS:     840671 MSHR_MERGE:     222730
cpu0->cpu0_DTLB RFO          ACCESS:          0 HIT:          0 MISS:          0 MSHR_MERGE:          0
cpu0->cpu0_DTLB PREFETCH     ACCESS:          0 HIT:          0 MISS:          0 MSHR_MERGE:          0
cpu0->cpu0_DTLB WRITE        ACCESS:          0 HIT:          0 MISS:          0 MSHR_MERGE:          0
cpu0->cpu0_DTLB TRANSLATION  ACCESS:          0 HIT:          0 MISS:          0 MSHR_MERGE:          0
cpu0->cpu0_DTLB PREFETCH REQUESTED:          0 ISSUED:          0 USEFUL:          0 USELESS:          0 LATE:          0
cpu0->cpu0_DTLB AVERAGE MISS LATENCY: 9.341 cycles
cpu0->LLC TOTAL        ACCESS:     915731 HIT:     835075 MISS:      80656 MSHR_MERGE:          0
cpu0->LLC LOAD         ACCESS:     692430 HIT:     629219 MISS:      63211 MSHR_MERGE:          0
cpu0->LLC RFO          ACCESS:      41777 HIT:      30023 MISS:      11754 MSHR_MERGE:          0
cpu0->LLC PREFETCH     ACCESS:          0 HIT:          0 MISS:          0 MSHR_MERGE:          0
cpu0->LLC WRITE        ACCESS:     134265 HIT:     131860 MISS:       2405 MSHR_MERGE:          0
cpu0->LLC TRANSLATION  ACCESS:      47259 HIT:      43973 MISS:       3286 MSHR_MERGE:          0
cpu0->LLC PREFETCH REQUESTED:          0 ISSUED:          0 USEFUL:          0 USELESS:          0 LATE:          0
cpu0->LLC AVERAGE MISS LATENCY: 181.2 cycles

DRAM Statistics

Channel 0 RQ ROW_BUFFER_HIT:       2809
  ROW_BUFFER_MISS:      75441
  AVG DBUS CONGESTED CYCLE: 16.44
Channel 0 WQ ROW_BUFFER_HIT:      11706
  ROW_BUFFER_MISS:      41651
  FULL:          0
Channel 0 REFRESHES ISSUED:       2314

[ROI Statistics]
[System Configuration]
num_cpus 1
cpu_freq 4000
fetch_width 6
decode_width 6
dispatch_width 6
execute_width 6
lq_width 2
sq_width 2
retire_width 6
scheduler_size 128
branch_mispredict_penalty 15
rob_size 352
lq_size 128
sq_size 72
ifetch_buffer_size 64
decode_buffer_size 32
dispatch_buffer_size 32
register_file_size 288
decode_latency 1
dispatch_latency 1
schedule_latency 1
execute_latency 1
page_size 4096
block_size 64
core_0_itlb_set 16
core_0_itlb_way 4
core_0_itlb_rq_size 16
core_0_itlb_wq_size 16
core_0_itlb_pq_size 0
core_0_itlb_mshr_size 8
core_0_itlb_hit_latency 1
core_0_itlb_fill_latency 1
core_0_itlb_max_tag_check 2
core_0_itlb_max_fill 2
core_0_dtlb_set 16
core_0_dtlb_way 4
core_0_dtlb_rq_size 16
core_0_dtlb_wq_size 16
core_0_dtlb_pq_size 0
core_0_dtlb_mshr_size 8
core_0_dtlb_hit_latency 1
core_0_dtlb_fill_latency 1
core_0_dtlb_max_tag_check 2
core_0_dtlb_max_fill 2
core_0_stlb_set 128
core_0_stlb_way 12
core_0_stlb_rq_size 32
core_0_stlb_wq_size 32
core_0_stlb_pq_size 0
core_0_stlb_mshr_size 16
core_0_stlb_hit_latency 4
core_0_stlb_fill_latency 4
core_0_stlb_max_tag_check 1
core_0_stlb_max_fill 1
core_0_l1i_set 64
core_0_l1i_way 8
core_0_l1i_rq_size 64
core_0_l1i_wq_size 64
core_0_l1i_pq_size 32
core_0_l1i_mshr_size 8
core_0_l1i_hit_latency 2
core_0_l1i_fill_latency 2
core_0_l1i_max_tag_check 2
core_0_l1i_max_fill 2
core_0_l1d_set 64
core_0_l1d_way 12
core_0_l1d_rq_size 64
core_0_l1d_wq_size 64
core_0_l1d_pq_size 8
core_0_l1d_mshr_size 16
core_0_l1d_hit_latency 2
core_0_l1d_fill_latency 3
core_0_l1d_max_tag_check 2
core_0_l1d_max_fill 2
core_0_l2c_set 1024
core_0_l2c_way 8
core_0_l2c_rq_size 32
core_0_l2c_wq_size 32
core_0_l2c_pq_size 16
core_0_l2c_mshr_size 32
core_0_l2c_hit_latency 5
core_0_l2c_fill_latency 5
core_0_l2c_max_tag_check 1
core_0_l2c_max_fill 1
llc_set 2048
llc_way 16
llc_rq_size 32
llc_wq_size 32
llc_pq_size 32
llc_mshr_size 64
llc_hit_latency 10
llc_fill_latency 10
llc_max_tag_check 1
llc_max_fill 1
dram_channels 1
dram_ranks 1
dram_bankgroups 8
dram_banks 4
dram_rows 65536
dram_columns 1024
dram_channel_width 8
dram_rq_size 64
dram_wq_size 64
dram_size 17179869184
core_0_itlb_prefetcher no
core_0_dtlb_prefetcher no
core_0_stlb_prefetcher no
core_0_l1i_prefetcher no
core_0_l1d_prefetcher no
core_0_l2c_prefetcher no
llc_prefetcher no
llc_replacement drrip

Core_0_instructions 50000004
Core_0_cycles 27773470
Core_0_IPC 1.80028
Core_0_branch_prediction_accuracy 98.6529
Core_0_branch_MPKI 2.40596
Core_0_average_ROB_occupancy_at_mispredict 143.242

Core_0_ITLB_total_access 6720890
Core_0_ITLB_total_hit 6227059
Core_0_ITLB_total_miss 493831
Core_0_ITLB_total_MPKI 9.87662
Core_0_ITLB_total_miss_rate 0.073477
Core_0_ITLB_demand_access 6720890
Core_0_ITLB_demand_hit 6227059
Core_0_ITLB_demand_miss 493831
Core_0_ITLB_demand_MPKI 9.87662
Core_0_ITLB_demand_miss_rate 0.073477
Core_0_ITLB_load_access 6720890
Core_0_ITLB_load_hit 6227059
Core_0_ITLB_load_miss 493831
Core_0_ITLB_load_MPKI 9.87662
Core_0_ITLB_load_miss_rate 0.073477
Core_0_ITLB_rfo_access 0
Core_0_ITLB_rfo_hit 0
Core_0_ITLB_rfo_miss 0
Core_0_ITLB_rfo_MPKI 0
Core_0_ITLB_rfo_miss_rate 0
Core_0_ITLB_prefetch_access 0
Core_0_ITLB_prefetch_hit 0
Core_0_ITLB_prefetch_miss 0
Core_0_ITLB_prefetch_MPKI 0
Core_0_ITLB_prefetch_miss_rate 0
Core_0_ITLB_writeback_access 0
Core_0_ITLB_writeback_hit 0
Core_0_ITLB_writeback_miss 0
Core_0_ITLB_writeback_MPKI 0
Core_0_ITLB_writeback_miss_rate 0
Core_0_ITLB_prefetch_requested 0
Core_0_ITLB_prefetch_issued 0
Core_0_ITLB_prefetch_useful 0
Core_0_ITLB_prefetch_useless 0
Core_0_ITLB_prefetch_late 0
Core_0_ITLB_prefetch_accuracy 0
Core_0_ITLB_prefetch_coverage 0

Core_0_DTLB_total_access 10687289
Core_0_DTLB_total_hit 9846618
Core_0_DTLB_total_miss 840671
Core_0_DTLB_total_MPKI 16.8134
Core_0_DTLB_total_miss_rate 0.0786608
Core_0_DTLB_demand_access 10687289
Core_0_DTLB_demand_hit 9846618
Core_0_DTLB_demand_miss 840671
Core_0_DTLB_demand_MPKI 16.8134
Core_0_DTLB_demand_miss_rate 0.0786608
Core_0_DTLB_load_access 10687289
Core_0_DTLB_load_hit 9846618
Core_0_DTLB_load_miss 840671
Core_0_DTLB_load_MPKI 16.8134
Core_0_DTLB_load_miss_rate 0.0786608
Core_0_DTLB_rfo_access 0
Core_0_DTLB_rfo_hit 0
Core_0_DTLB_rfo_miss 0
Core_0_DTLB_rfo_MPKI 0
Core_0_DTLB_rfo_miss_rate 0
Core_0_DTLB_prefetch_access 0
Core_0_DTLB_prefetch_hit 0
Core_0_DTLB_prefetch_miss 0
Core_0_DTLB_prefetch_MPKI 0
Core_0_DTLB_prefetch_miss_rate 0
Core_0_DTLB_writeback_access 0
Core_0_DTLB_writeback_hit 0
Core_0_DTLB_writeback_miss 0
Core_0_DTLB_writeback_MPKI 0
Core_0_DTLB_writeback_miss_rate 0
Core_0_DTLB_prefetch_requested 0
Core_0_DTLB_prefetch_issued 0
Core_0_DTLB_prefetch_useful 0
Core_0_DTLB_prefetch_useless 0
Core_0_DTLB_prefetch_late 0
Core_0_DTLB_prefetch_accuracy 0
Core_0_DTLB_prefetch_coverage 0

Core_0_STLB_total_access 806073
Core_0_STLB_total_hit 720580
Core_0_STLB_total_miss 85493
Core_0_STLB_total_MPKI 1.70986
Core_0_STLB_total_miss_rate 0.106061
Core_0_STLB_demand_access 806073
Core_0_STLB_demand_hit 720580
Core_0_STLB_demand_miss 85493
Core_0_STLB_demand_MPKI 1.70986
Core_0_STLB_demand_miss_rate 0.106061
Core_0_STLB_load_access 806073
Core_0_STLB_load_hit 720580
Core_0_STLB_load_miss 85493
Core_0_STLB_load_MPKI 1.70986
Core_0_STLB_load_miss_rate 0.106061
Core_0_STLB_rfo_access 0
Core_0_STLB_rfo_hit 0
Core_0_STLB_rfo_miss 0
Core_0_STLB_rfo_MPKI 0
Core_0_STLB_rfo_miss_rate 0
Core_0_STLB_prefetch_access 0
Core_0_STLB_prefetch_hit 0
Core_0_STLB_prefetch_miss 0
Core_0_STLB_prefetch_MPKI 0
Core_0_STLB_prefetch_miss_rate 0
Core_0_STLB_writeback_access 0
Core_0_STLB_writeback_hit 0
Core_0_STLB_writeback_miss 0
Core_0_STLB_writeback_MPKI 0
Core_0_STLB_writeback_miss_rate 0
Core_0_STLB_prefetch_requested 0
Core_0_STLB_prefetch_issued 0
Core_0_STLB_prefetch_useful 0
Core_0_STLB_prefetch_useless 0
Core_0_STLB_prefetch_late 0
Core_0_STLB_prefetch_accuracy 0
Core_0_STLB_prefetch_coverage 0

Core_0_L1I_total_access 7909294
Core_0_L1I_total_hit 5873821
Core_0_L1I_total_miss 2035473
Core_0_L1I_total_MPKI 40.7095
Core_0_L1I_total_miss_rate 0.257352
Core_0_L1I_demand_access 7909294
Core_0_L1I_demand_hit 5873821
Core_0_L1I_demand_miss 2035473
Core_0_L1I_demand_MPKI 40.7095
Core_0_L1I_demand_miss_rate 0.257352
Core_0_L1I_load_access 7909294
Core_0_L1I_load_hit 5873821
Core_0_L1I_load_miss 2035473
Core_0_L1I_load_MPKI 40.7095
Core_0_L1I_load_miss_rate 0.257352
Core_0_L1I_rfo_access 0
Core_0_L1I_rfo_hit 0
Core_0_L1I_rfo_miss 0
Core_0_L1I_rfo_MPKI 0
Core_0_L1I_rfo_miss_rate 0
Core_0_L1I_prefetch_access 0
Core_0_L1I_prefetch_hit 0
Core_0_L1I_prefetch_miss 0
Core_0_L1I_prefetch_MPKI 0
Core_0_L1I_prefetch_miss_rate 0
Core_0_L1I_writeback_access 0
Core_0_L1I_writeback_hit 0
Core_0_L1I_writeback_miss 0
Core_0_L1I_writeback_MPKI 0
Core_0_L1I_writeback_miss_rate 0
Core_0_L1I_prefetch_requested 0
Core_0_L1I_prefetch_issued 0
Core_0_L1I_prefetch_useful 0
Core_0_L1I_prefetch_useless 0
Core_0_L1I_prefetch_late 0
Core_0_L1I_prefetch_accuracy 0
Core_0_L1I_prefetch_coverage 0

Core_0_L1D_total_access 11366676
Core_0_L1D_total_hit 10391659
Core_0_L1D_total_miss 975017
Core_0_L1D_total_MPKI 19.5003
Core_0_L1D_total_miss_rate 0.0857786
Core_0_L1D_demand_access 6391662
Core_0_L1D_demand_hit 5647476
Core_0_L1D_demand_miss 744186
Core_0_L1D_demand_MPKI 14.8837
Core_0_L1D_demand_miss_rate 0.116431
Core_0_L1D_load_access 6391662
Core_0_L1D_load_hit 5647476
Core_0_L1D_load_miss 744186
Core_0_L1D_load_MPKI 14.8837
Core_0_L1D_load_miss_rate 0.116431
Core_0_L1D_rfo_access 0
Core_0_L1D_rfo_hit 0
Core_0_L1D_rfo_miss 0
Core_0_L1D_rfo_MPKI 0
Core_0_L1D_rfo_miss_rate 0
Core_0_L1D_prefetch_access 0
Core_0_L1D_prefetch_hit 0
Core_0_L1D_prefetch_miss 0
Core_0_L1D_prefetch_MPKI 0
Core_0_L1D_prefetch_miss_rate 0
Core_0_L1D_writeback_access 4975014
Core_0_L1D_writeback_hit 4744183
Core_0_L1D_writeback_miss 230831
Core_0_L1D_writeback_MPKI 4.61662
Core_0_L1D_writeback_miss_rate 0.0463981
Core_0_L1D_prefetch_requested 0
Core_0_L1D_prefetch_issued 0
Core_0_L1D_prefetch_useful 0
Core_0_L1D_prefetch_useless 0
Core_0_L1D_prefetch_late 0
Core_0_L1D_prefetch_accuracy 0
Core_0_L1D_prefetch_coverage 0

Core_0_L2C_total_access 2142026
Core_0_L2C_total_hit 1406142
Core_0_L2C_total_miss 735884
Core_0_L2C_total_MPKI 14.7177
Core_0_L2C_total_miss_rate 0.343546
Core_0_L2C_demand_access 1882488
Core_0_L2C_demand_hit 1148281
Core_0_L2C_demand_miss 734207
Core_0_L2C_demand_MPKI 14.6841
Core_0_L2C_demand_miss_rate 0.390019
Core_0_L2C_load_access 1800179
Core_0_L2C_load_hit 1107749
Core_0_L2C_load_miss 692430
Core_0_L2C_load_MPKI 13.8486
Core_0_L2C_load_miss_rate 0.384645
Core_0_L2C_rfo_access 82309
Core_0_L2C_rfo_hit 40532
Core_0_L2C_rfo_miss 41777
Core_0_L2C_rfo_MPKI 0.83554
Core_0_L2C_rfo_miss_rate 0.507563
Core_0_L2C_prefetch_access 0
Core_0_L2C_prefetch_hit 0
Core_0_L2C_prefetch_miss 0
Core_0_L2C_prefetch_MPKI 0
Core_0_L2C_prefetch_miss_rate 0
Core_0_L2C_writeback_access 259538
Core_0_L2C_writeback_hit 257861
Core_0_L2C_writeback_miss 1677
Core_0_L2C_writeback_MPKI 0.03354
Core_0_L2C_writeback_miss_rate 0.00646148
Core_0_L2C_prefetch_requested 0
Core_0_L2C_prefetch_issued 0
Core_0_L2C_prefetch_useful 0
Core_0_L2C_prefetch_useless 0
Core_0_L2C_prefetch_late 0
Core_0_L2C_prefetch_accuracy 0
Core_0_L2C_prefetch_coverage 0

Core_0_LLC_total_access 868472
Core_0_LLC_total_hit 791102
Core_0_LLC_total_miss 77370
Core_0_LLC_total_MPKI 1.5474
Core_0_LLC_total_miss_rate 0.0890875
Core_0_LLC_demand_access 734207
Core_0_LLC_demand_hit 659242
Core_0_LLC_demand_miss 74965
Core_0_LLC_demand_MPKI 1.4993
Core_0_LLC_demand_miss_rate 0.102103
Core_0_LLC_load_access 692430
Core_0_LLC_load_hit 629219
Core_0_LLC_load_miss 63211
Core_0_LLC_load_MPKI 1.26422
Core_0_LLC_load_miss_rate 0.0912887
Core_0_LLC_rfo_access 41777
Core_0_LLC_rfo_hit 30023
Core_0_LLC_rfo_miss 11754
Core_0_LLC_rfo_MPKI 0.23508
Core_0_LLC_rfo_miss_rate 0.281351
Core_0_LLC_prefetch_access 0
Core_0_LLC_prefetch_hit 0
Core_0_LLC_prefetch_miss 0
Core_0_LLC_prefetch_MPKI 0
Core_0_LLC_prefetch_miss_rate 0
Core_0_LLC_writeback_access 134265
Core_0_LLC_writeback_hit 131860
Core_0_LLC_writeback_miss 2405
Core_0_LLC_writeback_MPKI 0.0481
Core_0_LLC_writeback_miss_rate 0.0179123
Core_0_LLC_prefetch_requested 0
Core_0_LLC_prefetch_issued 0
Core_0_LLC_prefetch_useful 0
Core_0_LLC_prefetch_useless 0
Core_0_LLC_prefetch_late 0
Core_0_LLC_prefetch_accuracy 0
Core_0_LLC_prefetch_coverage 0

[DRAM Statistics]
Channel_0_RQ_row_buffer_hit 2809
Channel_0_RQ_row_buffer_miss 75441
Channel_0_WQ_row_buffer_hit 11706
Channel_0_WQ_row_buffer_miss 41651
Channel_0_WQ_full 0
Channel_0_dbus_congested 419495
DRAM_total_RQ_row_buffer_hit 2809
DRAM_total_RQ_row_buffer_miss 75441
DRAM_total_WQ_row_buffer_hit 11706
DRAM_total_WQ_row_buffer_miss 41651
DRAM_total_WQ_full 0
DRAM_total_dbus_congested 419495
DRAM_avg_congested_cycle 16.4421

====== DRAM_RQ_TRAFFIC ========
DRAM_RQ_READ_TRAFFIC_BREAKDOWN:
data_demand_read.count = 69150
data_demand_read.share = 88.37%

inst_demand_read.count = 5815
inst_demand_read.share = 7.43%

cache_inst_prefetch.count = 0
cache_inst_prefetch.share = 0.00%

cache_data_prefetch.count = 0
cache_data_prefetch.share = 0.00%

stlb_data_demand.count = 3188
stlb_data_demand.share = 4.07%

stlb_inst_demand.count = 98
stlb_inst_demand.share = 0.13%

stlb_l1i_pref.count = 0
stlb_l1i_pref.share = 0.00%

stlb_l1d_pref.count = 0
stlb_l1d_pref.share = 0.00%

DRAM_RQ_READ_TRAFFIC_SUMMARY:
cache_demand.count = 74965
cache_demand.share = 95.80%

cache_prefetch.count = 0
cache_prefetch.share = 0.00%

stlb_demand.count = 3286
stlb_demand.share = 4.20%

stlb_prefetch.count = 0
stlb_prefetch.share = 0.00%

DRAM_RQ_READ_TRAFFIC_DEBUG:
total_classified_read.count = 78251
unclassified_read.count = 0
total_read_with_other.count = 78251

classified_plus_unclassified_check.count = 78251
dram_rq_read_total_observed.count = 78251
dram_rq_read_total_observed.per_1K_instructions = 1.56502

STLB_MISS_PTW_DRAM_TOUCH_BREAKDOWN:
stlb_miss_total.count = 85493

stlb_miss_touch_dram.count = 3272
stlb_miss_touch_dram.share = 3.83%

stlb_miss_no_dram_touch.count = 82221
stlb_miss_no_dram_touch.share = 96.17%

STLB_MISS_PTW_DRAM_TOUCH_DEBUG:
stlb_miss_touch_plus_no_touch.count = 85493
stlb_miss_total_check.count = 85493

======STLB miss causes ========
Core_0_STLB_miss_cause_breakdown
Core_0_STLB_cause_Demand_Data_miss 55041
Core_0_STLB_cause_Demand_Data_miss_rate 0.0682829
Core_0_STLB_cause_Demand_Instruction_miss 30452
Core_0_STLB_cause_Demand_Instruction_miss_rate 0.0377782
Core_0_STLB_cause_L1D_Prefetch_miss 0
Core_0_STLB_cause_L1D_Prefetch_miss_rate 0
Core_0_STLB_cause_L1I_Prefetch_miss 0
Core_0_STLB_cause_L1I_Prefetch_miss_rate 0
Core_0_STLB_cause_Other_miss 0
Core_0_STLB_cause_Other_miss_rate 0
Core_0_STLB_Demand_miss 85493
Core_0_STLB_Demand_miss_rate 0.106061
Core_0_STLB_L1D_Prefetch_miss 0
Core_0_STLB_L1D_Prefetch_miss_rate 0
Core_0_STLB_Other_miss 0
Core_0_STLB_Other_miss_rate 0
