[VMEM] WARNING: physical memory size is smaller than virtual memory size.

*** ChampSim Multicore Out-of-Order Simulator ***
Warmup Instructions: 20000000
Simulation Instructions: 50000000
Number of CPUs: 1
Page size: 4096
Core 0: /data0/tzh/champsim_traces/QMM/srv_46_new.xz
Off-chip DRAM Size: 16 GiB Channels: 1 Width: 64-bit Data Rate: 3205 MT/s
Warmup halting CPU 0 at instruction 20000001 cycle 4935298 for remainder of phase
Warmup finished CPU 0 instructions: 20000001 cycles: 4935298 cumulative IPC: 4.052 (Simulation time: 00 hr 01 min 06 sec)
Warmup complete CPU 0 instructions: 20000001 cycles: 4935298 cumulative IPC: 4.052 (Simulation time: 00 hr 01 min 06 sec)
*** Reached end of trace: (0, "/data0/tzh/champsim_traces/QMM/srv_46_new.xz")
[BTB] WARNING: target of return is a lower address than the corresponding call. This is usually a problem with your trace.
*** Reached end of trace: (0, "/data0/tzh/champsim_traces/QMM/srv_46_new.xz")
[BTB] WARNING: target of return is a lower address than the corresponding call. This is usually a problem with your trace.
Simulation finished CPU 0 instructions: 50000002 cycles: 30314937 cumulative IPC: 1.649 (Simulation time: 00 hr 05 min 23 sec)
Simulation complete CPU 0 instructions: 50000002 cycles: 30314937 cumulative IPC: 1.649 (Simulation time: 00 hr 05 min 23 sec)

ChampSim completed all CPUs

=== Simulation ===
CPU 0 runs /data0/tzh/champsim_traces/QMM/srv_46_new.xz

Region of Interest Statistics

CPU 0 cumulative IPC: 1.649 instructions: 50000002 cycles: 30314937
CPU 0 Branch Prediction Accuracy: 98.15% MPKI: 3.262 Average ROB Occupancy at Mispredict: 70.14
Branch type MPKI
BRANCH_DIRECT_JUMP: 0.2025
BRANCH_INDIRECT: 0.222
BRANCH_CONDITIONAL: 1.555
BRANCH_DIRECT_CALL: 0.3137
BRANCH_INDIRECT_CALL: 0.6975
BRANCH_RETURN: 0.2716

cpu0->cpu0_STLB TOTAL        ACCESS:     603811 HIT:     590553 MISS:      13258 MSHR_MERGE:          0
cpu0->cpu0_STLB LOAD         ACCESS:     603811 HIT:     590553 MISS:      13258 MSHR_MERGE:          0
cpu0->cpu0_STLB RFO          ACCESS:          0 HIT:          0 MISS:          0 MSHR_MERGE:          0
cpu0->cpu0_STLB PREFETCH     ACCESS:          0 HIT:          0 MISS:          0 MSHR_MERGE:          0
cpu0->cpu0_STLB WRITE        ACCESS:          0 HIT:          0 MISS:          0 MSHR_MERGE:          0
cpu0->cpu0_STLB TRANSLATION  ACCESS:          0 HIT:          0 MISS:          0 MSHR_MERGE:          0
cpu0->cpu0_STLB PREFETCH REQUESTED:          0 ISSUED:          0 USEFUL:          0 USELESS:          0 LATE:          0
cpu0->cpu0_STLB AVERAGE MISS LATENCY: 97.28 cycles
cpu0->cpu0_L2C TOTAL        ACCESS:    2282620 HIT:    1742778 MISS:     539842 MSHR_MERGE:          0
cpu0->cpu0_L2C LOAD         ACCESS:    1722192 HIT:    1324650 MISS:     397542 MSHR_MERGE:          0
cpu0->cpu0_L2C RFO          ACCESS:     218308 HIT:      89720 MISS:     128588 MSHR_MERGE:          0
cpu0->cpu0_L2C PREFETCH     ACCESS:          0 HIT:          0 MISS:          0 MSHR_MERGE:          0
cpu0->cpu0_L2C WRITE        ACCESS:     326432 HIT:     324289 MISS:       2143 MSHR_MERGE:          0
cpu0->cpu0_L2C TRANSLATION  ACCESS:      15688 HIT:       4119 MISS:      11569 MSHR_MERGE:          0
cpu0->cpu0_L2C PREFETCH REQUESTED:          0 ISSUED:          0 USEFUL:          0 USELESS:          0 LATE:          0
cpu0->cpu0_L2C AVERAGE MISS LATENCY: 56.5 cycles
cpu0->cpu0_L1I TOTAL        ACCESS:    9122160 HIT:    7310473 MISS:    1811687 MSHR_MERGE:     536452
cpu0->cpu0_L1I LOAD         ACCESS:    9122160 HIT:    7310473 MISS:    1811687 MSHR_MERGE:     536452
cpu0->cpu0_L1I RFO          ACCESS:          0 HIT:          0 MISS:          0 MSHR_MERGE:          0
cpu0->cpu0_L1I PREFETCH     ACCESS:          0 HIT:          0 MISS:          0 MSHR_MERGE:          0
cpu0->cpu0_L1I WRITE        ACCESS:          0 HIT:          0 MISS:          0 MSHR_MERGE:          0
cpu0->cpu0_L1I TRANSLATION  ACCESS:          0 HIT:          0 MISS:          0 MSHR_MERGE:          0
cpu0->cpu0_L1I PREFETCH REQUESTED:          0 ISSUED:          0 USEFUL:          0 USELESS:          0 LATE:          0
cpu0->cpu0_L1I AVERAGE MISS LATENCY: 10.72 cycles
cpu0->cpu0_L1D TOTAL        ACCESS:   14499060 HIT:   13059337 MISS:    1439723 MSHR_MERGE:     758755
cpu0->cpu0_L1D LOAD         ACCESS:    8418943 HIT:    7840902 MISS:     578041 MSHR_MERGE:     131076
cpu0->cpu0_L1D RFO          ACCESS:          0 HIT:          0 MISS:          0 MSHR_MERGE:          0
cpu0->cpu0_L1D PREFETCH     ACCESS:          0 HIT:          0 MISS:          0 MSHR_MERGE:          0
cpu0->cpu0_L1D WRITE        ACCESS:    6046931 HIT:    5201106 MISS:     845825 MSHR_MERGE:     627510
cpu0->cpu0_L1D TRANSLATION  ACCESS:      33186 HIT:      17329 MISS:      15857 MSHR_MERGE:        169
cpu0->cpu0_L1D PREFETCH REQUESTED:          0 ISSUED:          0 USEFUL:          0 USELESS:          0 LATE:          0
cpu0->cpu0_L1D AVERAGE MISS LATENCY: 47.71 cycles
cpu0->cpu0_ITLB TOTAL        ACCESS:    7973393 HIT:    7284359 MISS:     689034 MSHR_MERGE:     397915
cpu0->cpu0_ITLB LOAD         ACCESS:    7973393 HIT:    7284359 MISS:     689034 MSHR_MERGE:     397915
cpu0->cpu0_ITLB RFO          ACCESS:          0 HIT:          0 MISS:          0 MSHR_MERGE:          0
cpu0->cpu0_ITLB PREFETCH     ACCESS:          0 HIT:          0 MISS:          0 MSHR_MERGE:          0
cpu0->cpu0_ITLB WRITE        ACCESS:          0 HIT:          0 MISS:          0 MSHR_MERGE:          0
cpu0->cpu0_ITLB TRANSLATION  ACCESS:          0 HIT:          0 MISS:          0 MSHR_MERGE:          0
cpu0->cpu0_ITLB PREFETCH REQUESTED:          0 ISSUED:          0 USEFUL:          0 USELESS:          0 LATE:          0
cpu0->cpu0_ITLB AVERAGE MISS LATENCY: 5.436 cycles
cpu0->cpu0_DTLB TOTAL        ACCESS:   13501047 HIT:   13042475 MISS:     458572 MSHR_MERGE:     145880
cpu0->cpu0_DTLB LOAD         ACCESS:   13501047 HIT:   13042475 MISS:     458572 MSHR_MERGE:     145880
cpu0->cpu0_DTLB RFO          ACCESS:          0 HIT:          0 MISS:          0 MSHR_MERGE:          0
cpu0->cpu0_DTLB PREFETCH     ACCESS:          0 HIT:          0 MISS:          0 MSHR_MERGE:          0
cpu0->cpu0_DTLB WRITE        ACCESS:          0 HIT:          0 MISS:          0 MSHR_MERGE:          0
cpu0->cpu0_DTLB TRANSLATION  ACCESS:          0 HIT:          0 MISS:          0 MSHR_MERGE:          0
cpu0->cpu0_DTLB PREFETCH REQUESTED:          0 ISSUED:          0 USEFUL:          0 USELESS:          0 LATE:          0
cpu0->cpu0_DTLB AVERAGE MISS LATENCY: 8.791 cycles
cpu0->LLC TOTAL        ACCESS:     706143 HIT:     588508 MISS:     117635 MSHR_MERGE:          0
cpu0->LLC LOAD         ACCESS:     397541 HIT:     339937 MISS:      57604 MSHR_MERGE:          0
cpu0->LLC RFO          ACCESS:     128587 HIT:      92630 MISS:      35957 MSHR_MERGE:          0
cpu0->LLC PREFETCH     ACCESS:          0 HIT:          0 MISS:          0 MSHR_MERGE:          0
cpu0->LLC WRITE        ACCESS:     168446 HIT:     147382 MISS:      21064 MSHR_MERGE:          0
cpu0->LLC TRANSLATION  ACCESS:      11569 HIT:       8559 MISS:       3010 MSHR_MERGE:          0
cpu0->LLC PREFETCH REQUESTED:          0 ISSUED:          0 USEFUL:          0 USELESS:          0 LATE:          0
cpu0->LLC AVERAGE MISS LATENCY: 191.3 cycles

DRAM Statistics

Channel 0 RQ ROW_BUFFER_HIT:       7201
  ROW_BUFFER_MISS:      89360
  AVG DBUS CONGESTED CYCLE: 13.72
Channel 0 WQ ROW_BUFFER_HIT:       7984
  ROW_BUFFER_MISS:      36163
  FULL:          0
Channel 0 REFRESHES ISSUED:       2526

[ROI Statistics]
[System Configuration]
num_cpus 1
cpu_freq 4000
fetch_width 6
decode_width 6
dispatch_width 6
execute_width 6
lq_width 2
sq_width 2
retire_width 6
scheduler_size 128
branch_mispredict_penalty 15
rob_size 352
lq_size 128
sq_size 72
ifetch_buffer_size 64
decode_buffer_size 32
dispatch_buffer_size 32
register_file_size 288
decode_latency 1
dispatch_latency 1
schedule_latency 1
execute_latency 1
page_size 4096
block_size 64
core_0_itlb_set 16
core_0_itlb_way 4
core_0_itlb_rq_size 16
core_0_itlb_wq_size 16
core_0_itlb_pq_size 0
core_0_itlb_mshr_size 8
core_0_itlb_hit_latency 1
core_0_itlb_fill_latency 1
core_0_itlb_max_tag_check 2
core_0_itlb_max_fill 2
core_0_dtlb_set 16
core_0_dtlb_way 4
core_0_dtlb_rq_size 16
core_0_dtlb_wq_size 16
core_0_dtlb_pq_size 0
core_0_dtlb_mshr_size 8
core_0_dtlb_hit_latency 1
core_0_dtlb_fill_latency 1
core_0_dtlb_max_tag_check 2
core_0_dtlb_max_fill 2
core_0_stlb_set 128
core_0_stlb_way 12
core_0_stlb_rq_size 32
core_0_stlb_wq_size 32
core_0_stlb_pq_size 0
core_0_stlb_mshr_size 16
core_0_stlb_hit_latency 4
core_0_stlb_fill_latency 4
core_0_stlb_max_tag_check 1
core_0_stlb_max_fill 1
core_0_l1i_set 64
core_0_l1i_way 8
core_0_l1i_rq_size 64
core_0_l1i_wq_size 64
core_0_l1i_pq_size 32
core_0_l1i_mshr_size 8
core_0_l1i_hit_latency 2
core_0_l1i_fill_latency 2
core_0_l1i_max_tag_check 2
core_0_l1i_max_fill 2
core_0_l1d_set 64
core_0_l1d_way 12
core_0_l1d_rq_size 64
core_0_l1d_wq_size 64
core_0_l1d_pq_size 8
core_0_l1d_mshr_size 16
core_0_l1d_hit_latency 2
core_0_l1d_fill_latency 3
core_0_l1d_max_tag_check 2
core_0_l1d_max_fill 2
core_0_l2c_set 1024
core_0_l2c_way 8
core_0_l2c_rq_size 32
core_0_l2c_wq_size 32
core_0_l2c_pq_size 16
core_0_l2c_mshr_size 32
core_0_l2c_hit_latency 5
core_0_l2c_fill_latency 5
core_0_l2c_max_tag_check 1
core_0_l2c_max_fill 1
llc_set 2048
llc_way 16
llc_rq_size 32
llc_wq_size 32
llc_pq_size 32
llc_mshr_size 64
llc_hit_latency 10
llc_fill_latency 10
llc_max_tag_check 1
llc_max_fill 1
dram_channels 1
dram_ranks 1
dram_bankgroups 8
dram_banks 4
dram_rows 65536
dram_columns 1024
dram_channel_width 8
dram_rq_size 64
dram_wq_size 64
dram_size 17179869184
core_0_itlb_prefetcher no
core_0_dtlb_prefetcher no
core_0_stlb_prefetcher no
core_0_l1i_prefetcher no
core_0_l1d_prefetcher no
core_0_l2c_prefetcher no
llc_prefetcher no
llc_replacement drrip

Core_0_instructions 50000002
Core_0_cycles 30314937
Core_0_IPC 1.64935
Core_0_branch_prediction_accuracy 98.1468
Core_0_branch_MPKI 3.26196
Core_0_average_ROB_occupancy_at_mispredict 70.1392

Core_0_ITLB_total_access 7973393
Core_0_ITLB_total_hit 7284359
Core_0_ITLB_total_miss 689034
Core_0_ITLB_total_MPKI 13.7807
Core_0_ITLB_total_miss_rate 0.0864167
Core_0_ITLB_demand_access 7973393
Core_0_ITLB_demand_hit 7284359
Core_0_ITLB_demand_miss 689034
Core_0_ITLB_demand_MPKI 13.7807
Core_0_ITLB_demand_miss_rate 0.0864167
Core_0_ITLB_load_access 7973393
Core_0_ITLB_load_hit 7284359
Core_0_ITLB_load_miss 689034
Core_0_ITLB_load_MPKI 13.7807
Core_0_ITLB_load_miss_rate 0.0864167
Core_0_ITLB_rfo_access 0
Core_0_ITLB_rfo_hit 0
Core_0_ITLB_rfo_miss 0
Core_0_ITLB_rfo_MPKI 0
Core_0_ITLB_rfo_miss_rate 0
Core_0_ITLB_prefetch_access 0
Core_0_ITLB_prefetch_hit 0
Core_0_ITLB_prefetch_miss 0
Core_0_ITLB_prefetch_MPKI 0
Core_0_ITLB_prefetch_miss_rate 0
Core_0_ITLB_writeback_access 0
Core_0_ITLB_writeback_hit 0
Core_0_ITLB_writeback_miss 0
Core_0_ITLB_writeback_MPKI 0
Core_0_ITLB_writeback_miss_rate 0
Core_0_ITLB_prefetch_requested 0
Core_0_ITLB_prefetch_issued 0
Core_0_ITLB_prefetch_useful 0
Core_0_ITLB_prefetch_useless 0
Core_0_ITLB_prefetch_late 0
Core_0_ITLB_prefetch_accuracy 0
Core_0_ITLB_prefetch_coverage 0

Core_0_DTLB_total_access 13501047
Core_0_DTLB_total_hit 13042475
Core_0_DTLB_total_miss 458572
Core_0_DTLB_total_MPKI 9.17144
Core_0_DTLB_total_miss_rate 0.0339657
Core_0_DTLB_demand_access 13501047
Core_0_DTLB_demand_hit 13042475
Core_0_DTLB_demand_miss 458572
Core_0_DTLB_demand_MPKI 9.17144
Core_0_DTLB_demand_miss_rate 0.0339657
Core_0_DTLB_load_access 13501047
Core_0_DTLB_load_hit 13042475
Core_0_DTLB_load_miss 458572
Core_0_DTLB_load_MPKI 9.17144
Core_0_DTLB_load_miss_rate 0.0339657
Core_0_DTLB_rfo_access 0
Core_0_DTLB_rfo_hit 0
Core_0_DTLB_rfo_miss 0
Core_0_DTLB_rfo_MPKI 0
Core_0_DTLB_rfo_miss_rate 0
Core_0_DTLB_prefetch_access 0
Core_0_DTLB_prefetch_hit 0
Core_0_DTLB_prefetch_miss 0
Core_0_DTLB_prefetch_MPKI 0
Core_0_DTLB_prefetch_miss_rate 0
Core_0_DTLB_writeback_access 0
Core_0_DTLB_writeback_hit 0
Core_0_DTLB_writeback_miss 0
Core_0_DTLB_writeback_MPKI 0
Core_0_DTLB_writeback_miss_rate 0
Core_0_DTLB_prefetch_requested 0
Core_0_DTLB_prefetch_issued 0
Core_0_DTLB_prefetch_useful 0
Core_0_DTLB_prefetch_useless 0
Core_0_DTLB_prefetch_late 0
Core_0_DTLB_prefetch_accuracy 0
Core_0_DTLB_prefetch_coverage 0

Core_0_STLB_total_access 603811
Core_0_STLB_total_hit 590553
Core_0_STLB_total_miss 13258
Core_0_STLB_total_MPKI 0.26516
Core_0_STLB_total_miss_rate 0.0219572
Core_0_STLB_demand_access 603811
Core_0_STLB_demand_hit 590553
Core_0_STLB_demand_miss 13258
Core_0_STLB_demand_MPKI 0.26516
Core_0_STLB_demand_miss_rate 0.0219572
Core_0_STLB_load_access 603811
Core_0_STLB_load_hit 590553
Core_0_STLB_load_miss 13258
Core_0_STLB_load_MPKI 0.26516
Core_0_STLB_load_miss_rate 0.0219572
Core_0_STLB_rfo_access 0
Core_0_STLB_rfo_hit 0
Core_0_STLB_rfo_miss 0
Core_0_STLB_rfo_MPKI 0
Core_0_STLB_rfo_miss_rate 0
Core_0_STLB_prefetch_access 0
Core_0_STLB_prefetch_hit 0
Core_0_STLB_prefetch_miss 0
Core_0_STLB_prefetch_MPKI 0
Core_0_STLB_prefetch_miss_rate 0
Core_0_STLB_writeback_access 0
Core_0_STLB_writeback_hit 0
Core_0_STLB_writeback_miss 0
Core_0_STLB_writeback_MPKI 0
Core_0_STLB_writeback_miss_rate 0
Core_0_STLB_prefetch_requested 0
Core_0_STLB_prefetch_issued 0
Core_0_STLB_prefetch_useful 0
Core_0_STLB_prefetch_useless 0
Core_0_STLB_prefetch_late 0
Core_0_STLB_prefetch_accuracy 0
Core_0_STLB_prefetch_coverage 0

Core_0_L1I_total_access 9122160
Core_0_L1I_total_hit 7310473
Core_0_L1I_total_miss 1811687
Core_0_L1I_total_MPKI 36.2337
Core_0_L1I_total_miss_rate 0.198603
Core_0_L1I_demand_access 9122160
Core_0_L1I_demand_hit 7310473
Core_0_L1I_demand_miss 1811687
Core_0_L1I_demand_MPKI 36.2337
Core_0_L1I_demand_miss_rate 0.198603
Core_0_L1I_load_access 9122160
Core_0_L1I_load_hit 7310473
Core_0_L1I_load_miss 1811687
Core_0_L1I_load_MPKI 36.2337
Core_0_L1I_load_miss_rate 0.198603
Core_0_L1I_rfo_access 0
Core_0_L1I_rfo_hit 0
Core_0_L1I_rfo_miss 0
Core_0_L1I_rfo_MPKI 0
Core_0_L1I_rfo_miss_rate 0
Core_0_L1I_prefetch_access 0
Core_0_L1I_prefetch_hit 0
Core_0_L1I_prefetch_miss 0
Core_0_L1I_prefetch_MPKI 0
Core_0_L1I_prefetch_miss_rate 0
Core_0_L1I_writeback_access 0
Core_0_L1I_writeback_hit 0
Core_0_L1I_writeback_miss 0
Core_0_L1I_writeback_MPKI 0
Core_0_L1I_writeback_miss_rate 0
Core_0_L1I_prefetch_requested 0
Core_0_L1I_prefetch_issued 0
Core_0_L1I_prefetch_useful 0
Core_0_L1I_prefetch_useless 0
Core_0_L1I_prefetch_late 0
Core_0_L1I_prefetch_accuracy 0
Core_0_L1I_prefetch_coverage 0

Core_0_L1D_total_access 14465874
Core_0_L1D_total_hit 13042008
Core_0_L1D_total_miss 1423866
Core_0_L1D_total_MPKI 28.4773
Core_0_L1D_total_miss_rate 0.0984293
Core_0_L1D_demand_access 8418943
Core_0_L1D_demand_hit 7840902
Core_0_L1D_demand_miss 578041
Core_0_L1D_demand_MPKI 11.5608
Core_0_L1D_demand_miss_rate 0.0686596
Core_0_L1D_load_access 8418943
Core_0_L1D_load_hit 7840902
Core_0_L1D_load_miss 578041
Core_0_L1D_load_MPKI 11.5608
Core_0_L1D_load_miss_rate 0.0686596
Core_0_L1D_rfo_access 0
Core_0_L1D_rfo_hit 0
Core_0_L1D_rfo_miss 0
Core_0_L1D_rfo_MPKI 0
Core_0_L1D_rfo_miss_rate 0
Core_0_L1D_prefetch_access 0
Core_0_L1D_prefetch_hit 0
Core_0_L1D_prefetch_miss 0
Core_0_L1D_prefetch_MPKI 0
Core_0_L1D_prefetch_miss_rate 0
Core_0_L1D_writeback_access 6046931
Core_0_L1D_writeback_hit 5201106
Core_0_L1D_writeback_miss 845825
Core_0_L1D_writeback_MPKI 16.9165
Core_0_L1D_writeback_miss_rate 0.139877
Core_0_L1D_prefetch_requested 0
Core_0_L1D_prefetch_issued 0
Core_0_L1D_prefetch_useful 0
Core_0_L1D_prefetch_useless 0
Core_0_L1D_prefetch_late 0
Core_0_L1D_prefetch_accuracy 0
Core_0_L1D_prefetch_coverage 0

Core_0_L2C_total_access 2266932
Core_0_L2C_total_hit 1738659
Core_0_L2C_total_miss 528273
Core_0_L2C_total_MPKI 10.5655
Core_0_L2C_total_miss_rate 0.233034
Core_0_L2C_demand_access 1940500
Core_0_L2C_demand_hit 1414370
Core_0_L2C_demand_miss 526130
Core_0_L2C_demand_MPKI 10.5226
Core_0_L2C_demand_miss_rate 0.271131
Core_0_L2C_load_access 1722192
Core_0_L2C_load_hit 1324650
Core_0_L2C_load_miss 397542
Core_0_L2C_load_MPKI 7.95084
Core_0_L2C_load_miss_rate 0.230835
Core_0_L2C_rfo_access 218308
Core_0_L2C_rfo_hit 89720
Core_0_L2C_rfo_miss 128588
Core_0_L2C_rfo_MPKI 2.57176
Core_0_L2C_rfo_miss_rate 0.589021
Core_0_L2C_prefetch_access 0
Core_0_L2C_prefetch_hit 0
Core_0_L2C_prefetch_miss 0
Core_0_L2C_prefetch_MPKI 0
Core_0_L2C_prefetch_miss_rate 0
Core_0_L2C_writeback_access 326432
Core_0_L2C_writeback_hit 324289
Core_0_L2C_writeback_miss 2143
Core_0_L2C_writeback_MPKI 0.04286
Core_0_L2C_writeback_miss_rate 0.00656492
Core_0_L2C_prefetch_requested 0
Core_0_L2C_prefetch_issued 0
Core_0_L2C_prefetch_useful 0
Core_0_L2C_prefetch_useless 0
Core_0_L2C_prefetch_late 0
Core_0_L2C_prefetch_accuracy 0
Core_0_L2C_prefetch_coverage 0

Core_0_LLC_total_access 694574
Core_0_LLC_total_hit 579949
Core_0_LLC_total_miss 114625
Core_0_LLC_total_MPKI 2.2925
Core_0_LLC_total_miss_rate 0.165029
Core_0_LLC_demand_access 526128
Core_0_LLC_demand_hit 432567
Core_0_LLC_demand_miss 93561
Core_0_LLC_demand_MPKI 1.87122
Core_0_LLC_demand_miss_rate 0.177829
Core_0_LLC_load_access 397541
Core_0_LLC_load_hit 339937
Core_0_LLC_load_miss 57604
Core_0_LLC_load_MPKI 1.15208
Core_0_LLC_load_miss_rate 0.144901
Core_0_LLC_rfo_access 128587
Core_0_LLC_rfo_hit 92630
Core_0_LLC_rfo_miss 35957
Core_0_LLC_rfo_MPKI 0.71914
Core_0_LLC_rfo_miss_rate 0.279632
Core_0_LLC_prefetch_access 0
Core_0_LLC_prefetch_hit 0
Core_0_LLC_prefetch_miss 0
Core_0_LLC_prefetch_MPKI 0
Core_0_LLC_prefetch_miss_rate 0
Core_0_LLC_writeback_access 168446
Core_0_LLC_writeback_hit 147382
Core_0_LLC_writeback_miss 21064
Core_0_LLC_writeback_MPKI 0.42128
Core_0_LLC_writeback_miss_rate 0.125049
Core_0_LLC_prefetch_requested 0
Core_0_LLC_prefetch_issued 0
Core_0_LLC_prefetch_useful 0
Core_0_LLC_prefetch_useless 0
Core_0_LLC_prefetch_late 0
Core_0_LLC_prefetch_accuracy 0
Core_0_LLC_prefetch_coverage 0

[DRAM Statistics]
Channel_0_RQ_row_buffer_hit 7201
Channel_0_RQ_row_buffer_miss 89360
Channel_0_WQ_row_buffer_hit 7984
Channel_0_WQ_row_buffer_miss 36163
Channel_0_WQ_full 0
Channel_0_dbus_congested 450889
DRAM_total_RQ_row_buffer_hit 7201
DRAM_total_RQ_row_buffer_miss 89360
DRAM_total_WQ_row_buffer_hit 7984
DRAM_total_WQ_row_buffer_miss 36163
DRAM_total_WQ_full 0
DRAM_total_dbus_congested 450889
DRAM_avg_congested_cycle 13.723

====== DRAM_RQ_TRAFFIC ========
DRAM_RQ_READ_TRAFFIC_BREAKDOWN:
data_demand_read.count = 91852
data_demand_read.share = 95.11%

inst_demand_read.count = 1709
inst_demand_read.share = 1.77%

cache_inst_prefetch.count = 0
cache_inst_prefetch.share = 0.00%

cache_data_prefetch.count = 0
cache_data_prefetch.share = 0.00%

stlb_data_demand.count = 2907
stlb_data_demand.share = 3.01%

stlb_inst_demand.count = 103
stlb_inst_demand.share = 0.11%

stlb_l1i_pref.count = 0
stlb_l1i_pref.share = 0.00%

stlb_l1d_pref.count = 0
stlb_l1d_pref.share = 0.00%

DRAM_RQ_READ_TRAFFIC_SUMMARY:
cache_demand.count = 93561
cache_demand.share = 96.88%

cache_prefetch.count = 0
cache_prefetch.share = 0.00%

stlb_demand.count = 3010
stlb_demand.share = 3.12%

stlb_prefetch.count = 0
stlb_prefetch.share = 0.00%

DRAM_RQ_READ_TRAFFIC_DEBUG:
total_classified_read.count = 96571
unclassified_read.count = 0
total_read_with_other.count = 96571

classified_plus_unclassified_check.count = 96571
dram_rq_read_total_observed.count = 96571
dram_rq_read_total_observed.per_1K_instructions = 1.93142

STLB_MISS_PTW_DRAM_TOUCH_BREAKDOWN:
stlb_miss_total.count = 13258

stlb_miss_touch_dram.count = 2737
stlb_miss_touch_dram.share = 20.64%

stlb_miss_no_dram_touch.count = 10521
stlb_miss_no_dram_touch.share = 79.36%

STLB_MISS_PTW_DRAM_TOUCH_DEBUG:
stlb_miss_touch_plus_no_touch.count = 13258
stlb_miss_total_check.count = 13258

======STLB miss causes ========
Core_0_STLB_miss_cause_breakdown
Core_0_STLB_cause_Demand_Data_miss 10350
Core_0_STLB_cause_Demand_Data_miss_rate 0.0171411
Core_0_STLB_cause_Demand_Instruction_miss 2908
Core_0_STLB_cause_Demand_Instruction_miss_rate 0.00481608
Core_0_STLB_cause_L1D_Prefetch_miss 0
Core_0_STLB_cause_L1D_Prefetch_miss_rate 0
Core_0_STLB_cause_L1I_Prefetch_miss 0
Core_0_STLB_cause_L1I_Prefetch_miss_rate 0
Core_0_STLB_cause_Other_miss 0
Core_0_STLB_cause_Other_miss_rate 0
Core_0_STLB_Demand_miss 13258
Core_0_STLB_Demand_miss_rate 0.0219572
Core_0_STLB_L1D_Prefetch_miss 0
Core_0_STLB_L1D_Prefetch_miss_rate 0
Core_0_STLB_Other_miss 0
Core_0_STLB_Other_miss_rate 0
