[VMEM] WARNING: physical memory size is smaller than virtual memory size.

*** ChampSim Multicore Out-of-Order Simulator ***
Warmup Instructions: 20000000
Simulation Instructions: 50000000
Number of CPUs: 1
Page size: 4096
Core 0: /data2/zcq/champsim_traces_xsbench/xs.XL100nuclide-829B.champsimtrace.xz
Off-chip DRAM Size: 16 GiB Channels: 1 Width: 64-bit Data Rate: 3205 MT/s
Warmup halting CPU 0 at instruction 20000000 cycle 15337016 for remainder of phase
Warmup finished CPU 0 instructions: 20000000 cycles: 15337016 cumulative IPC: 1.304 (Simulation time: 00 hr 02 min 19 sec)
Warmup complete CPU 0 instructions: 20000000 cycles: 15337016 cumulative IPC: 1.304 (Simulation time: 00 hr 02 min 19 sec)
Simulation finished CPU 0 instructions: 50000000 cycles: 335767826 cumulative IPC: 0.1489 (Simulation time: 00 hr 21 min 25 sec)
Simulation complete CPU 0 instructions: 50000000 cycles: 335767826 cumulative IPC: 0.1489 (Simulation time: 00 hr 21 min 25 sec)

ChampSim completed all CPUs

=== Simulation ===
CPU 0 runs /data2/zcq/champsim_traces_xsbench/xs.XL100nuclide-829B.champsimtrace.xz

Region of Interest Statistics

CPU 0 cumulative IPC: 0.1489 instructions: 50000000 cycles: 335767826
CPU 0 Branch Prediction Accuracy: 87.15% MPKI: 21.47 Average ROB Occupancy at Mispredict: 26.1
Branch type MPKI
BRANCH_DIRECT_JUMP: 0
BRANCH_INDIRECT: 0
BRANCH_CONDITIONAL: 21.47
BRANCH_DIRECT_CALL: 0
BRANCH_INDIRECT_CALL: 0
BRANCH_RETURN: 0

cpu0->cpu0_STLB TOTAL        ACCESS:    1898405 HIT:      68226 MISS:    1830179 MSHR_MERGE:          0
cpu0->cpu0_STLB LOAD         ACCESS:    1898405 HIT:      68226 MISS:    1830179 MSHR_MERGE:          0
cpu0->cpu0_STLB RFO          ACCESS:          0 HIT:          0 MISS:          0 MSHR_MERGE:          0
cpu0->cpu0_STLB PREFETCH     ACCESS:          0 HIT:          0 MISS:          0 MSHR_MERGE:          0
cpu0->cpu0_STLB WRITE        ACCESS:          0 HIT:          0 MISS:          0 MSHR_MERGE:          0
cpu0->cpu0_STLB TRANSLATION  ACCESS:          0 HIT:          0 MISS:          0 MSHR_MERGE:          0
cpu0->cpu0_STLB PREFETCH REQUESTED:          0 ISSUED:          0 USEFUL:          0 USELESS:          0 LATE:          0
cpu0->cpu0_STLB AVERAGE MISS LATENCY: 168.4 cycles
cpu0->cpu0_L2C TOTAL        ACCESS:    4409751 HIT:     243146 MISS:    4166605 MSHR_MERGE:          0
cpu0->cpu0_L2C LOAD         ACCESS:    2954004 HIT:     121149 MISS:    2832855 MSHR_MERGE:          0
cpu0->cpu0_L2C RFO          ACCESS:       6258 HIT:       5825 MISS:        433 MSHR_MERGE:          0
cpu0->cpu0_L2C PREFETCH     ACCESS:          0 HIT:          0 MISS:          0 MSHR_MERGE:          0
cpu0->cpu0_L2C WRITE        ACCESS:       8665 HIT:       8635 MISS:         30 MSHR_MERGE:          0
cpu0->cpu0_L2C TRANSLATION  ACCESS:    1440824 HIT:     107537 MISS:    1333287 MSHR_MERGE:          0
cpu0->cpu0_L2C PREFETCH REQUESTED:          0 ISSUED:          0 USEFUL:          0 USELESS:          0 LATE:          0
cpu0->cpu0_L2C AVERAGE MISS LATENCY: 148.2 cycles
cpu0->cpu0_L1I TOTAL        ACCESS:      11046 HIT:      11046 MISS:          0 MSHR_MERGE:          0
cpu0->cpu0_L1I LOAD         ACCESS:      11046 HIT:      11046 MISS:          0 MSHR_MERGE:          0
cpu0->cpu0_L1I RFO          ACCESS:          0 HIT:          0 MISS:          0 MSHR_MERGE:          0
cpu0->cpu0_L1I PREFETCH     ACCESS:          0 HIT:          0 MISS:          0 MSHR_MERGE:          0
cpu0->cpu0_L1I WRITE        ACCESS:          0 HIT:          0 MISS:          0 MSHR_MERGE:          0
cpu0->cpu0_L1I TRANSLATION  ACCESS:          0 HIT:          0 MISS:          0 MSHR_MERGE:          0
cpu0->cpu0_L1I PREFETCH REQUESTED:          0 ISSUED:          0 USEFUL:          0 USELESS:          0 LATE:          0
cpu0->cpu0_L1I AVERAGE MISS LATENCY: - cycles
cpu0->cpu0_L1D TOTAL        ACCESS:    9659319 HIT:    4536901 MISS:    5122418 MSHR_MERGE:     721328
cpu0->cpu0_L1D LOAD         ACCESS:    4816667 HIT:    1808305 MISS:    3008362 MSHR_MERGE:      54358
cpu0->cpu0_L1D RFO          ACCESS:          0 HIT:          0 MISS:          0 MSHR_MERGE:          0
cpu0->cpu0_L1D PREFETCH     ACCESS:          0 HIT:          0 MISS:          0 MSHR_MERGE:          0
cpu0->cpu0_L1D WRITE        ACCESS:     947771 HIT:     923720 MISS:      24051 MSHR_MERGE:      17788
cpu0->cpu0_L1D TRANSLATION  ACCESS:    3894881 HIT:    1804876 MISS:    2090005 MSHR_MERGE:     649182
cpu0->cpu0_L1D PREFETCH REQUESTED:          0 ISSUED:          0 USEFUL:          0 USELESS:          0 LATE:          0
cpu0->cpu0_L1D AVERAGE MISS LATENCY: 149.4 cycles
cpu0->cpu0_ITLB TOTAL        ACCESS:       8948 HIT:       8948 MISS:          0 MSHR_MERGE:          0
cpu0->cpu0_ITLB LOAD         ACCESS:       8948 HIT:       8948 MISS:          0 MSHR_MERGE:          0
cpu0->cpu0_ITLB RFO          ACCESS:          0 HIT:          0 MISS:          0 MSHR_MERGE:          0
cpu0->cpu0_ITLB PREFETCH     ACCESS:          0 HIT:          0 MISS:          0 MSHR_MERGE:          0
cpu0->cpu0_ITLB WRITE        ACCESS:          0 HIT:          0 MISS:          0 MSHR_MERGE:          0
cpu0->cpu0_ITLB TRANSLATION  ACCESS:          0 HIT:          0 MISS:          0 MSHR_MERGE:          0
cpu0->cpu0_ITLB PREFETCH REQUESTED:          0 ISSUED:          0 USEFUL:          0 USELESS:          0 LATE:          0
cpu0->cpu0_ITLB AVERAGE MISS LATENCY: - cycles
cpu0->cpu0_DTLB TOTAL        ACCESS:    5704765 HIT:    3697905 MISS:    2006860 MSHR_MERGE:     108456
cpu0->cpu0_DTLB LOAD         ACCESS:    5704765 HIT:    3697905 MISS:    2006860 MSHR_MERGE:     108456
cpu0->cpu0_DTLB RFO          ACCESS:          0 HIT:          0 MISS:          0 MSHR_MERGE:          0
cpu0->cpu0_DTLB PREFETCH     ACCESS:          0 HIT:          0 MISS:          0 MSHR_MERGE:          0
cpu0->cpu0_DTLB WRITE        ACCESS:          0 HIT:          0 MISS:          0 MSHR_MERGE:          0
cpu0->cpu0_DTLB TRANSLATION  ACCESS:          0 HIT:          0 MISS:          0 MSHR_MERGE:          0
cpu0->cpu0_DTLB PREFETCH REQUESTED:          0 ISSUED:          0 USEFUL:          0 USELESS:          0 LATE:          0
cpu0->cpu0_DTLB AVERAGE MISS LATENCY: 168.3 cycles
cpu0->LLC TOTAL        ACCESS:    4168055 HIT:    1404709 MISS:    2763346 MSHR_MERGE:          0
cpu0->LLC LOAD         ACCESS:    2832855 HIT:     676565 MISS:    2156290 MSHR_MERGE:          0
cpu0->LLC RFO          ACCESS:        433 HIT:        432 MISS:          1 MSHR_MERGE:          0
cpu0->LLC PREFETCH     ACCESS:          0 HIT:          0 MISS:          0 MSHR_MERGE:          0
cpu0->LLC WRITE        ACCESS:       1480 HIT:       1470 MISS:         10 MSHR_MERGE:          0
cpu0->LLC TRANSLATION  ACCESS:    1333287 HIT:     726242 MISS:     607045 MSHR_MERGE:          0
cpu0->LLC PREFETCH REQUESTED:          0 ISSUED:          0 USEFUL:          0 USELESS:          0 LATE:          0
cpu0->LLC AVERAGE MISS LATENCY: 199.9 cycles

DRAM Statistics

Channel 0 RQ ROW_BUFFER_HIT:      26641
  ROW_BUFFER_MISS:    2736695
  AVG DBUS CONGESTED CYCLE: 2.946
Channel 0 WQ ROW_BUFFER_HIT:          4
  ROW_BUFFER_MISS:          6
  FULL:          0
Channel 0 REFRESHES ISSUED:      27980

[ROI Statistics]
[System Configuration]
num_cpus 1
cpu_freq 4000
fetch_width 6
decode_width 6
dispatch_width 6
execute_width 6
lq_width 2
sq_width 2
retire_width 6
scheduler_size 128
branch_mispredict_penalty 15
rob_size 352
lq_size 128
sq_size 72
ifetch_buffer_size 64
decode_buffer_size 32
dispatch_buffer_size 32
register_file_size 288
decode_latency 1
dispatch_latency 1
schedule_latency 1
execute_latency 1
page_size 4096
block_size 64
core_0_itlb_set 16
core_0_itlb_way 4
core_0_itlb_rq_size 16
core_0_itlb_wq_size 16
core_0_itlb_pq_size 0
core_0_itlb_mshr_size 8
core_0_itlb_hit_latency 1
core_0_itlb_fill_latency 1
core_0_itlb_max_tag_check 2
core_0_itlb_max_fill 2
core_0_dtlb_set 16
core_0_dtlb_way 4
core_0_dtlb_rq_size 16
core_0_dtlb_wq_size 16
core_0_dtlb_pq_size 0
core_0_dtlb_mshr_size 8
core_0_dtlb_hit_latency 1
core_0_dtlb_fill_latency 1
core_0_dtlb_max_tag_check 2
core_0_dtlb_max_fill 2
core_0_stlb_set 128
core_0_stlb_way 12
core_0_stlb_rq_size 32
core_0_stlb_wq_size 32
core_0_stlb_pq_size 0
core_0_stlb_mshr_size 16
core_0_stlb_hit_latency 4
core_0_stlb_fill_latency 4
core_0_stlb_max_tag_check 1
core_0_stlb_max_fill 1
core_0_l1i_set 64
core_0_l1i_way 8
core_0_l1i_rq_size 64
core_0_l1i_wq_size 64
core_0_l1i_pq_size 32
core_0_l1i_mshr_size 8
core_0_l1i_hit_latency 2
core_0_l1i_fill_latency 2
core_0_l1i_max_tag_check 2
core_0_l1i_max_fill 2
core_0_l1d_set 64
core_0_l1d_way 12
core_0_l1d_rq_size 64
core_0_l1d_wq_size 64
core_0_l1d_pq_size 8
core_0_l1d_mshr_size 16
core_0_l1d_hit_latency 2
core_0_l1d_fill_latency 3
core_0_l1d_max_tag_check 2
core_0_l1d_max_fill 2
core_0_l2c_set 1024
core_0_l2c_way 8
core_0_l2c_rq_size 32
core_0_l2c_wq_size 32
core_0_l2c_pq_size 16
core_0_l2c_mshr_size 32
core_0_l2c_hit_latency 5
core_0_l2c_fill_latency 5
core_0_l2c_max_tag_check 1
core_0_l2c_max_fill 1
llc_set 2048
llc_way 16
llc_rq_size 32
llc_wq_size 32
llc_pq_size 32
llc_mshr_size 64
llc_hit_latency 10
llc_fill_latency 10
llc_max_tag_check 1
llc_max_fill 1
dram_channels 1
dram_ranks 1
dram_bankgroups 8
dram_banks 4
dram_rows 65536
dram_columns 1024
dram_channel_width 8
dram_rq_size 64
dram_wq_size 64
dram_size 17179869184
core_0_itlb_prefetcher no
core_0_dtlb_prefetcher no
core_0_stlb_prefetcher no
core_0_l1i_prefetcher no
core_0_l1d_prefetcher no
core_0_l2c_prefetcher no
llc_prefetcher no
llc_replacement drrip

Core_0_instructions 50000000
Core_0_cycles 335767826
Core_0_IPC 0.148912
Core_0_branch_prediction_accuracy 87.1527
Core_0_branch_MPKI 21.4687
Core_0_average_ROB_occupancy_at_mispredict 26.1028

Core_0_ITLB_total_access 8948
Core_0_ITLB_total_hit 8948
Core_0_ITLB_total_miss 0
Core_0_ITLB_total_MPKI 0
Core_0_ITLB_total_miss_rate 0
Core_0_ITLB_demand_access 8948
Core_0_ITLB_demand_hit 8948
Core_0_ITLB_demand_miss 0
Core_0_ITLB_demand_MPKI 0
Core_0_ITLB_demand_miss_rate 0
Core_0_ITLB_load_access 8948
Core_0_ITLB_load_hit 8948
Core_0_ITLB_load_miss 0
Core_0_ITLB_load_MPKI 0
Core_0_ITLB_load_miss_rate 0
Core_0_ITLB_rfo_access 0
Core_0_ITLB_rfo_hit 0
Core_0_ITLB_rfo_miss 0
Core_0_ITLB_rfo_MPKI 0
Core_0_ITLB_rfo_miss_rate 0
Core_0_ITLB_prefetch_access 0
Core_0_ITLB_prefetch_hit 0
Core_0_ITLB_prefetch_miss 0
Core_0_ITLB_prefetch_MPKI 0
Core_0_ITLB_prefetch_miss_rate 0
Core_0_ITLB_writeback_access 0
Core_0_ITLB_writeback_hit 0
Core_0_ITLB_writeback_miss 0
Core_0_ITLB_writeback_MPKI 0
Core_0_ITLB_writeback_miss_rate 0
Core_0_ITLB_prefetch_requested 0
Core_0_ITLB_prefetch_issued 0
Core_0_ITLB_prefetch_useful 0
Core_0_ITLB_prefetch_useless 0
Core_0_ITLB_prefetch_late 0
Core_0_ITLB_prefetch_accuracy 0
Core_0_ITLB_prefetch_coverage 0

Core_0_DTLB_total_access 5704765
Core_0_DTLB_total_hit 3697905
Core_0_DTLB_total_miss 2006860
Core_0_DTLB_total_MPKI 40.1372
Core_0_DTLB_total_miss_rate 0.351787
Core_0_DTLB_demand_access 5704765
Core_0_DTLB_demand_hit 3697905
Core_0_DTLB_demand_miss 2006860
Core_0_DTLB_demand_MPKI 40.1372
Core_0_DTLB_demand_miss_rate 0.351787
Core_0_DTLB_load_access 5704765
Core_0_DTLB_load_hit 3697905
Core_0_DTLB_load_miss 2006860
Core_0_DTLB_load_MPKI 40.1372
Core_0_DTLB_load_miss_rate 0.351787
Core_0_DTLB_rfo_access 0
Core_0_DTLB_rfo_hit 0
Core_0_DTLB_rfo_miss 0
Core_0_DTLB_rfo_MPKI 0
Core_0_DTLB_rfo_miss_rate 0
Core_0_DTLB_prefetch_access 0
Core_0_DTLB_prefetch_hit 0
Core_0_DTLB_prefetch_miss 0
Core_0_DTLB_prefetch_MPKI 0
Core_0_DTLB_prefetch_miss_rate 0
Core_0_DTLB_writeback_access 0
Core_0_DTLB_writeback_hit 0
Core_0_DTLB_writeback_miss 0
Core_0_DTLB_writeback_MPKI 0
Core_0_DTLB_writeback_miss_rate 0
Core_0_DTLB_prefetch_requested 0
Core_0_DTLB_prefetch_issued 0
Core_0_DTLB_prefetch_useful 0
Core_0_DTLB_prefetch_useless 0
Core_0_DTLB_prefetch_late 0
Core_0_DTLB_prefetch_accuracy 0
Core_0_DTLB_prefetch_coverage 0

Core_0_STLB_total_access 1898405
Core_0_STLB_total_hit 68226
Core_0_STLB_total_miss 1830179
Core_0_STLB_total_MPKI 36.6036
Core_0_STLB_total_miss_rate 0.964061
Core_0_STLB_demand_access 1898405
Core_0_STLB_demand_hit 68226
Core_0_STLB_demand_miss 1830179
Core_0_STLB_demand_MPKI 36.6036
Core_0_STLB_demand_miss_rate 0.964061
Core_0_STLB_load_access 1898405
Core_0_STLB_load_hit 68226
Core_0_STLB_load_miss 1830179
Core_0_STLB_load_MPKI 36.6036
Core_0_STLB_load_miss_rate 0.964061
Core_0_STLB_rfo_access 0
Core_0_STLB_rfo_hit 0
Core_0_STLB_rfo_miss 0
Core_0_STLB_rfo_MPKI 0
Core_0_STLB_rfo_miss_rate 0
Core_0_STLB_prefetch_access 0
Core_0_STLB_prefetch_hit 0
Core_0_STLB_prefetch_miss 0
Core_0_STLB_prefetch_MPKI 0
Core_0_STLB_prefetch_miss_rate 0
Core_0_STLB_writeback_access 0
Core_0_STLB_writeback_hit 0
Core_0_STLB_writeback_miss 0
Core_0_STLB_writeback_MPKI 0
Core_0_STLB_writeback_miss_rate 0
Core_0_STLB_prefetch_requested 0
Core_0_STLB_prefetch_issued 0
Core_0_STLB_prefetch_useful 0
Core_0_STLB_prefetch_useless 0
Core_0_STLB_prefetch_late 0
Core_0_STLB_prefetch_accuracy 0
Core_0_STLB_prefetch_coverage 0

Core_0_L1I_total_access 11046
Core_0_L1I_total_hit 11046
Core_0_L1I_total_miss 0
Core_0_L1I_total_MPKI 0
Core_0_L1I_total_miss_rate 0
Core_0_L1I_demand_access 11046
Core_0_L1I_demand_hit 11046
Core_0_L1I_demand_miss 0
Core_0_L1I_demand_MPKI 0
Core_0_L1I_demand_miss_rate 0
Core_0_L1I_load_access 11046
Core_0_L1I_load_hit 11046
Core_0_L1I_load_miss 0
Core_0_L1I_load_MPKI 0
Core_0_L1I_load_miss_rate 0
Core_0_L1I_rfo_access 0
Core_0_L1I_rfo_hit 0
Core_0_L1I_rfo_miss 0
Core_0_L1I_rfo_MPKI 0
Core_0_L1I_rfo_miss_rate 0
Core_0_L1I_prefetch_access 0
Core_0_L1I_prefetch_hit 0
Core_0_L1I_prefetch_miss 0
Core_0_L1I_prefetch_MPKI 0
Core_0_L1I_prefetch_miss_rate 0
Core_0_L1I_writeback_access 0
Core_0_L1I_writeback_hit 0
Core_0_L1I_writeback_miss 0
Core_0_L1I_writeback_MPKI 0
Core_0_L1I_writeback_miss_rate 0
Core_0_L1I_prefetch_requested 0
Core_0_L1I_prefetch_issued 0
Core_0_L1I_prefetch_useful 0
Core_0_L1I_prefetch_useless 0
Core_0_L1I_prefetch_late 0
Core_0_L1I_prefetch_accuracy 0
Core_0_L1I_prefetch_coverage 0

Core_0_L1D_total_access 5764438
Core_0_L1D_total_hit 2732025
Core_0_L1D_total_miss 3032413
Core_0_L1D_total_MPKI 60.6483
Core_0_L1D_total_miss_rate 0.526055
Core_0_L1D_demand_access 4816667
Core_0_L1D_demand_hit 1808305
Core_0_L1D_demand_miss 3008362
Core_0_L1D_demand_MPKI 60.1672
Core_0_L1D_demand_miss_rate 0.624573
Core_0_L1D_load_access 4816667
Core_0_L1D_load_hit 1808305
Core_0_L1D_load_miss 3008362
Core_0_L1D_load_MPKI 60.1672
Core_0_L1D_load_miss_rate 0.624573
Core_0_L1D_rfo_access 0
Core_0_L1D_rfo_hit 0
Core_0_L1D_rfo_miss 0
Core_0_L1D_rfo_MPKI 0
Core_0_L1D_rfo_miss_rate 0
Core_0_L1D_prefetch_access 0
Core_0_L1D_prefetch_hit 0
Core_0_L1D_prefetch_miss 0
Core_0_L1D_prefetch_MPKI 0
Core_0_L1D_prefetch_miss_rate 0
Core_0_L1D_writeback_access 947771
Core_0_L1D_writeback_hit 923720
Core_0_L1D_writeback_miss 24051
Core_0_L1D_writeback_MPKI 0.48102
Core_0_L1D_writeback_miss_rate 0.0253764
Core_0_L1D_prefetch_requested 0
Core_0_L1D_prefetch_issued 0
Core_0_L1D_prefetch_useful 0
Core_0_L1D_prefetch_useless 0
Core_0_L1D_prefetch_late 0
Core_0_L1D_prefetch_accuracy 0
Core_0_L1D_prefetch_coverage 0

Core_0_L2C_total_access 2968927
Core_0_L2C_total_hit 135609
Core_0_L2C_total_miss 2833318
Core_0_L2C_total_MPKI 56.6664
Core_0_L2C_total_miss_rate 0.954324
Core_0_L2C_demand_access 2960262
Core_0_L2C_demand_hit 126974
Core_0_L2C_demand_miss 2833288
Core_0_L2C_demand_MPKI 56.6658
Core_0_L2C_demand_miss_rate 0.957107
Core_0_L2C_load_access 2954004
Core_0_L2C_load_hit 121149
Core_0_L2C_load_miss 2832855
Core_0_L2C_load_MPKI 56.6571
Core_0_L2C_load_miss_rate 0.958988
Core_0_L2C_rfo_access 6258
Core_0_L2C_rfo_hit 5825
Core_0_L2C_rfo_miss 433
Core_0_L2C_rfo_MPKI 0.00866
Core_0_L2C_rfo_miss_rate 0.0691914
Core_0_L2C_prefetch_access 0
Core_0_L2C_prefetch_hit 0
Core_0_L2C_prefetch_miss 0
Core_0_L2C_prefetch_MPKI 0
Core_0_L2C_prefetch_miss_rate 0
Core_0_L2C_writeback_access 8665
Core_0_L2C_writeback_hit 8635
Core_0_L2C_writeback_miss 30
Core_0_L2C_writeback_MPKI 0.0006
Core_0_L2C_writeback_miss_rate 0.0034622
Core_0_L2C_prefetch_requested 0
Core_0_L2C_prefetch_issued 0
Core_0_L2C_prefetch_useful 0
Core_0_L2C_prefetch_useless 0
Core_0_L2C_prefetch_late 0
Core_0_L2C_prefetch_accuracy 0
Core_0_L2C_prefetch_coverage 0

Core_0_LLC_total_access 2834768
Core_0_LLC_total_hit 678467
Core_0_LLC_total_miss 2156301
Core_0_LLC_total_MPKI 43.126
Core_0_LLC_total_miss_rate 0.760662
Core_0_LLC_demand_access 2833288
Core_0_LLC_demand_hit 676997
Core_0_LLC_demand_miss 2156291
Core_0_LLC_demand_MPKI 43.1258
Core_0_LLC_demand_miss_rate 0.761056
Core_0_LLC_load_access 2832855
Core_0_LLC_load_hit 676565
Core_0_LLC_load_miss 2156290
Core_0_LLC_load_MPKI 43.1258
Core_0_LLC_load_miss_rate 0.761172
Core_0_LLC_rfo_access 433
Core_0_LLC_rfo_hit 432
Core_0_LLC_rfo_miss 1
Core_0_LLC_rfo_MPKI 2e-05
Core_0_LLC_rfo_miss_rate 0.00230947
Core_0_LLC_prefetch_access 0
Core_0_LLC_prefetch_hit 0
Core_0_LLC_prefetch_miss 0
Core_0_LLC_prefetch_MPKI 0
Core_0_LLC_prefetch_miss_rate 0
Core_0_LLC_writeback_access 1480
Core_0_LLC_writeback_hit 1470
Core_0_LLC_writeback_miss 10
Core_0_LLC_writeback_MPKI 0.0002
Core_0_LLC_writeback_miss_rate 0.00675676
Core_0_LLC_prefetch_requested 0
Core_0_LLC_prefetch_issued 0
Core_0_LLC_prefetch_useful 0
Core_0_LLC_prefetch_useless 0
Core_0_LLC_prefetch_late 0
Core_0_LLC_prefetch_accuracy 0
Core_0_LLC_prefetch_coverage 0

[DRAM Statistics]
Channel_0_RQ_row_buffer_hit 26641
Channel_0_RQ_row_buffer_miss 2736695
Channel_0_WQ_row_buffer_hit 4
Channel_0_WQ_row_buffer_miss 6
Channel_0_WQ_full 0
Channel_0_dbus_congested 2865948
DRAM_total_RQ_row_buffer_hit 26641
DRAM_total_RQ_row_buffer_miss 2736695
DRAM_total_WQ_row_buffer_hit 4
DRAM_total_WQ_row_buffer_miss 6
DRAM_total_WQ_full 0
DRAM_total_dbus_congested 2865948
DRAM_avg_congested_cycle 2.94605

====== DRAM_RQ_TRAFFIC ========
DRAM_RQ_READ_TRAFFIC_BREAKDOWN:
data_demand_read.count = 2156291
data_demand_read.share = 78.03%

inst_demand_read.count = 0
inst_demand_read.share = 0.00%

cache_inst_prefetch.count = 0
cache_inst_prefetch.share = 0.00%

cache_data_prefetch.count = 0
cache_data_prefetch.share = 0.00%

stlb_data_demand.count = 607045
stlb_data_demand.share = 21.97%

stlb_inst_demand.count = 0
stlb_inst_demand.share = 0.00%

stlb_l1i_pref.count = 0
stlb_l1i_pref.share = 0.00%

stlb_l1d_pref.count = 0
stlb_l1d_pref.share = 0.00%

DRAM_RQ_READ_TRAFFIC_SUMMARY:
cache_demand.count = 2156291
cache_demand.share = 78.03%

cache_prefetch.count = 0
cache_prefetch.share = 0.00%

stlb_demand.count = 607045
stlb_demand.share = 21.97%

stlb_prefetch.count = 0
stlb_prefetch.share = 0.00%

DRAM_RQ_READ_TRAFFIC_DEBUG:
total_classified_read.count = 2763336
unclassified_read.count = 0
total_read_with_other.count = 2763336

classified_plus_unclassified_check.count = 2763336
dram_rq_read_total_observed.count = 2763336
dram_rq_read_total_observed.per_1K_instructions = 55.2667

STLB_MISS_PTW_DRAM_TOUCH_BREAKDOWN:
stlb_miss_total.count = 1830179

stlb_miss_touch_dram.count = 610177
stlb_miss_touch_dram.share = 33.34%

stlb_miss_no_dram_touch.count = 1220002
stlb_miss_no_dram_touch.share = 66.66%

STLB_MISS_PTW_DRAM_TOUCH_DEBUG:
stlb_miss_touch_plus_no_touch.count = 1830179
stlb_miss_total_check.count = 1830179

======STLB miss causes ========
Core_0_STLB_miss_cause_breakdown
Core_0_STLB_cause_Demand_Data_miss 1830179
Core_0_STLB_cause_Demand_Data_miss_rate 0.964061
Core_0_STLB_cause_Demand_Instruction_miss 0
Core_0_STLB_cause_Demand_Instruction_miss_rate 0
Core_0_STLB_cause_L1D_Prefetch_miss 0
Core_0_STLB_cause_L1D_Prefetch_miss_rate 0
Core_0_STLB_cause_L1I_Prefetch_miss 0
Core_0_STLB_cause_L1I_Prefetch_miss_rate 0
Core_0_STLB_cause_Other_miss 0
Core_0_STLB_cause_Other_miss_rate 0
Core_0_STLB_Demand_miss 1830179
Core_0_STLB_Demand_miss_rate 0.964061
Core_0_STLB_L1D_Prefetch_miss 0
Core_0_STLB_L1D_Prefetch_miss_rate 0
Core_0_STLB_Other_miss 0
Core_0_STLB_Other_miss_rate 0
