[VMEM] WARNING: physical memory size is smaller than virtual memory size.

*** ChampSim Multicore Out-of-Order Simulator ***
Warmup Instructions: 50000000
Simulation Instructions: 100000000
Number of CPUs: 1
Page size: 4096
Core 0: /data2/zcq/champsim_traces_gap/bfs.twitter-44B.champsimtrace.xz
VBerti Prefetcher
BERTI HASH ENTANGLING
BERTI IP MASK ffff
Off-chip DRAM Size: 16 GiB Channels: 1 Width: 64-bit Data Rate: 3205 MT/s
Warmup halting CPU 0 at instruction 50000001 cycle 11928742 for remainder of phase
Warmup finished CPU 0 instructions: 50000001 cycles: 11928742 cumulative IPC: 4.192 (Simulation time: 00 hr 03 min 32 sec)
Warmup complete CPU 0 instructions: 50000001 cycles: 11928742 cumulative IPC: 4.192 (Simulation time: 00 hr 03 min 32 sec)
Simulation finished CPU 0 instructions: 100000005 cycles: 292645431 cumulative IPC: 0.3417 (Simulation time: 00 hr 29 min 17 sec)
Simulation complete CPU 0 instructions: 100000005 cycles: 292645431 cumulative IPC: 0.3417 (Simulation time: 00 hr 29 min 17 sec)

ChampSim completed all CPUs

=== Simulation ===
CPU 0 runs /data2/zcq/champsim_traces_gap/bfs.twitter-44B.champsimtrace.xz

Region of Interest Statistics

CPU 0 cumulative IPC: 0.3417 instructions: 100000005 cycles: 292645431
CPU 0 Branch Prediction Accuracy: 91.95% MPKI: 16.49 Average ROB Occupancy at Mispredict: 35.04
Branch type MPKI
BRANCH_DIRECT_JUMP: 0
BRANCH_INDIRECT: 0
BRANCH_CONDITIONAL: 16.49
BRANCH_DIRECT_CALL: 0
BRANCH_INDIRECT_CALL: 0
BRANCH_RETURN: 0

cpu0->cpu0_STLB TOTAL        ACCESS:    6872432 HIT:    6578111 MISS:     294321 MSHR_MERGE:          0
cpu0->cpu0_STLB LOAD         ACCESS:    6872432 HIT:    6578111 MISS:     294321 MSHR_MERGE:          0
cpu0->cpu0_STLB RFO          ACCESS:          0 HIT:          0 MISS:          0 MSHR_MERGE:          0
cpu0->cpu0_STLB PREFETCH     ACCESS:          0 HIT:          0 MISS:          0 MSHR_MERGE:          0
cpu0->cpu0_STLB WRITE        ACCESS:          0 HIT:          0 MISS:          0 MSHR_MERGE:          0
cpu0->cpu0_STLB TRANSLATION  ACCESS:          0 HIT:          0 MISS:          0 MSHR_MERGE:          0
cpu0->cpu0_STLB PREFETCH REQUESTED:          0 ISSUED:          0 USEFUL:          0 USELESS:          0 LATE:          0 TOO_EARLY:          0
cpu0->cpu0_STLB AVERAGE MISS LATENCY: 59.34 cycles
cpu0->cpu0_L2C TOTAL        ACCESS:   18961187 HIT:   11871031 MISS:    7090156 MSHR_MERGE:    1064491
cpu0->cpu0_L2C LOAD         ACCESS:    6102508 HIT:    1946771 MISS:    4155737 MSHR_MERGE:      14343
cpu0->cpu0_L2C RFO          ACCESS:          1 HIT:          1 MISS:          0 MSHR_MERGE:          0
cpu0->cpu0_L2C PREFETCH     ACCESS:   12519555 HIT:    9653096 MISS:    2866459 MSHR_MERGE:    1050148
cpu0->cpu0_L2C WRITE        ACCESS:     107503 HIT:     107246 MISS:        257 MSHR_MERGE:          0
cpu0->cpu0_L2C TRANSLATION  ACCESS:     231620 HIT:     163917 MISS:      67703 MSHR_MERGE:          0
cpu0->cpu0_L2C PREFETCH REQUESTED:    1986514 ISSUED:    1979441 USEFUL:     243521 USELESS:      47074 LATE:       2117 TOO_EARLY:       2962
cpu0->cpu0_L2C AVERAGE MISS LATENCY: 135.9 cycles
cpu0->cpu0_L1I TOTAL        ACCESS:     527670 HIT:     527670 MISS:          0 MSHR_MERGE:          0
cpu0->cpu0_L1I LOAD         ACCESS:     527670 HIT:     527670 MISS:          0 MSHR_MERGE:          0
cpu0->cpu0_L1I RFO          ACCESS:          0 HIT:          0 MISS:          0 MSHR_MERGE:          0
cpu0->cpu0_L1I PREFETCH     ACCESS:          0 HIT:          0 MISS:          0 MSHR_MERGE:          0
cpu0->cpu0_L1I WRITE        ACCESS:          0 HIT:          0 MISS:          0 MSHR_MERGE:          0
cpu0->cpu0_L1I TRANSLATION  ACCESS:          0 HIT:          0 MISS:          0 MSHR_MERGE:          0
cpu0->cpu0_L1I PREFETCH REQUESTED:          0 ISSUED:          0 USEFUL:          0 USELESS:          0 LATE:          0 TOO_EARLY:          0
cpu0->cpu0_L1I AVERAGE MISS LATENCY: - cycles
cpu0->cpu0_L1D TOTAL        ACCESS:   49405831 HIT:   30943400 MISS:   18462431 MSHR_MERGE:    1224747
cpu0->cpu0_L1D LOAD         ACCESS:   22162387 HIT:   14938105 MISS:    7224282 MSHR_MERGE:    1121774
cpu0->cpu0_L1D RFO          ACCESS:          0 HIT:          0 MISS:          0 MSHR_MERGE:          0
cpu0->cpu0_L1D PREFETCH     ACCESS:   25181592 HIT:   14178789 MISS:   11002803 MSHR_MERGE:      99248
cpu0->cpu0_L1D WRITE        ACCESS:    1478762 HIT:    1478759 MISS:          3 MSHR_MERGE:          2
cpu0->cpu0_L1D TRANSLATION  ACCESS:     583090 HIT:     347747 MISS:     235343 MSHR_MERGE:       3723
cpu0->cpu0_L1D PREFETCH REQUESTED:   59431188 ISSUED:   25181585 USEFUL:     730692 USELESS:     243497 LATE:       7792 TOO_EARLY:       1467
cpu0->cpu0_L1D AVERAGE MISS LATENCY: 99.38 cycles
cpu0->cpu0_ITLB TOTAL        ACCESS:     527670 HIT:     527670 MISS:          0 MSHR_MERGE:          0
cpu0->cpu0_ITLB LOAD         ACCESS:     527670 HIT:     527670 MISS:          0 MSHR_MERGE:          0
cpu0->cpu0_ITLB RFO          ACCESS:          0 HIT:          0 MISS:          0 MSHR_MERGE:          0
cpu0->cpu0_ITLB PREFETCH     ACCESS:          0 HIT:          0 MISS:          0 MSHR_MERGE:          0
cpu0->cpu0_ITLB WRITE        ACCESS:          0 HIT:          0 MISS:          0 MSHR_MERGE:          0
cpu0->cpu0_ITLB TRANSLATION  ACCESS:          0 HIT:          0 MISS:          0 MSHR_MERGE:          0
cpu0->cpu0_ITLB PREFETCH REQUESTED:          0 ISSUED:          0 USEFUL:          0 USELESS:          0 LATE:          0 TOO_EARLY:          0
cpu0->cpu0_ITLB AVERAGE MISS LATENCY: - cycles
cpu0->cpu0_DTLB TOTAL        ACCESS:   39665144 HIT:   32427797 MISS:    7237347 MSHR_MERGE:     364914
cpu0->cpu0_DTLB LOAD         ACCESS:   39665144 HIT:   32427797 MISS:    7237347 MSHR_MERGE:     364914
cpu0->cpu0_DTLB RFO          ACCESS:          0 HIT:          0 MISS:          0 MSHR_MERGE:          0
cpu0->cpu0_DTLB PREFETCH     ACCESS:          0 HIT:          0 MISS:          0 MSHR_MERGE:          0
cpu0->cpu0_DTLB WRITE        ACCESS:          0 HIT:          0 MISS:          0 MSHR_MERGE:          0
cpu0->cpu0_DTLB TRANSLATION  ACCESS:          0 HIT:          0 MISS:          0 MSHR_MERGE:          0
cpu0->cpu0_DTLB PREFETCH REQUESTED:          0 ISSUED:          0 USEFUL:          0 USELESS:          0 LATE:          0 TOO_EARLY:          0
cpu0->cpu0_DTLB AVERAGE MISS LATENCY: 7.624 cycles
cpu0->LLC TOTAL        ACCESS:    6131364 HIT:    2118609 MISS:    4012755 MSHR_MERGE:       5103
cpu0->LLC LOAD         ACCESS:    4141394 HIT:    2003504 MISS:    2137890 MSHR_MERGE:         92
cpu0->LLC RFO          ACCESS:          0 HIT:          0 MISS:          0 MSHR_MERGE:          0
cpu0->LLC PREFETCH     ACCESS:    1816311 HIT:      33015 MISS:    1783296 MSHR_MERGE:       5011
cpu0->LLC WRITE        ACCESS:     105956 HIT:      21124 MISS:      84832 MSHR_MERGE:          0
cpu0->LLC TRANSLATION  ACCESS:      67703 HIT:      60966 MISS:       6737 MSHR_MERGE:          0
cpu0->LLC PREFETCH REQUESTED:          0 ISSUED:          0 USEFUL:          0 USELESS:          0 LATE:          0 TOO_EARLY:          0
cpu0->LLC AVERAGE MISS LATENCY: 227.6 cycles

DRAM Statistics

Channel 0 RQ ROW_BUFFER_HIT:     104254
  ROW_BUFFER_MISS:    3818559
  AVG DBUS CONGESTED CYCLE: 9.525
Channel 0 WQ ROW_BUFFER_HIT:      28277
  ROW_BUFFER_MISS:      78269
  FULL:          0
Channel 0 REFRESHES ISSUED:      24387

[ROI Statistics]
[System Configuration]
num_cpus 1
cpu_freq 4000
fetch_width 6
decode_width 6
dispatch_width 6
execute_width 6
lq_width 2
sq_width 2
retire_width 6
scheduler_size 128
branch_mispredict_penalty 15
rob_size 352
lq_size 128
sq_size 72
ifetch_buffer_size 64
decode_buffer_size 32
dispatch_buffer_size 32
register_file_size 288
decode_latency 1
dispatch_latency 1
schedule_latency 1
execute_latency 1
page_size 4096
block_size 64
core_0_itlb_set 16
core_0_itlb_way 4
core_0_itlb_rq_size 16
core_0_itlb_wq_size 16
core_0_itlb_pq_size 0
core_0_itlb_mshr_size 8
core_0_itlb_hit_latency 1
core_0_itlb_fill_latency 1
core_0_itlb_max_tag_check 2
core_0_itlb_max_fill 2
core_0_dtlb_set 16
core_0_dtlb_way 4
core_0_dtlb_rq_size 16
core_0_dtlb_wq_size 16
core_0_dtlb_pq_size 0
core_0_dtlb_mshr_size 8
core_0_dtlb_hit_latency 1
core_0_dtlb_fill_latency 1
core_0_dtlb_max_tag_check 2
core_0_dtlb_max_fill 2
core_0_stlb_set 128
core_0_stlb_way 12
core_0_stlb_rq_size 32
core_0_stlb_wq_size 32
core_0_stlb_pq_size 0
core_0_stlb_mshr_size 16
core_0_stlb_hit_latency 4
core_0_stlb_fill_latency 4
core_0_stlb_max_tag_check 1
core_0_stlb_max_fill 1
core_0_l1i_set 64
core_0_l1i_way 8
core_0_l1i_rq_size 64
core_0_l1i_wq_size 64
core_0_l1i_pq_size 32
core_0_l1i_mshr_size 8
core_0_l1i_hit_latency 2
core_0_l1i_fill_latency 2
core_0_l1i_max_tag_check 2
core_0_l1i_max_fill 2
core_0_l1d_set 64
core_0_l1d_way 12
core_0_l1d_rq_size 64
core_0_l1d_wq_size 64
core_0_l1d_pq_size 8
core_0_l1d_mshr_size 16
core_0_l1d_hit_latency 2
core_0_l1d_fill_latency 3
core_0_l1d_max_tag_check 2
core_0_l1d_max_fill 2
core_0_l2c_set 1024
core_0_l2c_way 8
core_0_l2c_rq_size 32
core_0_l2c_wq_size 32
core_0_l2c_pq_size 16
core_0_l2c_mshr_size 32
core_0_l2c_hit_latency 5
core_0_l2c_fill_latency 5
core_0_l2c_max_tag_check 1
core_0_l2c_max_fill 1
llc_set 2048
llc_way 16
llc_rq_size 32
llc_wq_size 32
llc_pq_size 32
llc_mshr_size 64
llc_hit_latency 10
llc_fill_latency 10
llc_max_tag_check 1
llc_max_fill 1
dram_channels 1
dram_ranks 1
dram_bankgroups 8
dram_banks 4
dram_rows 65536
dram_columns 1024
dram_channel_width 8
dram_rq_size 64
dram_wq_size 64
dram_size 17179869184
core_0_itlb_prefetcher no
core_0_dtlb_prefetcher no
core_0_stlb_prefetcher no
core_0_l1i_prefetcher next_line
core_0_l1d_prefetcher vberti
core_0_l2c_prefetcher ip_stride
llc_prefetcher no
llc_replacement drrip

Core_0_instructions 100000005
Core_0_cycles 292645431
Core_0_IPC 0.34171
Core_0_branch_prediction_accuracy 91.952
Core_0_branch_MPKI 16.4947
Core_0_average_ROB_occupancy_at_mispredict 35.0364

Core_0_ITLB_total_access 527670
Core_0_ITLB_total_hit 527670
Core_0_ITLB_total_miss 0
Core_0_ITLB_total_MPKI 0
Core_0_ITLB_total_miss_rate 0
Core_0_ITLB_demand_access 527670
Core_0_ITLB_demand_hit 527670
Core_0_ITLB_demand_miss 0
Core_0_ITLB_demand_MPKI 0
Core_0_ITLB_demand_miss_rate 0
Core_0_ITLB_load_access 527670
Core_0_ITLB_load_hit 527670
Core_0_ITLB_load_miss 0
Core_0_ITLB_load_MPKI 0
Core_0_ITLB_load_miss_rate 0
Core_0_ITLB_rfo_access 0
Core_0_ITLB_rfo_hit 0
Core_0_ITLB_rfo_miss 0
Core_0_ITLB_rfo_MPKI 0
Core_0_ITLB_rfo_miss_rate 0
Core_0_ITLB_prefetch_access 0
Core_0_ITLB_prefetch_hit 0
Core_0_ITLB_prefetch_miss 0
Core_0_ITLB_prefetch_MPKI 0
Core_0_ITLB_prefetch_miss_rate 0
Core_0_ITLB_writeback_access 0
Core_0_ITLB_writeback_hit 0
Core_0_ITLB_writeback_miss 0
Core_0_ITLB_writeback_MPKI 0
Core_0_ITLB_writeback_miss_rate 0
Core_0_ITLB_prefetch_requested 0
Core_0_ITLB_prefetch_issued 0
Core_0_ITLB_prefetch_useful 0
Core_0_ITLB_prefetch_useless 0
Core_0_ITLB_prefetch_late 0
Core_0_ITLB_prefetch_fill 0
Core_0_ITLB_prefetch_too_early 0
Core_0_ITLB_prefetch_too_early_among_fill 0
Core_0_ITLB_prefetch_too_early_among_useless 0
Core_0_ITLB_prefetch_pollution_evict 0
Core_0_ITLB_prefetch_pollution_demand 0
Core_0_ITLB_prefetch_pollution_among_prefetch_fill 0
Core_0_ITLB_prefetch_accuracy 0
Core_0_ITLB_prefetch_coverage 0

Core_0_DTLB_total_access 39665144
Core_0_DTLB_total_hit 32427797
Core_0_DTLB_total_miss 7237347
Core_0_DTLB_total_MPKI 72.3735
Core_0_DTLB_total_miss_rate 0.182461
Core_0_DTLB_demand_access 39665144
Core_0_DTLB_demand_hit 32427797
Core_0_DTLB_demand_miss 7237347
Core_0_DTLB_demand_MPKI 72.3735
Core_0_DTLB_demand_miss_rate 0.182461
Core_0_DTLB_load_access 39665144
Core_0_DTLB_load_hit 32427797
Core_0_DTLB_load_miss 7237347
Core_0_DTLB_load_MPKI 72.3735
Core_0_DTLB_load_miss_rate 0.182461
Core_0_DTLB_rfo_access 0
Core_0_DTLB_rfo_hit 0
Core_0_DTLB_rfo_miss 0
Core_0_DTLB_rfo_MPKI 0
Core_0_DTLB_rfo_miss_rate 0
Core_0_DTLB_prefetch_access 0
Core_0_DTLB_prefetch_hit 0
Core_0_DTLB_prefetch_miss 0
Core_0_DTLB_prefetch_MPKI 0
Core_0_DTLB_prefetch_miss_rate 0
Core_0_DTLB_writeback_access 0
Core_0_DTLB_writeback_hit 0
Core_0_DTLB_writeback_miss 0
Core_0_DTLB_writeback_MPKI 0
Core_0_DTLB_writeback_miss_rate 0
Core_0_DTLB_prefetch_requested 0
Core_0_DTLB_prefetch_issued 0
Core_0_DTLB_prefetch_useful 0
Core_0_DTLB_prefetch_useless 0
Core_0_DTLB_prefetch_late 0
Core_0_DTLB_prefetch_fill 0
Core_0_DTLB_prefetch_too_early 0
Core_0_DTLB_prefetch_too_early_among_fill 0
Core_0_DTLB_prefetch_too_early_among_useless 0
Core_0_DTLB_prefetch_pollution_evict 0
Core_0_DTLB_prefetch_pollution_demand 0
Core_0_DTLB_prefetch_pollution_among_prefetch_fill 0
Core_0_DTLB_prefetch_accuracy 0
Core_0_DTLB_prefetch_coverage 0

Core_0_STLB_total_access 6872432
Core_0_STLB_total_hit 6578111
Core_0_STLB_total_miss 294321
Core_0_STLB_total_MPKI 2.94321
Core_0_STLB_total_miss_rate 0.0428263
Core_0_STLB_demand_access 6872432
Core_0_STLB_demand_hit 6578111
Core_0_STLB_demand_miss 294321
Core_0_STLB_demand_MPKI 2.94321
Core_0_STLB_demand_miss_rate 0.0428263
Core_0_STLB_load_access 6872432
Core_0_STLB_load_hit 6578111
Core_0_STLB_load_miss 294321
Core_0_STLB_load_MPKI 2.94321
Core_0_STLB_load_miss_rate 0.0428263
Core_0_STLB_rfo_access 0
Core_0_STLB_rfo_hit 0
Core_0_STLB_rfo_miss 0
Core_0_STLB_rfo_MPKI 0
Core_0_STLB_rfo_miss_rate 0
Core_0_STLB_prefetch_access 0
Core_0_STLB_prefetch_hit 0
Core_0_STLB_prefetch_miss 0
Core_0_STLB_prefetch_MPKI 0
Core_0_STLB_prefetch_miss_rate 0
Core_0_STLB_writeback_access 0
Core_0_STLB_writeback_hit 0
Core_0_STLB_writeback_miss 0
Core_0_STLB_writeback_MPKI 0
Core_0_STLB_writeback_miss_rate 0
Core_0_STLB_prefetch_requested 0
Core_0_STLB_prefetch_issued 0
Core_0_STLB_prefetch_useful 0
Core_0_STLB_prefetch_useless 0
Core_0_STLB_prefetch_late 0
Core_0_STLB_prefetch_fill 0
Core_0_STLB_prefetch_too_early 0
Core_0_STLB_prefetch_too_early_among_fill 0
Core_0_STLB_prefetch_too_early_among_useless 0
Core_0_STLB_prefetch_pollution_evict 0
Core_0_STLB_prefetch_pollution_demand 0
Core_0_STLB_prefetch_pollution_among_prefetch_fill 0
Core_0_STLB_prefetch_accuracy 0
Core_0_STLB_prefetch_coverage 0

Core_0_L1I_total_access 527670
Core_0_L1I_total_hit 527670
Core_0_L1I_total_miss 0
Core_0_L1I_total_MPKI 0
Core_0_L1I_total_miss_rate 0
Core_0_L1I_demand_access 527670
Core_0_L1I_demand_hit 527670
Core_0_L1I_demand_miss 0
Core_0_L1I_demand_MPKI 0
Core_0_L1I_demand_miss_rate 0
Core_0_L1I_load_access 527670
Core_0_L1I_load_hit 527670
Core_0_L1I_load_miss 0
Core_0_L1I_load_MPKI 0
Core_0_L1I_load_miss_rate 0
Core_0_L1I_rfo_access 0
Core_0_L1I_rfo_hit 0
Core_0_L1I_rfo_miss 0
Core_0_L1I_rfo_MPKI 0
Core_0_L1I_rfo_miss_rate 0
Core_0_L1I_prefetch_access 0
Core_0_L1I_prefetch_hit 0
Core_0_L1I_prefetch_miss 0
Core_0_L1I_prefetch_MPKI 0
Core_0_L1I_prefetch_miss_rate 0
Core_0_L1I_writeback_access 0
Core_0_L1I_writeback_hit 0
Core_0_L1I_writeback_miss 0
Core_0_L1I_writeback_MPKI 0
Core_0_L1I_writeback_miss_rate 0
Core_0_L1I_prefetch_requested 0
Core_0_L1I_prefetch_issued 0
Core_0_L1I_prefetch_useful 0
Core_0_L1I_prefetch_useless 0
Core_0_L1I_prefetch_late 0
Core_0_L1I_prefetch_fill 0
Core_0_L1I_prefetch_too_early 0
Core_0_L1I_prefetch_too_early_among_fill 0
Core_0_L1I_prefetch_too_early_among_useless 0
Core_0_L1I_prefetch_pollution_evict 0
Core_0_L1I_prefetch_pollution_demand 0
Core_0_L1I_prefetch_pollution_among_prefetch_fill 0
Core_0_L1I_prefetch_accuracy 0
Core_0_L1I_prefetch_coverage 0

Core_0_L1D_total_access 48822741
Core_0_L1D_total_hit 30595653
Core_0_L1D_total_miss 18227088
Core_0_L1D_total_MPKI 182.271
Core_0_L1D_total_miss_rate 0.373332
Core_0_L1D_demand_access 22162387
Core_0_L1D_demand_hit 14938105
Core_0_L1D_demand_miss 7224282
Core_0_L1D_demand_MPKI 72.2428
Core_0_L1D_demand_miss_rate 0.32597
Core_0_L1D_load_access 22162387
Core_0_L1D_load_hit 14938105
Core_0_L1D_load_miss 7224282
Core_0_L1D_load_MPKI 72.2428
Core_0_L1D_load_miss_rate 0.32597
Core_0_L1D_rfo_access 0
Core_0_L1D_rfo_hit 0
Core_0_L1D_rfo_miss 0
Core_0_L1D_rfo_MPKI 0
Core_0_L1D_rfo_miss_rate 0
Core_0_L1D_prefetch_access 25181592
Core_0_L1D_prefetch_hit 14178789
Core_0_L1D_prefetch_miss 11002803
Core_0_L1D_prefetch_MPKI 110.028
Core_0_L1D_prefetch_miss_rate 0.436938
Core_0_L1D_writeback_access 1478762
Core_0_L1D_writeback_hit 1478759
Core_0_L1D_writeback_miss 3
Core_0_L1D_writeback_MPKI 3e-05
Core_0_L1D_writeback_miss_rate 2.02872e-06
Core_0_L1D_prefetch_requested 59431188
Core_0_L1D_prefetch_issued 25181585
Core_0_L1D_prefetch_useful 730692
Core_0_L1D_prefetch_useless 243497
Core_0_L1D_prefetch_late 7792
Core_0_L1D_prefetch_fill 966428
Core_0_L1D_prefetch_too_early 1467
Core_0_L1D_prefetch_too_early_among_fill 0.00151796
Core_0_L1D_prefetch_too_early_among_useless 0.00602471
Core_0_L1D_prefetch_pollution_evict 185042
Core_0_L1D_prefetch_pollution_demand 184931
Core_0_L1D_prefetch_pollution_among_prefetch_fill 0.19147
Core_0_L1D_prefetch_accuracy 0.0290169
Core_0_L1D_prefetch_coverage 0.0918535

Core_0_L2C_total_access 18729567
Core_0_L2C_total_hit 11707114
Core_0_L2C_total_miss 7022453
Core_0_L2C_total_MPKI 70.2245
Core_0_L2C_total_miss_rate 0.374939
Core_0_L2C_demand_access 6102509
Core_0_L2C_demand_hit 1946772
Core_0_L2C_demand_miss 4155737
Core_0_L2C_demand_MPKI 41.5574
Core_0_L2C_demand_miss_rate 0.680988
Core_0_L2C_load_access 6102508
Core_0_L2C_load_hit 1946771
Core_0_L2C_load_miss 4155737
Core_0_L2C_load_MPKI 41.5574
Core_0_L2C_load_miss_rate 0.680988
Core_0_L2C_rfo_access 1
Core_0_L2C_rfo_hit 1
Core_0_L2C_rfo_miss 0
Core_0_L2C_rfo_MPKI 0
Core_0_L2C_rfo_miss_rate 0
Core_0_L2C_prefetch_access 12519555
Core_0_L2C_prefetch_hit 9653096
Core_0_L2C_prefetch_miss 2866459
Core_0_L2C_prefetch_MPKI 28.6646
Core_0_L2C_prefetch_miss_rate 0.228959
Core_0_L2C_writeback_access 107503
Core_0_L2C_writeback_hit 107246
Core_0_L2C_writeback_miss 257
Core_0_L2C_writeback_MPKI 0.00257
Core_0_L2C_writeback_miss_rate 0.00239063
Core_0_L2C_prefetch_requested 1986514
Core_0_L2C_prefetch_issued 1979441
Core_0_L2C_prefetch_useful 243521
Core_0_L2C_prefetch_useless 47074
Core_0_L2C_prefetch_late 2117
Core_0_L2C_prefetch_fill 1791291
Core_0_L2C_prefetch_too_early 2962
Core_0_L2C_prefetch_too_early_among_fill 0.00165356
Core_0_L2C_prefetch_too_early_among_useless 0.0629222
Core_0_L2C_prefetch_pollution_evict 388480
Core_0_L2C_prefetch_pollution_demand 388192
Core_0_L2C_prefetch_pollution_among_prefetch_fill 0.216872
Core_0_L2C_prefetch_accuracy 0.123025
Core_0_L2C_prefetch_coverage 0.055355

Core_0_LLC_total_access 6063661
Core_0_LLC_total_hit 2057643
Core_0_LLC_total_miss 4006018
Core_0_LLC_total_MPKI 40.0602
Core_0_LLC_total_miss_rate 0.66066
Core_0_LLC_demand_access 4141394
Core_0_LLC_demand_hit 2003504
Core_0_LLC_demand_miss 2137890
Core_0_LLC_demand_MPKI 21.3789
Core_0_LLC_demand_miss_rate 0.516225
Core_0_LLC_load_access 4141394
Core_0_LLC_load_hit 2003504
Core_0_LLC_load_miss 2137890
Core_0_LLC_load_MPKI 21.3789
Core_0_LLC_load_miss_rate 0.516225
Core_0_LLC_rfo_access 0
Core_0_LLC_rfo_hit 0
Core_0_LLC_rfo_miss 0
Core_0_LLC_rfo_MPKI 0
Core_0_LLC_rfo_miss_rate 0
Core_0_LLC_prefetch_access 1816311
Core_0_LLC_prefetch_hit 33015
Core_0_LLC_prefetch_miss 1783296
Core_0_LLC_prefetch_MPKI 17.833
Core_0_LLC_prefetch_miss_rate 0.981823
Core_0_LLC_writeback_access 105956
Core_0_LLC_writeback_hit 21124
Core_0_LLC_writeback_miss 84832
Core_0_LLC_writeback_MPKI 0.84832
Core_0_LLC_writeback_miss_rate 0.800634
Core_0_LLC_prefetch_requested 0
Core_0_LLC_prefetch_issued 0
Core_0_LLC_prefetch_useful 0
Core_0_LLC_prefetch_useless 0
Core_0_LLC_prefetch_late 0
Core_0_LLC_prefetch_fill 1778184
Core_0_LLC_prefetch_too_early 0
Core_0_LLC_prefetch_too_early_among_fill 0
Core_0_LLC_prefetch_too_early_among_useless 0
Core_0_LLC_prefetch_pollution_evict 453586
Core_0_LLC_prefetch_pollution_demand 453586
Core_0_LLC_prefetch_pollution_among_prefetch_fill 0.255084
Core_0_LLC_prefetch_accuracy 0
Core_0_LLC_prefetch_coverage 0

[DRAM Statistics]
Channel_0_RQ_row_buffer_hit 104254
Channel_0_RQ_row_buffer_miss 3818559
Channel_0_WQ_row_buffer_hit 28277
Channel_0_WQ_row_buffer_miss 78269
Channel_0_WQ_full 0
Channel_0_dbus_congested 7502025
DRAM_total_RQ_row_buffer_hit 104254
DRAM_total_RQ_row_buffer_miss 3818559
DRAM_total_WQ_row_buffer_hit 28277
DRAM_total_WQ_row_buffer_miss 78269
DRAM_total_WQ_full 0
DRAM_total_dbus_congested 7502025
DRAM_avg_congested_cycle 9.52454

====== DRAM_RQ_TRAFFIC ========
DRAM_RQ_READ_TRAFFIC_BREAKDOWN:
data_demand_read.count = 2137798
data_demand_read.share = 54.50%

inst_demand_read.count = 0
inst_demand_read.share = 0.00%

cache_inst_prefetch.count = 0
cache_inst_prefetch.share = 0.00%

cache_data_prefetch.count = 1778286
cache_data_prefetch.share = 45.33%

stlb_data_demand.count = 2666
stlb_data_demand.share = 0.07%

stlb_inst_demand.count = 0
stlb_inst_demand.share = 0.00%

stlb_l1i_pref.count = 0
stlb_l1i_pref.share = 0.00%

stlb_l1d_pref.count = 4071
stlb_l1d_pref.share = 0.10%

DRAM_RQ_READ_TRAFFIC_SUMMARY:
cache_demand.count = 2137798
cache_demand.share = 54.50%

cache_prefetch.count = 1778286
cache_prefetch.share = 45.33%

stlb_demand.count = 2666
stlb_demand.share = 0.07%

stlb_prefetch.count = 4071
stlb_prefetch.share = 0.10%

DRAM_RQ_READ_TRAFFIC_DEBUG:
total_classified_read.count = 3922821
unclassified_read.count = 0
total_read_with_other.count = 3922821

classified_plus_unclassified_check.count = 3922821
dram_rq_read_total_observed.count = 3922821
dram_rq_read_total_observed.per_1K_instructions = 39.2282

STLB_MISS_PTW_DRAM_TOUCH_BREAKDOWN:
stlb_miss_total.count = 294320

stlb_miss_touch_dram.count = 6657
stlb_miss_touch_dram.share = 2.26%

stlb_miss_no_dram_touch.count = 287663
stlb_miss_no_dram_touch.share = 97.74%

STLB_MISS_PTW_DRAM_TOUCH_DEBUG:
stlb_miss_touch_plus_no_touch.count = 294320
stlb_miss_total_check.count = 294320

======STLB miss causes ========
Core_0_STLB_miss_cause_breakdown
Core_0_STLB_cause_Demand_Data_miss 261069
Core_0_STLB_cause_Demand_Data_miss_rate 0.0379879
Core_0_STLB_cause_Demand_Instruction_miss 0
Core_0_STLB_cause_Demand_Instruction_miss_rate 0
Core_0_STLB_cause_L1D_Prefetch_miss 33252
Core_0_STLB_cause_L1D_Prefetch_miss_rate 0.00483846
Core_0_STLB_cause_L1D_Prefetch_Same_Page_miss 0
Core_0_STLB_cause_L1D_Prefetch_Same_Page_miss_rate 0
Core_0_STLB_cause_L1D_Prefetch_Cross_Page_miss 33252
Core_0_STLB_cause_L1D_Prefetch_Cross_Page_miss_rate 0.00483846
Core_0_STLB_cause_L1I_Prefetch_miss 0
Core_0_STLB_cause_L1I_Prefetch_miss_rate 0
Core_0_STLB_cause_Other_miss 0
Core_0_STLB_cause_Other_miss_rate 0
Core_0_STLB_Demand_miss 261069
Core_0_STLB_Demand_miss_rate 0.0379879
Core_0_STLB_L1D_Prefetch_miss 33252
Core_0_STLB_L1D_Prefetch_miss_rate 0.00483846
Core_0_STLB_Other_miss 0
Core_0_STLB_Other_miss_rate 0

========== vBerti-TLB Cross-page Flow Stats ==========

Core_0_vBerti_Requested 59431188
Core_0_vBerti_Cross_page_prefetch_in_Requested 7680284
Core_0_vBerti_Same_page_prefetch_in_Requested 51750904
Core_0_vBerti_Cross_page_prefetch_of_Requested 0.12923
Core_0_vBerti_Issued 25181585
Core_0_vBerti_InPQ_Same_page_prefetch 22943454
Core_0_vBerti_InPQ_Cross_page_prefetch 2238131
Core_0_vBerti_PQ_Drop_Rate 0.57629
Core_0_vBerti_InPQ_Cross_page_prefetch_of_Requested 0.0376592
Core_0_vBerti_Cross_page_PQ_Drop_rate 0.708587
Core_0_vBerti_Cross_page_prefetch_of_Issued 0.0888797
Core_0_CP_PF_PQFULL_drop 5442153
Core_0_CP_PF_PQFULL_TLB_rescue_enqueued 0
Core_0_CP_PF_PQFULL_TLB_rescue_issued 0
Core_0_CP_PF_PQFULL_TLB_rescue_translated 0

========= DTLB_vBerti Prefetch Stats =========
Core_0_DTLB_demand_access 22982099
Core_0_DTLB_demand_hit 15908173
Core_0_DTLB_demand_miss 7073926
Core_0_DTLB_demand_mshr_merge 292286
Core_0_DTLB_demand_fill 6782232
Core_0_DTLB_demand_miss_rate 0.307802
Core_0_DTLB_demand_mpki 70.7393
Core_0_DTLB_vberti_prefetch_access 16683045
Core_0_DTLB_vberti_prefetch_hit 16519624
Core_0_DTLB_vberti_prefetch_miss 163421
Core_0_DTLB_vberti_prefetch_mshr_merge 72628
Core_0_DTLB_vberti_prefetch_fill 90199
Core_0_DTLB_vberti_prefetch_miss_rate 0.00979563
Core_0_DTLB_vberti_prefetch_mpki 1.63421

=== DTLB_vBerti Same/Cross-page Prefetch Stats ===
Core_0_DTLB_vberti_same_page_prefetch 14933018
Core_0_DTLB_vberti_same_page_prefetch_hit 14932713
Core_0_DTLB_vberti_same_page_prefetch_miss 305
Core_0_DTLB_vberti_same_page_prefetch_mshr_merge 182
Core_0_DTLB_vberti_same_page_prefetch_fill 119
Core_0_DTLB_vberti_same_page_prefetch_miss_rate 2.04245e-05
Core_0_DTLB_vberti_same_page_prefetch_mpki 0.00305
Core_0_DTLB_vberti_cross_page_prefetch 1750027
Core_0_DTLB_vberti_cross_page_prefetch_hit 1586911
Core_0_DTLB_vberti_cross_page_prefetch_miss 163116
Core_0_DTLB_vberti_cross_page_prefetch_mshr_merge 72446
Core_0_DTLB_vberti_cross_page_prefetch_fill 90080
Core_0_DTLB_vberti_cross_page_prefetch_miss_rate 0.0932077
Core_0_DTLB_vberti_cross_page_prefetch_mpki 1.63116
Core_0_DTLB_same_page_prefetch_miss_rate 2.04245e-05
Core_0_DTLB_same_page_prefetch_mpki 0.00305
Core_0_DTLB_cross_page_prefetch_miss_rate 0.0932077
Core_0_DTLB_cross_page_prefetch_mpki 1.63116
Core_0_DTLB_cross_page_prefetch_issued 1750027
Core_0_DTLB_cross_page_prefetch_lookups 1750027
Core_0_DTLB_cross_page_prefetch_useful 31773
Core_0_DTLB_cross_page_prefetch_useless 58897
Core_0_DTLB_cross_page_prefetch_late 589
Core_0_DTLB_cross_page_prefetch_too_early 35598
Core_0_DTLB_cross_page_prefetch_too_early_among_fill 0.395182
Core_0_DTLB_cross_page_prefetch_too_early_among_useless 0.604411
Core_0_DTLB_cross_page_prefetch_pollution_evict 75123
Core_0_DTLB_cross_page_prefetch_pollution_demand 71171
Core_0_DTLB_cross_page_prefetch_pollution_among_prefetch_fill 0.833959
Core_0_DTLB_cross_page_prefetch_accuracy 0.0181557
Core_0_DTLB_cross_page_prefetch_coverage 0.00447148

========= STLB_vBerti Prefetch Stats =========
Core_0_STLB_demand_access 6781639
Core_0_STLB_demand_hit 6520570
Core_0_STLB_demand_miss 261069
Core_0_STLB_demand_mshr_merge 0
Core_0_STLB_demand_fill 261069
Core_0_STLB_demand_miss_rate 0.0384964
Core_0_STLB_demand_mpki 2.61069
Core_0_STLB_vberti_prefetch_access 90793
Core_0_STLB_vberti_prefetch_hit 57541
Core_0_STLB_vberti_prefetch_miss 33252
Core_0_STLB_vberti_prefetch_mshr_merge 0
Core_0_STLB_vberti_prefetch_fill 33251
Core_0_STLB_vberti_prefetch_miss_rate 0.36624
Core_0_STLB_vberti_prefetch_mpki 0.33252

=== STLB_vBerti Same/Cross-page Prefetch Stats ===
Core_0_STLB_vberti_same_page_prefetch 123
Core_0_STLB_vberti_same_page_prefetch_hit 123
Core_0_STLB_vberti_same_page_prefetch_miss 0
Core_0_STLB_vberti_same_page_prefetch_mshr_merge 0
Core_0_STLB_vberti_same_page_prefetch_fill 0
Core_0_STLB_vberti_same_page_prefetch_miss_rate 0
Core_0_STLB_vberti_same_page_prefetch_mpki 0
Core_0_STLB_vberti_cross_page_prefetch 90670
Core_0_STLB_vberti_cross_page_prefetch_hit 57418
Core_0_STLB_vberti_cross_page_prefetch_miss 33252
Core_0_STLB_vberti_cross_page_prefetch_mshr_merge 0
Core_0_STLB_vberti_cross_page_prefetch_fill 33251
Core_0_STLB_vberti_cross_page_prefetch_miss_rate 0.366737
Core_0_STLB_vberti_cross_page_prefetch_mpki 0.33252
Core_0_STLB_same_page_prefetch_miss_rate 0
Core_0_STLB_same_page_prefetch_mpki 0
Core_0_STLB_cross_page_prefetch_miss_rate 0.366737
Core_0_STLB_cross_page_prefetch_mpki 0.33252
Core_0_STLB_cross_page_prefetch_issued 90670
Core_0_STLB_cross_page_prefetch_lookups 90670
Core_0_STLB_cross_page_prefetch_useful 8073
Core_0_STLB_cross_page_prefetch_useless 25179
Core_0_STLB_cross_page_prefetch_late 0
Core_0_STLB_cross_page_prefetch_too_early 1214
Core_0_STLB_cross_page_prefetch_too_early_among_fill 0.0365102
Core_0_STLB_cross_page_prefetch_too_early_among_useless 0.0482148
Core_0_STLB_cross_page_prefetch_pollution_evict 30586
Core_0_STLB_cross_page_prefetch_pollution_demand 30176
Core_0_STLB_cross_page_prefetch_pollution_among_prefetch_fill 0.919852
Core_0_STLB_cross_page_prefetch_accuracy 0.0890372
Core_0_STLB_cross_page_prefetch_coverage 0.0299953

========= STLB Cross-page Prefetch Buffer Stats =========
Core_0_STLB_raw_demand_miss 261069
Core_0_CP_PB_insert 0
Core_0_CP_PB_demand_hit 0
Core_0_STLB_PB_demand_miss 261069
Core_0_CP_PB_coverage 0
Core_0_STLB_raw_demand_mpki 2.61069
Core_0_STLB_PB_demand_mpki 2.61069
Core_0_CP_PB_demand_hit_mpki 0

Core_0_TLB_demand_miss_rate 0.0113597
Core_0_TLB_demand_mpki 2.61069
Core_0_TLB_same_page_prefetch_miss_rate 0
Core_0_TLB_same_page_prefetch_mpki 0
Core_0_TLB_cross_page_prefetch_miss_rate 0.0190008
Core_0_TLB_cross_page_prefetch_mpki 0.33252
Core_0_TLB_cross_page_prefetch_issued 1750027
Core_0_TLB_cross_page_prefetch_lookups 1750027
Core_0_TLB_cross_page_prefetch_useful 28661
Core_0_TLB_cross_page_prefetch_useless 37036
Core_0_TLB_cross_page_prefetch_late 445
Core_0_TLB_cross_page_prefetch_too_early 18607
Core_0_TLB_cross_page_prefetch_too_early_among_fill 0.15087
Core_0_TLB_cross_page_prefetch_too_early_among_useless 0.502403
Core_0_TLB_cross_page_prefetch_accuracy 0.0163775
Core_0_TLB_cross_page_prefetch_coverage 0.0989231
BERTI TO_L1: 24447351 TO_L2: 43904201 TO_L2_BC_MSHR: 421268
BERTI AVG_LAT: 70.3034 NUM_TRACK_LATENCY: 10424528 NUM_CANT_TRACK_LATENCY: 0
BERTI CROSS_PAGE 8747227 NO_CROSS_PAGE: 59604325
BERTI FOUND_BERTI: 27891118 NO_FOUND_BERTI: 6717653
BERTI AVERAGE_ISSUED: 2.81168
