[VMEM] WARNING: physical memory size is smaller than virtual memory size.

*** ChampSim Multicore Out-of-Order Simulator ***
Warmup Instructions: 50000000
Simulation Instructions: 100000000
Number of CPUs: 1
Page size: 4096
Core 0: /data0/tzh/champsim_traces/PARSEC/parsec_2.1.canneal.simlarge.prebuilt.drop_500M.length_250M.champsimtrace.xz
VBerti Prefetcher
BERTI HASH ENTANGLING
BERTI IP MASK ffff
Off-chip DRAM Size: 16 GiB Channels: 1 Width: 64-bit Data Rate: 3205 MT/s
Warmup halting CPU 0 at instruction 50000004 cycle 11535717 for remainder of phase
Warmup finished CPU 0 instructions: 50000004 cycles: 11535717 cumulative IPC: 4.334 (Simulation time: 00 hr 02 min 58 sec)
Warmup complete CPU 0 instructions: 50000004 cycles: 11535717 cumulative IPC: 4.334 (Simulation time: 00 hr 02 min 58 sec)
Simulation finished CPU 0 instructions: 100000001 cycles: 151460997 cumulative IPC: 0.6602 (Simulation time: 00 hr 17 min 00 sec)
Simulation complete CPU 0 instructions: 100000001 cycles: 151460997 cumulative IPC: 0.6602 (Simulation time: 00 hr 17 min 00 sec)

ChampSim completed all CPUs

=== Simulation ===
CPU 0 runs /data0/tzh/champsim_traces/PARSEC/parsec_2.1.canneal.simlarge.prebuilt.drop_500M.length_250M.champsimtrace.xz

Region of Interest Statistics

CPU 0 cumulative IPC: 0.6602 instructions: 100000001 cycles: 151460997
CPU 0 Branch Prediction Accuracy: 95.88% MPKI: 8.145 Average ROB Occupancy at Mispredict: 72.55
Branch type MPKI
BRANCH_DIRECT_JUMP: 0
BRANCH_INDIRECT: 0.2084
BRANCH_CONDITIONAL: 7.774
BRANCH_DIRECT_CALL: 0.1622
BRANCH_INDIRECT_CALL: 8e-05
BRANCH_RETURN: 0

cpu0->cpu0_STLB TOTAL        ACCESS:     640758 HIT:     476237 MISS:     164521 MSHR_MERGE:          0
cpu0->cpu0_STLB LOAD         ACCESS:     640758 HIT:     476237 MISS:     164521 MSHR_MERGE:          0
cpu0->cpu0_STLB RFO          ACCESS:          0 HIT:          0 MISS:          0 MSHR_MERGE:          0
cpu0->cpu0_STLB PREFETCH     ACCESS:          0 HIT:          0 MISS:          0 MSHR_MERGE:          0
cpu0->cpu0_STLB WRITE        ACCESS:          0 HIT:          0 MISS:          0 MSHR_MERGE:          0
cpu0->cpu0_STLB TRANSLATION  ACCESS:          0 HIT:          0 MISS:          0 MSHR_MERGE:          0
cpu0->cpu0_STLB PREFETCH REQUESTED:          0 ISSUED:          0 USEFUL:          0 USELESS:          0 LATE:          0 TOO_EARLY:          0
cpu0->cpu0_STLB AVERAGE MISS LATENCY: 25.25 cycles
cpu0->cpu0_L2C TOTAL        ACCESS:    1549952 HIT:     762656 MISS:     787296 MSHR_MERGE:       8035
cpu0->cpu0_L2C LOAD         ACCESS:     990302 HIT:     343455 MISS:     646847 MSHR_MERGE:          0
cpu0->cpu0_L2C RFO          ACCESS:       2121 HIT:        768 MISS:       1353 MSHR_MERGE:         22
cpu0->cpu0_L2C PREFETCH     ACCESS:     219001 HIT:     117761 MISS:     101240 MSHR_MERGE:       8013
cpu0->cpu0_L2C WRITE        ACCESS:     195433 HIT:     194937 MISS:        496 MSHR_MERGE:          0
cpu0->cpu0_L2C TRANSLATION  ACCESS:     143095 HIT:     105735 MISS:      37360 MSHR_MERGE:          0
cpu0->cpu0_L2C PREFETCH REQUESTED:      49882 ISSUED:      49882 USEFUL:      28418 USELESS:       2012 LATE:          0 TOO_EARLY:        163
cpu0->cpu0_L2C AVERAGE MISS LATENCY: 130.3 cycles
cpu0->cpu0_L1I TOTAL        ACCESS:   10728145 HIT:   10706648 MISS:      21497 MSHR_MERGE:        571
cpu0->cpu0_L1I LOAD         ACCESS:   10728145 HIT:   10706648 MISS:      21497 MSHR_MERGE:        571
cpu0->cpu0_L1I RFO          ACCESS:          0 HIT:          0 MISS:          0 MSHR_MERGE:          0
cpu0->cpu0_L1I PREFETCH     ACCESS:          0 HIT:          0 MISS:          0 MSHR_MERGE:          0
cpu0->cpu0_L1I WRITE        ACCESS:          0 HIT:          0 MISS:          0 MSHR_MERGE:          0
cpu0->cpu0_L1I TRANSLATION  ACCESS:          0 HIT:          0 MISS:          0 MSHR_MERGE:          0
cpu0->cpu0_L1I PREFETCH REQUESTED:          0 ISSUED:          0 USEFUL:          0 USELESS:          0 LATE:          0 TOO_EARLY:          0
cpu0->cpu0_L1I AVERAGE MISS LATENCY: 7.502 cycles
cpu0->cpu0_L1D TOTAL        ACCESS:   30583155 HIT:   29257388 MISS:    1325767 MSHR_MERGE:      41927
cpu0->cpu0_L1D LOAD         ACCESS:   18977968 HIT:   17967892 MISS:    1010076 MSHR_MERGE:      40699
cpu0->cpu0_L1D RFO          ACCESS:          0 HIT:          0 MISS:          0 MSHR_MERGE:          0
cpu0->cpu0_L1D PREFETCH     ACCESS:     444602 HIT:     275182 MISS:     169420 MSHR_MERGE:        173
cpu0->cpu0_L1D WRITE        ACCESS:   10831747 HIT:   10828760 MISS:       2987 MSHR_MERGE:        866
cpu0->cpu0_L1D TRANSLATION  ACCESS:     328838 HIT:     185554 MISS:     143284 MSHR_MERGE:        189
cpu0->cpu0_L1D PREFETCH REQUESTED:     444601 ISSUED:     444601 USEFUL:      66706 USELESS:        392 LATE:         79 TOO_EARLY:         23
cpu0->cpu0_L1D AVERAGE MISS LATENCY: 88.83 cycles
cpu0->cpu0_ITLB TOTAL        ACCESS:    9346545 HIT:    9346464 MISS:         81 MSHR_MERGE:         27
cpu0->cpu0_ITLB LOAD         ACCESS:    9346545 HIT:    9346464 MISS:         81 MSHR_MERGE:         27
cpu0->cpu0_ITLB RFO          ACCESS:          0 HIT:          0 MISS:          0 MSHR_MERGE:          0
cpu0->cpu0_ITLB PREFETCH     ACCESS:          0 HIT:          0 MISS:          0 MSHR_MERGE:          0
cpu0->cpu0_ITLB WRITE        ACCESS:          0 HIT:          0 MISS:          0 MSHR_MERGE:          0
cpu0->cpu0_ITLB TRANSLATION  ACCESS:          0 HIT:          0 MISS:          0 MSHR_MERGE:          0
cpu0->cpu0_ITLB PREFETCH REQUESTED:          0 ISSUED:          0 USEFUL:          0 USELESS:          0 LATE:          0 TOO_EARLY:          0
cpu0->cpu0_ITLB AVERAGE MISS LATENCY: 48.57 cycles
cpu0->cpu0_DTLB TOTAL        ACCESS:   28895931 HIT:   28130347 MISS:     765584 MSHR_MERGE:     124880
cpu0->cpu0_DTLB LOAD         ACCESS:   28895931 HIT:   28130347 MISS:     765584 MSHR_MERGE:     124880
cpu0->cpu0_DTLB RFO          ACCESS:          0 HIT:          0 MISS:          0 MSHR_MERGE:          0
cpu0->cpu0_DTLB PREFETCH     ACCESS:          0 HIT:          0 MISS:          0 MSHR_MERGE:          0
cpu0->cpu0_DTLB WRITE        ACCESS:          0 HIT:          0 MISS:          0 MSHR_MERGE:          0
cpu0->cpu0_DTLB TRANSLATION  ACCESS:          0 HIT:          0 MISS:          0 MSHR_MERGE:          0
cpu0->cpu0_DTLB PREFETCH REQUESTED:          0 ISSUED:          0 USEFUL:          0 USELESS:          0 LATE:          0 TOO_EARLY:          0
cpu0->cpu0_DTLB AVERAGE MISS LATENCY: 11.74 cycles
cpu0->LLC TOTAL        ACCESS:     971788 HIT:     432613 MISS:     539175 MSHR_MERGE:          0
cpu0->LLC LOAD         ACCESS:     646847 HIT:     221970 MISS:     424877 MSHR_MERGE:          0
cpu0->LLC RFO          ACCESS:       1331 HIT:        109 MISS:       1222 MSHR_MERGE:          0
cpu0->LLC PREFETCH     ACCESS:      93227 HIT:       3748 MISS:      89479 MSHR_MERGE:          0
cpu0->LLC WRITE        ACCESS:     193023 HIT:     171053 MISS:      21970 MSHR_MERGE:          0
cpu0->LLC TRANSLATION  ACCESS:      37360 HIT:      35733 MISS:       1627 MSHR_MERGE:          0
cpu0->LLC PREFETCH REQUESTED:          0 ISSUED:          0 USEFUL:          0 USELESS:          0 LATE:          0 TOO_EARLY:          0
cpu0->LLC AVERAGE MISS LATENCY: 175.4 cycles

DRAM Statistics

Channel 0 RQ ROW_BUFFER_HIT:        179
  ROW_BUFFER_MISS:     517025
  AVG DBUS CONGESTED CYCLE: 21.66
Channel 0 WQ ROW_BUFFER_HIT:      73365
  ROW_BUFFER_MISS:     116567
  FULL:          0
Channel 0 REFRESHES ISSUED:      12622

[ROI Statistics]
[System Configuration]
num_cpus 1
cpu_freq 4000
fetch_width 6
decode_width 6
dispatch_width 6
execute_width 6
lq_width 2
sq_width 2
retire_width 6
scheduler_size 128
branch_mispredict_penalty 15
rob_size 352
lq_size 128
sq_size 72
ifetch_buffer_size 64
decode_buffer_size 32
dispatch_buffer_size 32
register_file_size 288
decode_latency 1
dispatch_latency 1
schedule_latency 1
execute_latency 1
page_size 4096
block_size 64
core_0_itlb_set 16
core_0_itlb_way 4
core_0_itlb_rq_size 16
core_0_itlb_wq_size 16
core_0_itlb_pq_size 0
core_0_itlb_mshr_size 8
core_0_itlb_hit_latency 1
core_0_itlb_fill_latency 1
core_0_itlb_max_tag_check 2
core_0_itlb_max_fill 2
core_0_dtlb_set 16
core_0_dtlb_way 4
core_0_dtlb_rq_size 16
core_0_dtlb_wq_size 16
core_0_dtlb_pq_size 0
core_0_dtlb_mshr_size 8
core_0_dtlb_hit_latency 1
core_0_dtlb_fill_latency 1
core_0_dtlb_max_tag_check 2
core_0_dtlb_max_fill 2
core_0_stlb_set 128
core_0_stlb_way 12
core_0_stlb_rq_size 32
core_0_stlb_wq_size 32
core_0_stlb_pq_size 0
core_0_stlb_mshr_size 16
core_0_stlb_hit_latency 4
core_0_stlb_fill_latency 4
core_0_stlb_max_tag_check 1
core_0_stlb_max_fill 1
core_0_l1i_set 64
core_0_l1i_way 8
core_0_l1i_rq_size 64
core_0_l1i_wq_size 64
core_0_l1i_pq_size 32
core_0_l1i_mshr_size 8
core_0_l1i_hit_latency 2
core_0_l1i_fill_latency 2
core_0_l1i_max_tag_check 2
core_0_l1i_max_fill 2
core_0_l1d_set 64
core_0_l1d_way 12
core_0_l1d_rq_size 64
core_0_l1d_wq_size 64
core_0_l1d_pq_size 8
core_0_l1d_mshr_size 16
core_0_l1d_hit_latency 2
core_0_l1d_fill_latency 3
core_0_l1d_max_tag_check 2
core_0_l1d_max_fill 2
core_0_l2c_set 1024
core_0_l2c_way 8
core_0_l2c_rq_size 32
core_0_l2c_wq_size 32
core_0_l2c_pq_size 16
core_0_l2c_mshr_size 32
core_0_l2c_hit_latency 5
core_0_l2c_fill_latency 5
core_0_l2c_max_tag_check 1
core_0_l2c_max_fill 1
llc_set 2048
llc_way 16
llc_rq_size 32
llc_wq_size 32
llc_pq_size 32
llc_mshr_size 64
llc_hit_latency 10
llc_fill_latency 10
llc_max_tag_check 1
llc_max_fill 1
dram_channels 1
dram_ranks 1
dram_bankgroups 8
dram_banks 4
dram_rows 65536
dram_columns 1024
dram_channel_width 8
dram_rq_size 64
dram_wq_size 64
dram_size 17179869184
core_0_itlb_prefetcher no
core_0_dtlb_prefetcher no
core_0_stlb_prefetcher no
core_0_l1i_prefetcher next_line
core_0_l1d_prefetcher vberti
core_0_l2c_prefetcher ip_stride
llc_prefetcher no
llc_replacement drrip

Core_0_instructions 100000001
Core_0_cycles 151460997
Core_0_IPC 0.660236
Core_0_branch_prediction_accuracy 95.885
Core_0_branch_MPKI 8.14483
Core_0_average_ROB_occupancy_at_mispredict 72.5514

Core_0_ITLB_total_access 9346545
Core_0_ITLB_total_hit 9346464
Core_0_ITLB_total_miss 81
Core_0_ITLB_total_MPKI 0.00081
Core_0_ITLB_total_miss_rate 8.6663e-06
Core_0_ITLB_demand_access 9346545
Core_0_ITLB_demand_hit 9346464
Core_0_ITLB_demand_miss 81
Core_0_ITLB_demand_MPKI 0.00081
Core_0_ITLB_demand_miss_rate 8.6663e-06
Core_0_ITLB_load_access 9346545
Core_0_ITLB_load_hit 9346464
Core_0_ITLB_load_miss 81
Core_0_ITLB_load_MPKI 0.00081
Core_0_ITLB_load_miss_rate 8.6663e-06
Core_0_ITLB_rfo_access 0
Core_0_ITLB_rfo_hit 0
Core_0_ITLB_rfo_miss 0
Core_0_ITLB_rfo_MPKI 0
Core_0_ITLB_rfo_miss_rate 0
Core_0_ITLB_prefetch_access 0
Core_0_ITLB_prefetch_hit 0
Core_0_ITLB_prefetch_miss 0
Core_0_ITLB_prefetch_MPKI 0
Core_0_ITLB_prefetch_miss_rate 0
Core_0_ITLB_writeback_access 0
Core_0_ITLB_writeback_hit 0
Core_0_ITLB_writeback_miss 0
Core_0_ITLB_writeback_MPKI 0
Core_0_ITLB_writeback_miss_rate 0
Core_0_ITLB_prefetch_requested 0
Core_0_ITLB_prefetch_issued 0
Core_0_ITLB_prefetch_useful 0
Core_0_ITLB_prefetch_useless 0
Core_0_ITLB_prefetch_late 0
Core_0_ITLB_prefetch_fill 0
Core_0_ITLB_prefetch_too_early 0
Core_0_ITLB_prefetch_too_early_among_fill 0
Core_0_ITLB_prefetch_too_early_among_useless 0
Core_0_ITLB_prefetch_pollution_evict 0
Core_0_ITLB_prefetch_pollution_demand 0
Core_0_ITLB_prefetch_pollution_among_prefetch_fill 0
Core_0_ITLB_prefetch_accuracy 0
Core_0_ITLB_prefetch_coverage 0

Core_0_DTLB_total_access 28895931
Core_0_DTLB_total_hit 28130347
Core_0_DTLB_total_miss 765584
Core_0_DTLB_total_MPKI 7.65584
Core_0_DTLB_total_miss_rate 0.0264945
Core_0_DTLB_demand_access 28895931
Core_0_DTLB_demand_hit 28130347
Core_0_DTLB_demand_miss 765584
Core_0_DTLB_demand_MPKI 7.65584
Core_0_DTLB_demand_miss_rate 0.0264945
Core_0_DTLB_load_access 28895931
Core_0_DTLB_load_hit 28130347
Core_0_DTLB_load_miss 765584
Core_0_DTLB_load_MPKI 7.65584
Core_0_DTLB_load_miss_rate 0.0264945
Core_0_DTLB_rfo_access 0
Core_0_DTLB_rfo_hit 0
Core_0_DTLB_rfo_miss 0
Core_0_DTLB_rfo_MPKI 0
Core_0_DTLB_rfo_miss_rate 0
Core_0_DTLB_prefetch_access 0
Core_0_DTLB_prefetch_hit 0
Core_0_DTLB_prefetch_miss 0
Core_0_DTLB_prefetch_MPKI 0
Core_0_DTLB_prefetch_miss_rate 0
Core_0_DTLB_writeback_access 0
Core_0_DTLB_writeback_hit 0
Core_0_DTLB_writeback_miss 0
Core_0_DTLB_writeback_MPKI 0
Core_0_DTLB_writeback_miss_rate 0
Core_0_DTLB_prefetch_requested 0
Core_0_DTLB_prefetch_issued 0
Core_0_DTLB_prefetch_useful 0
Core_0_DTLB_prefetch_useless 0
Core_0_DTLB_prefetch_late 0
Core_0_DTLB_prefetch_fill 0
Core_0_DTLB_prefetch_too_early 0
Core_0_DTLB_prefetch_too_early_among_fill 0
Core_0_DTLB_prefetch_too_early_among_useless 0
Core_0_DTLB_prefetch_pollution_evict 0
Core_0_DTLB_prefetch_pollution_demand 0
Core_0_DTLB_prefetch_pollution_among_prefetch_fill 0
Core_0_DTLB_prefetch_accuracy 0
Core_0_DTLB_prefetch_coverage 0

Core_0_STLB_total_access 640758
Core_0_STLB_total_hit 476237
Core_0_STLB_total_miss 164521
Core_0_STLB_total_MPKI 1.64521
Core_0_STLB_total_miss_rate 0.25676
Core_0_STLB_demand_access 640758
Core_0_STLB_demand_hit 476237
Core_0_STLB_demand_miss 164521
Core_0_STLB_demand_MPKI 1.64521
Core_0_STLB_demand_miss_rate 0.25676
Core_0_STLB_load_access 640758
Core_0_STLB_load_hit 476237
Core_0_STLB_load_miss 164521
Core_0_STLB_load_MPKI 1.64521
Core_0_STLB_load_miss_rate 0.25676
Core_0_STLB_rfo_access 0
Core_0_STLB_rfo_hit 0
Core_0_STLB_rfo_miss 0
Core_0_STLB_rfo_MPKI 0
Core_0_STLB_rfo_miss_rate 0
Core_0_STLB_prefetch_access 0
Core_0_STLB_prefetch_hit 0
Core_0_STLB_prefetch_miss 0
Core_0_STLB_prefetch_MPKI 0
Core_0_STLB_prefetch_miss_rate 0
Core_0_STLB_writeback_access 0
Core_0_STLB_writeback_hit 0
Core_0_STLB_writeback_miss 0
Core_0_STLB_writeback_MPKI 0
Core_0_STLB_writeback_miss_rate 0
Core_0_STLB_prefetch_requested 0
Core_0_STLB_prefetch_issued 0
Core_0_STLB_prefetch_useful 0
Core_0_STLB_prefetch_useless 0
Core_0_STLB_prefetch_late 0
Core_0_STLB_prefetch_fill 0
Core_0_STLB_prefetch_too_early 0
Core_0_STLB_prefetch_too_early_among_fill 0
Core_0_STLB_prefetch_too_early_among_useless 0
Core_0_STLB_prefetch_pollution_evict 0
Core_0_STLB_prefetch_pollution_demand 0
Core_0_STLB_prefetch_pollution_among_prefetch_fill 0
Core_0_STLB_prefetch_accuracy 0
Core_0_STLB_prefetch_coverage 0

Core_0_L1I_total_access 10728145
Core_0_L1I_total_hit 10706648
Core_0_L1I_total_miss 21497
Core_0_L1I_total_MPKI 0.21497
Core_0_L1I_total_miss_rate 0.00200379
Core_0_L1I_demand_access 10728145
Core_0_L1I_demand_hit 10706648
Core_0_L1I_demand_miss 21497
Core_0_L1I_demand_MPKI 0.21497
Core_0_L1I_demand_miss_rate 0.00200379
Core_0_L1I_load_access 10728145
Core_0_L1I_load_hit 10706648
Core_0_L1I_load_miss 21497
Core_0_L1I_load_MPKI 0.21497
Core_0_L1I_load_miss_rate 0.00200379
Core_0_L1I_rfo_access 0
Core_0_L1I_rfo_hit 0
Core_0_L1I_rfo_miss 0
Core_0_L1I_rfo_MPKI 0
Core_0_L1I_rfo_miss_rate 0
Core_0_L1I_prefetch_access 0
Core_0_L1I_prefetch_hit 0
Core_0_L1I_prefetch_miss 0
Core_0_L1I_prefetch_MPKI 0
Core_0_L1I_prefetch_miss_rate 0
Core_0_L1I_writeback_access 0
Core_0_L1I_writeback_hit 0
Core_0_L1I_writeback_miss 0
Core_0_L1I_writeback_MPKI 0
Core_0_L1I_writeback_miss_rate 0
Core_0_L1I_prefetch_requested 0
Core_0_L1I_prefetch_issued 0
Core_0_L1I_prefetch_useful 0
Core_0_L1I_prefetch_useless 0
Core_0_L1I_prefetch_late 0
Core_0_L1I_prefetch_fill 0
Core_0_L1I_prefetch_too_early 0
Core_0_L1I_prefetch_too_early_among_fill 0
Core_0_L1I_prefetch_too_early_among_useless 0
Core_0_L1I_prefetch_pollution_evict 0
Core_0_L1I_prefetch_pollution_demand 0
Core_0_L1I_prefetch_pollution_among_prefetch_fill 0
Core_0_L1I_prefetch_accuracy 0
Core_0_L1I_prefetch_coverage 0

Core_0_L1D_total_access 30254317
Core_0_L1D_total_hit 29071834
Core_0_L1D_total_miss 1182483
Core_0_L1D_total_MPKI 11.8248
Core_0_L1D_total_miss_rate 0.0390848
Core_0_L1D_demand_access 18977968
Core_0_L1D_demand_hit 17967892
Core_0_L1D_demand_miss 1010076
Core_0_L1D_demand_MPKI 10.1008
Core_0_L1D_demand_miss_rate 0.0532236
Core_0_L1D_load_access 18977968
Core_0_L1D_load_hit 17967892
Core_0_L1D_load_miss 1010076
Core_0_L1D_load_MPKI 10.1008
Core_0_L1D_load_miss_rate 0.0532236
Core_0_L1D_rfo_access 0
Core_0_L1D_rfo_hit 0
Core_0_L1D_rfo_miss 0
Core_0_L1D_rfo_MPKI 0
Core_0_L1D_rfo_miss_rate 0
Core_0_L1D_prefetch_access 444602
Core_0_L1D_prefetch_hit 275182
Core_0_L1D_prefetch_miss 169420
Core_0_L1D_prefetch_MPKI 1.6942
Core_0_L1D_prefetch_miss_rate 0.38106
Core_0_L1D_writeback_access 10831747
Core_0_L1D_writeback_hit 10828760
Core_0_L1D_writeback_miss 2987
Core_0_L1D_writeback_MPKI 0.02987
Core_0_L1D_writeback_miss_rate 0.000275763
Core_0_L1D_prefetch_requested 444601
Core_0_L1D_prefetch_issued 444601
Core_0_L1D_prefetch_useful 66706
Core_0_L1D_prefetch_useless 392
Core_0_L1D_prefetch_late 79
Core_0_L1D_prefetch_fill 67019
Core_0_L1D_prefetch_too_early 23
Core_0_L1D_prefetch_too_early_among_fill 0.000343186
Core_0_L1D_prefetch_too_early_among_useless 0.0586735
Core_0_L1D_prefetch_pollution_evict 19993
Core_0_L1D_prefetch_pollution_demand 19993
Core_0_L1D_prefetch_pollution_among_prefetch_fill 0.298318
Core_0_L1D_prefetch_accuracy 0.150036
Core_0_L1D_prefetch_coverage 0.0619494

Core_0_L2C_total_access 1406857
Core_0_L2C_total_hit 656921
Core_0_L2C_total_miss 749936
Core_0_L2C_total_MPKI 7.49936
Core_0_L2C_total_miss_rate 0.533058
Core_0_L2C_demand_access 992423
Core_0_L2C_demand_hit 344223
Core_0_L2C_demand_miss 648200
Core_0_L2C_demand_MPKI 6.482
Core_0_L2C_demand_miss_rate 0.653149
Core_0_L2C_load_access 990302
Core_0_L2C_load_hit 343455
Core_0_L2C_load_miss 646847
Core_0_L2C_load_MPKI 6.46847
Core_0_L2C_load_miss_rate 0.653182
Core_0_L2C_rfo_access 2121
Core_0_L2C_rfo_hit 768
Core_0_L2C_rfo_miss 1353
Core_0_L2C_rfo_MPKI 0.01353
Core_0_L2C_rfo_miss_rate 0.637907
Core_0_L2C_prefetch_access 219001
Core_0_L2C_prefetch_hit 117761
Core_0_L2C_prefetch_miss 101240
Core_0_L2C_prefetch_MPKI 1.0124
Core_0_L2C_prefetch_miss_rate 0.462281
Core_0_L2C_writeback_access 195433
Core_0_L2C_writeback_hit 194937
Core_0_L2C_writeback_miss 496
Core_0_L2C_writeback_MPKI 0.00496
Core_0_L2C_writeback_miss_rate 0.00253795
Core_0_L2C_prefetch_requested 49882
Core_0_L2C_prefetch_issued 49882
Core_0_L2C_prefetch_useful 28418
Core_0_L2C_prefetch_useless 2012
Core_0_L2C_prefetch_late 0
Core_0_L2C_prefetch_fill 93205
Core_0_L2C_prefetch_too_early 163
Core_0_L2C_prefetch_too_early_among_fill 0.00174883
Core_0_L2C_prefetch_too_early_among_useless 0.0810139
Core_0_L2C_prefetch_pollution_evict 32719
Core_0_L2C_prefetch_pollution_demand 32717
Core_0_L2C_prefetch_pollution_among_prefetch_fill 0.351043
Core_0_L2C_prefetch_accuracy 0.569705
Core_0_L2C_prefetch_coverage 0.0420001

Core_0_LLC_total_access 934428
Core_0_LLC_total_hit 396880
Core_0_LLC_total_miss 537548
Core_0_LLC_total_MPKI 5.37548
Core_0_LLC_total_miss_rate 0.57527
Core_0_LLC_demand_access 648178
Core_0_LLC_demand_hit 222079
Core_0_LLC_demand_miss 426099
Core_0_LLC_demand_MPKI 4.26099
Core_0_LLC_demand_miss_rate 0.65738
Core_0_LLC_load_access 646847
Core_0_LLC_load_hit 221970
Core_0_LLC_load_miss 424877
Core_0_LLC_load_MPKI 4.24877
Core_0_LLC_load_miss_rate 0.656843
Core_0_LLC_rfo_access 1331
Core_0_LLC_rfo_hit 109
Core_0_LLC_rfo_miss 1222
Core_0_LLC_rfo_MPKI 0.01222
Core_0_LLC_rfo_miss_rate 0.918107
Core_0_LLC_prefetch_access 93227
Core_0_LLC_prefetch_hit 3748
Core_0_LLC_prefetch_miss 89479
Core_0_LLC_prefetch_MPKI 0.89479
Core_0_LLC_prefetch_miss_rate 0.959797
Core_0_LLC_writeback_access 193023
Core_0_LLC_writeback_hit 171053
Core_0_LLC_writeback_miss 21970
Core_0_LLC_writeback_MPKI 0.2197
Core_0_LLC_writeback_miss_rate 0.113821
Core_0_LLC_prefetch_requested 0
Core_0_LLC_prefetch_issued 0
Core_0_LLC_prefetch_useful 0
Core_0_LLC_prefetch_useless 0
Core_0_LLC_prefetch_late 0
Core_0_LLC_prefetch_fill 89479
Core_0_LLC_prefetch_too_early 0
Core_0_LLC_prefetch_too_early_among_fill 0
Core_0_LLC_prefetch_too_early_among_useless 0
Core_0_LLC_prefetch_pollution_evict 34428
Core_0_LLC_prefetch_pollution_demand 34428
Core_0_LLC_prefetch_pollution_among_prefetch_fill 0.384761
Core_0_LLC_prefetch_accuracy 0
Core_0_LLC_prefetch_coverage 0

[DRAM Statistics]
Channel_0_RQ_row_buffer_hit 179
Channel_0_RQ_row_buffer_miss 517025
Channel_0_WQ_row_buffer_hit 73365
Channel_0_WQ_row_buffer_miss 116567
Channel_0_WQ_full 0
Channel_0_dbus_congested 2498735
DRAM_total_RQ_row_buffer_hit 179
DRAM_total_RQ_row_buffer_miss 517025
DRAM_total_WQ_row_buffer_hit 73365
DRAM_total_WQ_row_buffer_miss 116567
DRAM_total_WQ_full 0
DRAM_total_dbus_congested 2498735
DRAM_avg_congested_cycle 21.6553

====== DRAM_RQ_TRAFFIC ========
DRAM_RQ_READ_TRAFFIC_BREAKDOWN:
data_demand_read.count = 426072
data_demand_read.share = 82.38%

inst_demand_read.count = 27
inst_demand_read.share = 0.01%

cache_inst_prefetch.count = 0
cache_inst_prefetch.share = 0.00%

cache_data_prefetch.count = 89479
cache_data_prefetch.share = 17.30%

stlb_data_demand.count = 1476
stlb_data_demand.share = 0.29%

stlb_inst_demand.count = 2
stlb_inst_demand.share = 0.00%

stlb_l1i_pref.count = 0
stlb_l1i_pref.share = 0.00%

stlb_l1d_pref.count = 149
stlb_l1d_pref.share = 0.03%

DRAM_RQ_READ_TRAFFIC_SUMMARY:
cache_demand.count = 426099
cache_demand.share = 82.38%

cache_prefetch.count = 89479
cache_prefetch.share = 17.30%

stlb_demand.count = 1478
stlb_demand.share = 0.29%

stlb_prefetch.count = 149
stlb_prefetch.share = 0.03%

DRAM_RQ_READ_TRAFFIC_DEBUG:
total_classified_read.count = 517205
unclassified_read.count = 0
total_read_with_other.count = 517205

classified_plus_unclassified_check.count = 517205
dram_rq_read_total_observed.count = 517205
dram_rq_read_total_observed.per_1K_instructions = 5.17205

STLB_MISS_PTW_DRAM_TOUCH_BREAKDOWN:
stlb_miss_total.count = 164521

stlb_miss_touch_dram.count = 1624
stlb_miss_touch_dram.share = 0.99%

stlb_miss_no_dram_touch.count = 162897
stlb_miss_no_dram_touch.share = 99.01%

STLB_MISS_PTW_DRAM_TOUCH_DEBUG:
stlb_miss_touch_plus_no_touch.count = 164521
stlb_miss_total_check.count = 164521

======STLB miss causes ========
Core_0_STLB_miss_cause_breakdown
Core_0_STLB_cause_Demand_Data_miss 163126
Core_0_STLB_cause_Demand_Data_miss_rate 0.254583
Core_0_STLB_cause_Demand_Instruction_miss 54
Core_0_STLB_cause_Demand_Instruction_miss_rate 8.42752e-05
Core_0_STLB_cause_L1D_Prefetch_miss 1341
Core_0_STLB_cause_L1D_Prefetch_miss_rate 0.00209283
Core_0_STLB_cause_L1D_Prefetch_Same_Page_miss 0
Core_0_STLB_cause_L1D_Prefetch_Same_Page_miss_rate 0
Core_0_STLB_cause_L1D_Prefetch_Cross_Page_miss 1341
Core_0_STLB_cause_L1D_Prefetch_Cross_Page_miss_rate 0.00209283
Core_0_STLB_cause_L1I_Prefetch_miss 0
Core_0_STLB_cause_L1I_Prefetch_miss_rate 0
Core_0_STLB_cause_Other_miss 0
Core_0_STLB_cause_Other_miss_rate 0
Core_0_STLB_Demand_miss 163180
Core_0_STLB_Demand_miss_rate 0.254667
Core_0_STLB_L1D_Prefetch_miss 1341
Core_0_STLB_L1D_Prefetch_miss_rate 0.00209283
Core_0_STLB_Other_miss 0
Core_0_STLB_Other_miss_rate 0

========== vBerti-TLB Cross-page Flow Stats ==========

Core_0_vBerti_Requested 444601
Core_0_vBerti_Cross_page_prefetch_in_Requested 8829
Core_0_vBerti_Same_page_prefetch_in_Requested 435772
Core_0_vBerti_Cross_page_prefetch_of_Requested 0.0198583
Core_0_vBerti_Issued 444601
Core_0_vBerti_InPQ_Same_page_prefetch 435772
Core_0_vBerti_InPQ_Cross_page_prefetch 8829
Core_0_vBerti_PQ_Drop_Rate 0
Core_0_vBerti_InPQ_Cross_page_prefetch_of_Requested 0.0198583
Core_0_vBerti_Cross_page_PQ_Drop_rate 0
Core_0_vBerti_Cross_page_prefetch_of_Issued 0.0198583
Core_0_CP_PF_PQFULL_drop 0
Core_0_CP_PF_PQFULL_TLB_rescue_enqueued 0
Core_0_CP_PF_PQFULL_TLB_rescue_issued 0
Core_0_CP_PF_PQFULL_TLB_rescue_translated 0

========= DTLB_vBerti Prefetch Stats =========
Core_0_DTLB_demand_access 28560011
Core_0_DTLB_demand_hit 27796513
Core_0_DTLB_demand_miss 763498
Core_0_DTLB_demand_mshr_merge 124389
Core_0_DTLB_demand_fill 639113
Core_0_DTLB_demand_miss_rate 0.0267331
Core_0_DTLB_demand_mpki 7.63498
Core_0_DTLB_vberti_prefetch_access 335920
Core_0_DTLB_vberti_prefetch_hit 333834
Core_0_DTLB_vberti_prefetch_miss 2086
Core_0_DTLB_vberti_prefetch_mshr_merge 491
Core_0_DTLB_vberti_prefetch_fill 1591
Core_0_DTLB_vberti_prefetch_miss_rate 0.00620981
Core_0_DTLB_vberti_prefetch_mpki 0.02086

=== DTLB_vBerti Same/Cross-page Prefetch Stats ===
Core_0_DTLB_vberti_same_page_prefetch 328265
Core_0_DTLB_vberti_same_page_prefetch_hit 328265
Core_0_DTLB_vberti_same_page_prefetch_miss 0
Core_0_DTLB_vberti_same_page_prefetch_mshr_merge 0
Core_0_DTLB_vberti_same_page_prefetch_fill 0
Core_0_DTLB_vberti_same_page_prefetch_miss_rate 0
Core_0_DTLB_vberti_same_page_prefetch_mpki 0
Core_0_DTLB_vberti_cross_page_prefetch 7655
Core_0_DTLB_vberti_cross_page_prefetch_hit 5569
Core_0_DTLB_vberti_cross_page_prefetch_miss 2086
Core_0_DTLB_vberti_cross_page_prefetch_mshr_merge 491
Core_0_DTLB_vberti_cross_page_prefetch_fill 1591
Core_0_DTLB_vberti_cross_page_prefetch_miss_rate 0.272502
Core_0_DTLB_vberti_cross_page_prefetch_mpki 0.02086
Core_0_DTLB_same_page_prefetch_miss_rate 0
Core_0_DTLB_same_page_prefetch_mpki 0
Core_0_DTLB_cross_page_prefetch_miss_rate 0.272502
Core_0_DTLB_cross_page_prefetch_mpki 0.02086
Core_0_DTLB_cross_page_prefetch_issued 7655
Core_0_DTLB_cross_page_prefetch_lookups 7655
Core_0_DTLB_cross_page_prefetch_useful 1057
Core_0_DTLB_cross_page_prefetch_useless 538
Core_0_DTLB_cross_page_prefetch_late 4
Core_0_DTLB_cross_page_prefetch_too_early 211
Core_0_DTLB_cross_page_prefetch_too_early_among_fill 0.132621
Core_0_DTLB_cross_page_prefetch_too_early_among_useless 0.392193
Core_0_DTLB_cross_page_prefetch_pollution_evict 1454
Core_0_DTLB_cross_page_prefetch_pollution_demand 1453
Core_0_DTLB_cross_page_prefetch_pollution_among_prefetch_fill 0.913891
Core_0_DTLB_cross_page_prefetch_accuracy 0.13808
Core_0_DTLB_cross_page_prefetch_coverage 0.0013825

========= STLB_vBerti Prefetch Stats =========
Core_0_STLB_demand_access 639163
Core_0_STLB_demand_hit 475983
Core_0_STLB_demand_miss 163180
Core_0_STLB_demand_mshr_merge 0
Core_0_STLB_demand_fill 163180
Core_0_STLB_demand_miss_rate 0.255303
Core_0_STLB_demand_mpki 1.6318
Core_0_STLB_vberti_prefetch_access 1595
Core_0_STLB_vberti_prefetch_hit 254
Core_0_STLB_vberti_prefetch_miss 1341
Core_0_STLB_vberti_prefetch_mshr_merge 0
Core_0_STLB_vberti_prefetch_fill 1341
Core_0_STLB_vberti_prefetch_miss_rate 0.840752
Core_0_STLB_vberti_prefetch_mpki 0.01341

=== STLB_vBerti Same/Cross-page Prefetch Stats ===
Core_0_STLB_vberti_same_page_prefetch 0
Core_0_STLB_vberti_same_page_prefetch_hit 0
Core_0_STLB_vberti_same_page_prefetch_miss 0
Core_0_STLB_vberti_same_page_prefetch_mshr_merge 0
Core_0_STLB_vberti_same_page_prefetch_fill 0
Core_0_STLB_vberti_same_page_prefetch_miss_rate 0
Core_0_STLB_vberti_same_page_prefetch_mpki 0
Core_0_STLB_vberti_cross_page_prefetch 1595
Core_0_STLB_vberti_cross_page_prefetch_hit 254
Core_0_STLB_vberti_cross_page_prefetch_miss 1341
Core_0_STLB_vberti_cross_page_prefetch_mshr_merge 0
Core_0_STLB_vberti_cross_page_prefetch_fill 1341
Core_0_STLB_vberti_cross_page_prefetch_miss_rate 0.840752
Core_0_STLB_vberti_cross_page_prefetch_mpki 0.01341
Core_0_STLB_same_page_prefetch_miss_rate 0
Core_0_STLB_same_page_prefetch_mpki 0
Core_0_STLB_cross_page_prefetch_miss_rate 0.840752
Core_0_STLB_cross_page_prefetch_mpki 0.01341
Core_0_STLB_cross_page_prefetch_issued 1595
Core_0_STLB_cross_page_prefetch_lookups 1595
Core_0_STLB_cross_page_prefetch_useful 1072
Core_0_STLB_cross_page_prefetch_useless 269
Core_0_STLB_cross_page_prefetch_late 0
Core_0_STLB_cross_page_prefetch_too_early 220
Core_0_STLB_cross_page_prefetch_too_early_among_fill 0.164057
Core_0_STLB_cross_page_prefetch_too_early_among_useless 0.817844
Core_0_STLB_cross_page_prefetch_pollution_evict 1284
Core_0_STLB_cross_page_prefetch_pollution_demand 1281
Core_0_STLB_cross_page_prefetch_pollution_among_prefetch_fill 0.957494
Core_0_STLB_cross_page_prefetch_accuracy 0.6721
Core_0_STLB_cross_page_prefetch_coverage 0.00652656

========= STLB Cross-page Prefetch Buffer Stats =========
Core_0_STLB_raw_demand_miss 163126
Core_0_CP_PB_insert 0
Core_0_CP_PB_demand_hit 0
Core_0_STLB_PB_demand_miss 163126
Core_0_CP_PB_coverage 0
Core_0_STLB_raw_demand_mpki 1.63126
Core_0_STLB_PB_demand_mpki 1.63126
Core_0_CP_PB_demand_hit_mpki 0

Core_0_TLB_demand_miss_rate 0.00571358
Core_0_TLB_demand_mpki 1.6318
Core_0_TLB_same_page_prefetch_miss_rate 0
Core_0_TLB_same_page_prefetch_mpki 0
Core_0_TLB_cross_page_prefetch_miss_rate 0.17518
Core_0_TLB_cross_page_prefetch_mpki 0.01341
Core_0_TLB_cross_page_prefetch_issued 7655
Core_0_TLB_cross_page_prefetch_lookups 7655
Core_0_TLB_cross_page_prefetch_useful 1008
Core_0_TLB_cross_page_prefetch_useless 479
Core_0_TLB_cross_page_prefetch_late 4
Core_0_TLB_cross_page_prefetch_too_early 212
Core_0_TLB_cross_page_prefetch_too_early_among_fill 0.0723056
Core_0_TLB_cross_page_prefetch_too_early_among_useless 0.442589
Core_0_TLB_cross_page_prefetch_accuracy 0.131679
Core_0_TLB_cross_page_prefetch_coverage 0.0061393
====== vBerti internal metric ========
Core_0_vBerti_end_to_end_issued 444601
Core_0_vBerti_end_to_end_useful 18562
Core_0_vBerti_end_to_end_late 28
Core_0_vBerti_end_to_end_accuracy 0.0417498
Core_0_vBerti_end_to_end_timely_accuracy 0.0416868
BERTI TO_L1: 335340 TO_L2: 109261 TO_L2_BC_MSHR: 0
BERTI AVG_LAT: 97.3569 NUM_TRACK_LATENCY: 1036373 NUM_CANT_TRACK_LATENCY: 0
BERTI CROSS_PAGE 8829 NO_CROSS_PAGE: 435772
BERTI FOUND_BERTI: 6529671 NO_FOUND_BERTI: 23280044
BERTI AVERAGE_ISSUED: 1.48254
