[VMEM] WARNING: physical memory size is smaller than virtual memory size.

*** ChampSim Multicore Out-of-Order Simulator ***
Warmup Instructions: 50000000
Simulation Instructions: 100000000
Number of CPUs: 1
Page size: 4096
Core 0: /data2/zcq/champsim_traces_xsbench/xs.XXL64nuclide-566B.champsimtrace.xz
VBerti Prefetcher
BERTI HASH ENTANGLING
BERTI IP MASK ffff
Off-chip DRAM Size: 16 GiB Channels: 1 Width: 64-bit Data Rate: 3205 MT/s
Warmup halting CPU 0 at instruction 50000004 cycle 36964144 for remainder of phase
Warmup finished CPU 0 instructions: 50000004 cycles: 36964144 cumulative IPC: 1.353 (Simulation time: 00 hr 06 min 13 sec)
Warmup complete CPU 0 instructions: 50000004 cycles: 36964144 cumulative IPC: 1.353 (Simulation time: 00 hr 06 min 13 sec)
Simulation finished CPU 0 instructions: 100000001 cycles: 691188271 cumulative IPC: 0.1447 (Simulation time: 00 hr 55 min 04 sec)
Simulation complete CPU 0 instructions: 100000001 cycles: 691188271 cumulative IPC: 0.1447 (Simulation time: 00 hr 55 min 04 sec)

ChampSim completed all CPUs

=== Simulation ===
CPU 0 runs /data2/zcq/champsim_traces_xsbench/xs.XXL64nuclide-566B.champsimtrace.xz

Region of Interest Statistics

CPU 0 cumulative IPC: 0.1447 instructions: 100000001 cycles: 691188271
CPU 0 Branch Prediction Accuracy: 87.18% MPKI: 21.61 Average ROB Occupancy at Mispredict: 25.65
Branch type MPKI
BRANCH_DIRECT_JUMP: 0
BRANCH_INDIRECT: 0
BRANCH_CONDITIONAL: 21.61
BRANCH_DIRECT_CALL: 0
BRANCH_INDIRECT_CALL: 0
BRANCH_RETURN: 0

cpu0->cpu0_STLB TOTAL        ACCESS:    3981306 HIT:     139336 MISS:    3841970 MSHR_MERGE:          0
cpu0->cpu0_STLB LOAD         ACCESS:    3981306 HIT:     139336 MISS:    3841970 MSHR_MERGE:          0
cpu0->cpu0_STLB RFO          ACCESS:          0 HIT:          0 MISS:          0 MSHR_MERGE:          0
cpu0->cpu0_STLB PREFETCH     ACCESS:          0 HIT:          0 MISS:          0 MSHR_MERGE:          0
cpu0->cpu0_STLB WRITE        ACCESS:          0 HIT:          0 MISS:          0 MSHR_MERGE:          0
cpu0->cpu0_STLB TRANSLATION  ACCESS:          0 HIT:          0 MISS:          0 MSHR_MERGE:          0
cpu0->cpu0_STLB PREFETCH REQUESTED:          0 ISSUED:          0 USEFUL:          0 USELESS:          0 LATE:          0 TOO_EARLY:          0
cpu0->cpu0_STLB AVERAGE MISS LATENCY: 173.9 cycles
cpu0->cpu0_L2C TOTAL        ACCESS:   10587231 HIT:    1485684 MISS:    9101547 MSHR_MERGE:       8944
cpu0->cpu0_L2C LOAD         ACCESS:    5967607 HIT:     210374 MISS:    5757233 MSHR_MERGE:          0
cpu0->cpu0_L2C RFO          ACCESS:      23504 HIT:      22801 MISS:        703 MSHR_MERGE:          0
cpu0->cpu0_L2C PREFETCH     ACCESS:    1267211 HIT:    1038399 MISS:     228812 MSHR_MERGE:       8944
cpu0->cpu0_L2C WRITE        ACCESS:      28185 HIT:      28134 MISS:         51 MSHR_MERGE:          0
cpu0->cpu0_L2C TRANSLATION  ACCESS:    3300724 HIT:     185976 MISS:    3114748 MSHR_MERGE:          0
cpu0->cpu0_L2C PREFETCH REQUESTED:     336275 ISSUED:     336275 USEFUL:      13920 USELESS:     134886 LATE:          0 TOO_EARLY:        133
cpu0->cpu0_L2C AVERAGE MISS LATENCY: 149.5 cycles
cpu0->cpu0_L1I TOTAL        ACCESS:      21123 HIT:      21123 MISS:          0 MSHR_MERGE:          0
cpu0->cpu0_L1I LOAD         ACCESS:      21123 HIT:      21123 MISS:          0 MSHR_MERGE:          0
cpu0->cpu0_L1I RFO          ACCESS:          0 HIT:          0 MISS:          0 MSHR_MERGE:          0
cpu0->cpu0_L1I PREFETCH     ACCESS:          0 HIT:          0 MISS:          0 MSHR_MERGE:          0
cpu0->cpu0_L1I WRITE        ACCESS:          0 HIT:          0 MISS:          0 MSHR_MERGE:          0
cpu0->cpu0_L1I TRANSLATION  ACCESS:          0 HIT:          0 MISS:          0 MSHR_MERGE:          0
cpu0->cpu0_L1I PREFETCH REQUESTED:          0 ISSUED:          0 USEFUL:          0 USELESS:          0 LATE:          0 TOO_EARLY:          0
cpu0->cpu0_L1I AVERAGE MISS LATENCY: - cycles
cpu0->cpu0_L1D TOTAL        ACCESS:   21852573 HIT:    9718692 MISS:   12133881 MSHR_MERGE:    1911040
cpu0->cpu0_L1D LOAD         ACCESS:    9562281 HIT:    3496272 MISS:    6066009 MSHR_MERGE:      98402
cpu0->cpu0_L1D RFO          ACCESS:          0 HIT:          0 MISS:          0 MSHR_MERGE:          0
cpu0->cpu0_L1D PREFETCH     ACCESS:    2052788 HIT:    1121852 MISS:     930936 MSHR_MERGE:          0
cpu0->cpu0_L1D WRITE        ACCESS:    1819450 HIT:    1760027 MISS:      59423 MSHR_MERGE:      35849
cpu0->cpu0_L1D TRANSLATION  ACCESS:    8418054 HIT:    3340541 MISS:    5077513 MSHR_MERGE:    1776789
cpu0->cpu0_L1D PREFETCH REQUESTED:    2344117 ISSUED:    2052788 USEFUL:      34628 USELESS:      44513 LATE:          0 TOO_EARLY:       2473
cpu0->cpu0_L1D AVERAGE MISS LATENCY: 151.8 cycles
cpu0->cpu0_ITLB TOTAL        ACCESS:      17078 HIT:      17078 MISS:          0 MSHR_MERGE:          0
cpu0->cpu0_ITLB LOAD         ACCESS:      17078 HIT:      17078 MISS:          0 MSHR_MERGE:          0
cpu0->cpu0_ITLB RFO          ACCESS:          0 HIT:          0 MISS:          0 MSHR_MERGE:          0
cpu0->cpu0_ITLB PREFETCH     ACCESS:          0 HIT:          0 MISS:          0 MSHR_MERGE:          0
cpu0->cpu0_ITLB WRITE        ACCESS:          0 HIT:          0 MISS:          0 MSHR_MERGE:          0
cpu0->cpu0_ITLB TRANSLATION  ACCESS:          0 HIT:          0 MISS:          0 MSHR_MERGE:          0
cpu0->cpu0_ITLB PREFETCH REQUESTED:          0 ISSUED:          0 USEFUL:          0 USELESS:          0 LATE:          0 TOO_EARLY:          0
cpu0->cpu0_ITLB AVERAGE MISS LATENCY: - cycles
cpu0->cpu0_DTLB TOTAL        ACCESS:   12792314 HIT:    8607352 MISS:    4184962 MSHR_MERGE:     203656
cpu0->cpu0_DTLB LOAD         ACCESS:   12792314 HIT:    8607352 MISS:    4184962 MSHR_MERGE:     203656
cpu0->cpu0_DTLB RFO          ACCESS:          0 HIT:          0 MISS:          0 MSHR_MERGE:          0
cpu0->cpu0_DTLB PREFETCH     ACCESS:          0 HIT:          0 MISS:          0 MSHR_MERGE:          0
cpu0->cpu0_DTLB WRITE        ACCESS:          0 HIT:          0 MISS:          0 MSHR_MERGE:          0
cpu0->cpu0_DTLB TRANSLATION  ACCESS:          0 HIT:          0 MISS:          0 MSHR_MERGE:          0
cpu0->cpu0_DTLB PREFETCH REQUESTED:          0 ISSUED:          0 USEFUL:          0 USELESS:          0 LATE:          0 TOO_EARLY:          0
cpu0->cpu0_DTLB AVERAGE MISS LATENCY: 173.8 cycles
cpu0->LLC TOTAL        ACCESS:    9095270 HIT:    3067423 MISS:    6027847 MSHR_MERGE:          0
cpu0->LLC LOAD         ACCESS:    5757233 HIT:    1331015 MISS:    4426218 MSHR_MERGE:          0
cpu0->LLC RFO          ACCESS:        703 HIT:        700 MISS:          3 MSHR_MERGE:          0
cpu0->LLC PREFETCH     ACCESS:     219868 HIT:      85840 MISS:     134028 MSHR_MERGE:          0
cpu0->LLC WRITE        ACCESS:       2718 HIT:       2695 MISS:         23 MSHR_MERGE:          0
cpu0->LLC TRANSLATION  ACCESS:    3114748 HIT:    1647173 MISS:    1467575 MSHR_MERGE:          0
cpu0->LLC PREFETCH REQUESTED:          0 ISSUED:          0 USEFUL:          0 USELESS:          0 LATE:          0 TOO_EARLY:          0
cpu0->LLC AVERAGE MISS LATENCY: 201.5 cycles

DRAM Statistics

Channel 0 RQ ROW_BUFFER_HIT:      30343
  ROW_BUFFER_MISS:    5997481
  AVG DBUS CONGESTED CYCLE: 2.932
Channel 0 WQ ROW_BUFFER_HIT:          2
  ROW_BUFFER_MISS:         22
  FULL:          0
Channel 0 REFRESHES ISSUED:      57599

[ROI Statistics]
[System Configuration]
num_cpus 1
cpu_freq 4000
fetch_width 6
decode_width 6
dispatch_width 6
execute_width 6
lq_width 2
sq_width 2
retire_width 6
scheduler_size 128
branch_mispredict_penalty 15
rob_size 352
lq_size 128
sq_size 72
ifetch_buffer_size 64
decode_buffer_size 32
dispatch_buffer_size 32
register_file_size 288
decode_latency 1
dispatch_latency 1
schedule_latency 1
execute_latency 1
page_size 4096
block_size 64
core_0_itlb_set 16
core_0_itlb_way 4
core_0_itlb_rq_size 16
core_0_itlb_wq_size 16
core_0_itlb_pq_size 0
core_0_itlb_mshr_size 8
core_0_itlb_hit_latency 1
core_0_itlb_fill_latency 1
core_0_itlb_max_tag_check 2
core_0_itlb_max_fill 2
core_0_dtlb_set 16
core_0_dtlb_way 4
core_0_dtlb_rq_size 16
core_0_dtlb_wq_size 16
core_0_dtlb_pq_size 0
core_0_dtlb_mshr_size 8
core_0_dtlb_hit_latency 1
core_0_dtlb_fill_latency 1
core_0_dtlb_max_tag_check 2
core_0_dtlb_max_fill 2
core_0_stlb_set 128
core_0_stlb_way 12
core_0_stlb_rq_size 32
core_0_stlb_wq_size 32
core_0_stlb_pq_size 0
core_0_stlb_mshr_size 16
core_0_stlb_hit_latency 4
core_0_stlb_fill_latency 4
core_0_stlb_max_tag_check 1
core_0_stlb_max_fill 1
core_0_l1i_set 64
core_0_l1i_way 8
core_0_l1i_rq_size 64
core_0_l1i_wq_size 64
core_0_l1i_pq_size 32
core_0_l1i_mshr_size 8
core_0_l1i_hit_latency 2
core_0_l1i_fill_latency 2
core_0_l1i_max_tag_check 2
core_0_l1i_max_fill 2
core_0_l1d_set 64
core_0_l1d_way 12
core_0_l1d_rq_size 64
core_0_l1d_wq_size 64
core_0_l1d_pq_size 8
core_0_l1d_mshr_size 16
core_0_l1d_hit_latency 2
core_0_l1d_fill_latency 3
core_0_l1d_max_tag_check 2
core_0_l1d_max_fill 2
core_0_l2c_set 1024
core_0_l2c_way 8
core_0_l2c_rq_size 32
core_0_l2c_wq_size 32
core_0_l2c_pq_size 16
core_0_l2c_mshr_size 32
core_0_l2c_hit_latency 5
core_0_l2c_fill_latency 5
core_0_l2c_max_tag_check 1
core_0_l2c_max_fill 1
llc_set 2048
llc_way 16
llc_rq_size 32
llc_wq_size 32
llc_pq_size 32
llc_mshr_size 64
llc_hit_latency 10
llc_fill_latency 10
llc_max_tag_check 1
llc_max_fill 1
dram_channels 1
dram_ranks 1
dram_bankgroups 8
dram_banks 4
dram_rows 65536
dram_columns 1024
dram_channel_width 8
dram_rq_size 64
dram_wq_size 64
dram_size 17179869184
core_0_itlb_prefetcher no
core_0_dtlb_prefetcher no
core_0_stlb_prefetcher no
core_0_l1i_prefetcher next_line
core_0_l1d_prefetcher vberti
core_0_l2c_prefetcher ip_stride
llc_prefetcher no
llc_replacement drrip

Core_0_instructions 100000001
Core_0_cycles 691188271
Core_0_IPC 0.144678
Core_0_branch_prediction_accuracy 87.1846
Core_0_branch_MPKI 21.6113
Core_0_average_ROB_occupancy_at_mispredict 25.6479

Core_0_ITLB_total_access 17078
Core_0_ITLB_total_hit 17078
Core_0_ITLB_total_miss 0
Core_0_ITLB_total_MPKI 0
Core_0_ITLB_total_miss_rate 0
Core_0_ITLB_demand_access 17078
Core_0_ITLB_demand_hit 17078
Core_0_ITLB_demand_miss 0
Core_0_ITLB_demand_MPKI 0
Core_0_ITLB_demand_miss_rate 0
Core_0_ITLB_load_access 17078
Core_0_ITLB_load_hit 17078
Core_0_ITLB_load_miss 0
Core_0_ITLB_load_MPKI 0
Core_0_ITLB_load_miss_rate 0
Core_0_ITLB_rfo_access 0
Core_0_ITLB_rfo_hit 0
Core_0_ITLB_rfo_miss 0
Core_0_ITLB_rfo_MPKI 0
Core_0_ITLB_rfo_miss_rate 0
Core_0_ITLB_prefetch_access 0
Core_0_ITLB_prefetch_hit 0
Core_0_ITLB_prefetch_miss 0
Core_0_ITLB_prefetch_MPKI 0
Core_0_ITLB_prefetch_miss_rate 0
Core_0_ITLB_writeback_access 0
Core_0_ITLB_writeback_hit 0
Core_0_ITLB_writeback_miss 0
Core_0_ITLB_writeback_MPKI 0
Core_0_ITLB_writeback_miss_rate 0
Core_0_ITLB_prefetch_requested 0
Core_0_ITLB_prefetch_issued 0
Core_0_ITLB_prefetch_useful 0
Core_0_ITLB_prefetch_useless 0
Core_0_ITLB_prefetch_late 0
Core_0_ITLB_prefetch_fill 0
Core_0_ITLB_prefetch_too_early 0
Core_0_ITLB_prefetch_too_early_among_fill 0
Core_0_ITLB_prefetch_too_early_among_useless 0
Core_0_ITLB_prefetch_pollution_evict 0
Core_0_ITLB_prefetch_pollution_demand 0
Core_0_ITLB_prefetch_pollution_among_prefetch_fill 0
Core_0_ITLB_prefetch_accuracy 0
Core_0_ITLB_prefetch_coverage 0

Core_0_DTLB_total_access 12792314
Core_0_DTLB_total_hit 8607352
Core_0_DTLB_total_miss 4184962
Core_0_DTLB_total_MPKI 41.8496
Core_0_DTLB_total_miss_rate 0.327147
Core_0_DTLB_demand_access 12792314
Core_0_DTLB_demand_hit 8607352
Core_0_DTLB_demand_miss 4184962
Core_0_DTLB_demand_MPKI 41.8496
Core_0_DTLB_demand_miss_rate 0.327147
Core_0_DTLB_load_access 12792314
Core_0_DTLB_load_hit 8607352
Core_0_DTLB_load_miss 4184962
Core_0_DTLB_load_MPKI 41.8496
Core_0_DTLB_load_miss_rate 0.327147
Core_0_DTLB_rfo_access 0
Core_0_DTLB_rfo_hit 0
Core_0_DTLB_rfo_miss 0
Core_0_DTLB_rfo_MPKI 0
Core_0_DTLB_rfo_miss_rate 0
Core_0_DTLB_prefetch_access 0
Core_0_DTLB_prefetch_hit 0
Core_0_DTLB_prefetch_miss 0
Core_0_DTLB_prefetch_MPKI 0
Core_0_DTLB_prefetch_miss_rate 0
Core_0_DTLB_writeback_access 0
Core_0_DTLB_writeback_hit 0
Core_0_DTLB_writeback_miss 0
Core_0_DTLB_writeback_MPKI 0
Core_0_DTLB_writeback_miss_rate 0
Core_0_DTLB_prefetch_requested 0
Core_0_DTLB_prefetch_issued 0
Core_0_DTLB_prefetch_useful 0
Core_0_DTLB_prefetch_useless 0
Core_0_DTLB_prefetch_late 0
Core_0_DTLB_prefetch_fill 0
Core_0_DTLB_prefetch_too_early 0
Core_0_DTLB_prefetch_too_early_among_fill 0
Core_0_DTLB_prefetch_too_early_among_useless 0
Core_0_DTLB_prefetch_pollution_evict 0
Core_0_DTLB_prefetch_pollution_demand 0
Core_0_DTLB_prefetch_pollution_among_prefetch_fill 0
Core_0_DTLB_prefetch_accuracy 0
Core_0_DTLB_prefetch_coverage 0

Core_0_STLB_total_access 3981306
Core_0_STLB_total_hit 139336
Core_0_STLB_total_miss 3841970
Core_0_STLB_total_MPKI 38.4197
Core_0_STLB_total_miss_rate 0.965002
Core_0_STLB_demand_access 3981306
Core_0_STLB_demand_hit 139336
Core_0_STLB_demand_miss 3841970
Core_0_STLB_demand_MPKI 38.4197
Core_0_STLB_demand_miss_rate 0.965002
Core_0_STLB_load_access 3981306
Core_0_STLB_load_hit 139336
Core_0_STLB_load_miss 3841970
Core_0_STLB_load_MPKI 38.4197
Core_0_STLB_load_miss_rate 0.965002
Core_0_STLB_rfo_access 0
Core_0_STLB_rfo_hit 0
Core_0_STLB_rfo_miss 0
Core_0_STLB_rfo_MPKI 0
Core_0_STLB_rfo_miss_rate 0
Core_0_STLB_prefetch_access 0
Core_0_STLB_prefetch_hit 0
Core_0_STLB_prefetch_miss 0
Core_0_STLB_prefetch_MPKI 0
Core_0_STLB_prefetch_miss_rate 0
Core_0_STLB_writeback_access 0
Core_0_STLB_writeback_hit 0
Core_0_STLB_writeback_miss 0
Core_0_STLB_writeback_MPKI 0
Core_0_STLB_writeback_miss_rate 0
Core_0_STLB_prefetch_requested 0
Core_0_STLB_prefetch_issued 0
Core_0_STLB_prefetch_useful 0
Core_0_STLB_prefetch_useless 0
Core_0_STLB_prefetch_late 0
Core_0_STLB_prefetch_fill 0
Core_0_STLB_prefetch_too_early 0
Core_0_STLB_prefetch_too_early_among_fill 0
Core_0_STLB_prefetch_too_early_among_useless 0
Core_0_STLB_prefetch_pollution_evict 0
Core_0_STLB_prefetch_pollution_demand 0
Core_0_STLB_prefetch_pollution_among_prefetch_fill 0
Core_0_STLB_prefetch_accuracy 0
Core_0_STLB_prefetch_coverage 0

Core_0_L1I_total_access 21123
Core_0_L1I_total_hit 21123
Core_0_L1I_total_miss 0
Core_0_L1I_total_MPKI 0
Core_0_L1I_total_miss_rate 0
Core_0_L1I_demand_access 21123
Core_0_L1I_demand_hit 21123
Core_0_L1I_demand_miss 0
Core_0_L1I_demand_MPKI 0
Core_0_L1I_demand_miss_rate 0
Core_0_L1I_load_access 21123
Core_0_L1I_load_hit 21123
Core_0_L1I_load_miss 0
Core_0_L1I_load_MPKI 0
Core_0_L1I_load_miss_rate 0
Core_0_L1I_rfo_access 0
Core_0_L1I_rfo_hit 0
Core_0_L1I_rfo_miss 0
Core_0_L1I_rfo_MPKI 0
Core_0_L1I_rfo_miss_rate 0
Core_0_L1I_prefetch_access 0
Core_0_L1I_prefetch_hit 0
Core_0_L1I_prefetch_miss 0
Core_0_L1I_prefetch_MPKI 0
Core_0_L1I_prefetch_miss_rate 0
Core_0_L1I_writeback_access 0
Core_0_L1I_writeback_hit 0
Core_0_L1I_writeback_miss 0
Core_0_L1I_writeback_MPKI 0
Core_0_L1I_writeback_miss_rate 0
Core_0_L1I_prefetch_requested 0
Core_0_L1I_prefetch_issued 0
Core_0_L1I_prefetch_useful 0
Core_0_L1I_prefetch_useless 0
Core_0_L1I_prefetch_late 0
Core_0_L1I_prefetch_fill 0
Core_0_L1I_prefetch_too_early 0
Core_0_L1I_prefetch_too_early_among_fill 0
Core_0_L1I_prefetch_too_early_among_useless 0
Core_0_L1I_prefetch_pollution_evict 0
Core_0_L1I_prefetch_pollution_demand 0
Core_0_L1I_prefetch_pollution_among_prefetch_fill 0
Core_0_L1I_prefetch_accuracy 0
Core_0_L1I_prefetch_coverage 0

Core_0_L1D_total_access 13434519
Core_0_L1D_total_hit 6378151
Core_0_L1D_total_miss 7056368
Core_0_L1D_total_MPKI 70.5637
Core_0_L1D_total_miss_rate 0.525242
Core_0_L1D_demand_access 9562281
Core_0_L1D_demand_hit 3496272
Core_0_L1D_demand_miss 6066009
Core_0_L1D_demand_MPKI 60.6601
Core_0_L1D_demand_miss_rate 0.634368
Core_0_L1D_load_access 9562281
Core_0_L1D_load_hit 3496272
Core_0_L1D_load_miss 6066009
Core_0_L1D_load_MPKI 60.6601
Core_0_L1D_load_miss_rate 0.634368
Core_0_L1D_rfo_access 0
Core_0_L1D_rfo_hit 0
Core_0_L1D_rfo_miss 0
Core_0_L1D_rfo_MPKI 0
Core_0_L1D_rfo_miss_rate 0
Core_0_L1D_prefetch_access 2052788
Core_0_L1D_prefetch_hit 1121852
Core_0_L1D_prefetch_miss 930936
Core_0_L1D_prefetch_MPKI 9.30936
Core_0_L1D_prefetch_miss_rate 0.453498
Core_0_L1D_writeback_access 1819450
Core_0_L1D_writeback_hit 1760027
Core_0_L1D_writeback_miss 59423
Core_0_L1D_writeback_MPKI 0.59423
Core_0_L1D_writeback_miss_rate 0.0326599
Core_0_L1D_prefetch_requested 2344117
Core_0_L1D_prefetch_issued 2052788
Core_0_L1D_prefetch_useful 34628
Core_0_L1D_prefetch_useless 44513
Core_0_L1D_prefetch_late 0
Core_0_L1D_prefetch_fill 79149
Core_0_L1D_prefetch_too_early 2473
Core_0_L1D_prefetch_too_early_among_fill 0.0312449
Core_0_L1D_prefetch_too_early_among_useless 0.0555568
Core_0_L1D_prefetch_pollution_evict 12671
Core_0_L1D_prefetch_pollution_demand 12661
Core_0_L1D_prefetch_pollution_among_prefetch_fill 0.16009
Core_0_L1D_prefetch_accuracy 0.0168688
Core_0_L1D_prefetch_coverage 0.00567613

Core_0_L2C_total_access 7286507
Core_0_L2C_total_hit 1299708
Core_0_L2C_total_miss 5986799
Core_0_L2C_total_MPKI 59.868
Core_0_L2C_total_miss_rate 0.821628
Core_0_L2C_demand_access 5991111
Core_0_L2C_demand_hit 233175
Core_0_L2C_demand_miss 5757936
Core_0_L2C_demand_MPKI 57.5794
Core_0_L2C_demand_miss_rate 0.96108
Core_0_L2C_load_access 5967607
Core_0_L2C_load_hit 210374
Core_0_L2C_load_miss 5757233
Core_0_L2C_load_MPKI 57.5723
Core_0_L2C_load_miss_rate 0.964747
Core_0_L2C_rfo_access 23504
Core_0_L2C_rfo_hit 22801
Core_0_L2C_rfo_miss 703
Core_0_L2C_rfo_MPKI 0.00703
Core_0_L2C_rfo_miss_rate 0.0299098
Core_0_L2C_prefetch_access 1267211
Core_0_L2C_prefetch_hit 1038399
Core_0_L2C_prefetch_miss 228812
Core_0_L2C_prefetch_MPKI 2.28812
Core_0_L2C_prefetch_miss_rate 0.180563
Core_0_L2C_writeback_access 28185
Core_0_L2C_writeback_hit 28134
Core_0_L2C_writeback_miss 51
Core_0_L2C_writeback_MPKI 0.00051
Core_0_L2C_writeback_miss_rate 0.00180947
Core_0_L2C_prefetch_requested 336275
Core_0_L2C_prefetch_issued 336275
Core_0_L2C_prefetch_useful 13920
Core_0_L2C_prefetch_useless 134886
Core_0_L2C_prefetch_late 0
Core_0_L2C_prefetch_fill 219868
Core_0_L2C_prefetch_too_early 133
Core_0_L2C_prefetch_too_early_among_fill 0.000604908
Core_0_L2C_prefetch_too_early_among_useless 0.000986018
Core_0_L2C_prefetch_pollution_evict 45164
Core_0_L2C_prefetch_pollution_demand 45162
Core_0_L2C_prefetch_pollution_among_prefetch_fill 0.205414
Core_0_L2C_prefetch_accuracy 0.0413947
Core_0_L2C_prefetch_coverage 0.0024117

Core_0_LLC_total_access 5980522
Core_0_LLC_total_hit 1420250
Core_0_LLC_total_miss 4560272
Core_0_LLC_total_MPKI 45.6027
Core_0_LLC_total_miss_rate 0.762521
Core_0_LLC_demand_access 5757936
Core_0_LLC_demand_hit 1331715
Core_0_LLC_demand_miss 4426221
Core_0_LLC_demand_MPKI 44.2622
Core_0_LLC_demand_miss_rate 0.768717
Core_0_LLC_load_access 5757233
Core_0_LLC_load_hit 1331015
Core_0_LLC_load_miss 4426218
Core_0_LLC_load_MPKI 44.2622
Core_0_LLC_load_miss_rate 0.76881
Core_0_LLC_rfo_access 703
Core_0_LLC_rfo_hit 700
Core_0_LLC_rfo_miss 3
Core_0_LLC_rfo_MPKI 3e-05
Core_0_LLC_rfo_miss_rate 0.00426743
Core_0_LLC_prefetch_access 219868
Core_0_LLC_prefetch_hit 85840
Core_0_LLC_prefetch_miss 134028
Core_0_LLC_prefetch_MPKI 1.34028
Core_0_LLC_prefetch_miss_rate 0.609584
Core_0_LLC_writeback_access 2718
Core_0_LLC_writeback_hit 2695
Core_0_LLC_writeback_miss 23
Core_0_LLC_writeback_MPKI 0.00023
Core_0_LLC_writeback_miss_rate 0.0084621
Core_0_LLC_prefetch_requested 0
Core_0_LLC_prefetch_issued 0
Core_0_LLC_prefetch_useful 0
Core_0_LLC_prefetch_useless 0
Core_0_LLC_prefetch_late 0
Core_0_LLC_prefetch_fill 134028
Core_0_LLC_prefetch_too_early 0
Core_0_LLC_prefetch_too_early_among_fill 0
Core_0_LLC_prefetch_too_early_among_useless 0
Core_0_LLC_prefetch_pollution_evict 28632
Core_0_LLC_prefetch_pollution_demand 28632
Core_0_LLC_prefetch_pollution_among_prefetch_fill 0.213627
Core_0_LLC_prefetch_accuracy 0
Core_0_LLC_prefetch_coverage 0

[DRAM Statistics]
Channel_0_RQ_row_buffer_hit 30343
Channel_0_RQ_row_buffer_miss 5997481
Channel_0_WQ_row_buffer_hit 2
Channel_0_WQ_row_buffer_miss 22
Channel_0_WQ_full 0
Channel_0_dbus_congested 6272871
DRAM_total_RQ_row_buffer_hit 30343
DRAM_total_RQ_row_buffer_miss 5997481
DRAM_total_WQ_row_buffer_hit 2
DRAM_total_WQ_row_buffer_miss 22
DRAM_total_WQ_full 0
DRAM_total_dbus_congested 6272871
DRAM_avg_congested_cycle 2.93165

====== DRAM_RQ_TRAFFIC ========
DRAM_RQ_READ_TRAFFIC_BREAKDOWN:
data_demand_read.count = 4426221
data_demand_read.share = 73.43%

inst_demand_read.count = 0
inst_demand_read.share = 0.00%

cache_inst_prefetch.count = 0
cache_inst_prefetch.share = 0.00%

cache_data_prefetch.count = 134028
cache_data_prefetch.share = 2.22%

stlb_data_demand.count = 1467575
stlb_data_demand.share = 24.35%

stlb_inst_demand.count = 0
stlb_inst_demand.share = 0.00%

stlb_l1i_pref.count = 0
stlb_l1i_pref.share = 0.00%

stlb_l1d_pref.count = 0
stlb_l1d_pref.share = 0.00%

DRAM_RQ_READ_TRAFFIC_SUMMARY:
cache_demand.count = 4426221
cache_demand.share = 73.43%

cache_prefetch.count = 134028
cache_prefetch.share = 2.22%

stlb_demand.count = 1467575
stlb_demand.share = 24.35%

stlb_prefetch.count = 0
stlb_prefetch.share = 0.00%

DRAM_RQ_READ_TRAFFIC_DEBUG:
total_classified_read.count = 6027824
unclassified_read.count = 0
total_read_with_other.count = 6027824

classified_plus_unclassified_check.count = 6027824
dram_rq_read_total_observed.count = 6027824
dram_rq_read_total_observed.per_1K_instructions = 60.2782

STLB_MISS_PTW_DRAM_TOUCH_BREAKDOWN:
stlb_miss_total.count = 3841970

stlb_miss_touch_dram.count = 1469561
stlb_miss_touch_dram.share = 38.25%

stlb_miss_no_dram_touch.count = 2372409
stlb_miss_no_dram_touch.share = 61.75%

STLB_MISS_PTW_DRAM_TOUCH_DEBUG:
stlb_miss_touch_plus_no_touch.count = 3841970
stlb_miss_total_check.count = 3841970

======STLB miss causes ========
Core_0_STLB_miss_cause_breakdown
Core_0_STLB_cause_Demand_Data_miss 3840170
Core_0_STLB_cause_Demand_Data_miss_rate 0.96455
Core_0_STLB_cause_Demand_Instruction_miss 0
Core_0_STLB_cause_Demand_Instruction_miss_rate 0
Core_0_STLB_cause_L1D_Prefetch_miss 1800
Core_0_STLB_cause_L1D_Prefetch_miss_rate 0.000452113
Core_0_STLB_cause_L1D_Prefetch_Same_Page_miss 0
Core_0_STLB_cause_L1D_Prefetch_Same_Page_miss_rate 0
Core_0_STLB_cause_L1D_Prefetch_Cross_Page_miss 1800
Core_0_STLB_cause_L1D_Prefetch_Cross_Page_miss_rate 0.000452113
Core_0_STLB_cause_L1I_Prefetch_miss 0
Core_0_STLB_cause_L1I_Prefetch_miss_rate 0
Core_0_STLB_cause_Other_miss 0
Core_0_STLB_cause_Other_miss_rate 0
Core_0_STLB_Demand_miss 3840170
Core_0_STLB_Demand_miss_rate 0.96455
Core_0_STLB_L1D_Prefetch_miss 1800
Core_0_STLB_L1D_Prefetch_miss_rate 0.000452113
Core_0_STLB_Other_miss 0
Core_0_STLB_Other_miss_rate 0

========== vBerti-TLB Cross-page Flow Stats ==========

Core_0_vBerti_Requested 2344117
Core_0_vBerti_Cross_page_prefetch_in_Requested 277289
Core_0_vBerti_Same_page_prefetch_in_Requested 2066828
Core_0_vBerti_Cross_page_prefetch_of_Requested 0.118291
Core_0_vBerti_Issued 2052788
Core_0_vBerti_InPQ_Same_page_prefetch 1841332
Core_0_vBerti_InPQ_Cross_page_prefetch 211456
Core_0_vBerti_PQ_Drop_Rate 0.124281
Core_0_vBerti_InPQ_Cross_page_prefetch_of_Requested 0.0902071
Core_0_vBerti_Cross_page_PQ_Drop_rate 0.237417
Core_0_vBerti_Cross_page_prefetch_of_Issued 0.103009
Core_0_CP_PF_PQFULL_drop 65833
Core_0_CP_PF_PQFULL_TLB_rescue_enqueued 0
Core_0_CP_PF_PQFULL_TLB_rescue_issued 0
Core_0_CP_PF_PQFULL_TLB_rescue_translated 0

========= DTLB_vBerti Prefetch Stats =========
Core_0_DTLB_demand_access 11221549
Core_0_DTLB_demand_hit 7042539
Core_0_DTLB_demand_miss 4179010
Core_0_DTLB_demand_mshr_merge 202475
Core_0_DTLB_demand_fill 3976540
Core_0_DTLB_demand_miss_rate 0.372409
Core_0_DTLB_demand_mpki 41.7901
Core_0_DTLB_vberti_prefetch_access 1570765
Core_0_DTLB_vberti_prefetch_hit 1564813
Core_0_DTLB_vberti_prefetch_miss 5952
Core_0_DTLB_vberti_prefetch_mshr_merge 1181
Core_0_DTLB_vberti_prefetch_fill 4771
Core_0_DTLB_vberti_prefetch_miss_rate 0.00378924
Core_0_DTLB_vberti_prefetch_mpki 0.05952

=== DTLB_vBerti Same/Cross-page Prefetch Stats ===
Core_0_DTLB_vberti_same_page_prefetch 1394377
Core_0_DTLB_vberti_same_page_prefetch_hit 1394377
Core_0_DTLB_vberti_same_page_prefetch_miss 0
Core_0_DTLB_vberti_same_page_prefetch_mshr_merge 0
Core_0_DTLB_vberti_same_page_prefetch_fill 0
Core_0_DTLB_vberti_same_page_prefetch_miss_rate 0
Core_0_DTLB_vberti_same_page_prefetch_mpki 0
Core_0_DTLB_vberti_cross_page_prefetch 176388
Core_0_DTLB_vberti_cross_page_prefetch_hit 170436
Core_0_DTLB_vberti_cross_page_prefetch_miss 5952
Core_0_DTLB_vberti_cross_page_prefetch_mshr_merge 1181
Core_0_DTLB_vberti_cross_page_prefetch_fill 4771
Core_0_DTLB_vberti_cross_page_prefetch_miss_rate 0.0337438
Core_0_DTLB_vberti_cross_page_prefetch_mpki 0.05952
Core_0_DTLB_same_page_prefetch_miss_rate 0
Core_0_DTLB_same_page_prefetch_mpki 0
Core_0_DTLB_cross_page_prefetch_miss_rate 0.0337438
Core_0_DTLB_cross_page_prefetch_mpki 0.05952
Core_0_DTLB_cross_page_prefetch_issued 176388
Core_0_DTLB_cross_page_prefetch_lookups 176388
Core_0_DTLB_cross_page_prefetch_useful 829
Core_0_DTLB_cross_page_prefetch_useless 3942
Core_0_DTLB_cross_page_prefetch_late 0
Core_0_DTLB_cross_page_prefetch_too_early 356
Core_0_DTLB_cross_page_prefetch_too_early_among_fill 0.0746175
Core_0_DTLB_cross_page_prefetch_too_early_among_useless 0.0903095
Core_0_DTLB_cross_page_prefetch_pollution_evict 2411
Core_0_DTLB_cross_page_prefetch_pollution_demand 2411
Core_0_DTLB_cross_page_prefetch_pollution_among_prefetch_fill 0.505345
Core_0_DTLB_cross_page_prefetch_accuracy 0.00469987
Core_0_DTLB_cross_page_prefetch_coverage 0.000198333

========= STLB_vBerti Prefetch Stats =========
Core_0_STLB_demand_access 3976535
Core_0_STLB_demand_hit 136365
Core_0_STLB_demand_miss 3840170
Core_0_STLB_demand_mshr_merge 0
Core_0_STLB_demand_fill 3840175
Core_0_STLB_demand_miss_rate 0.965708
Core_0_STLB_demand_mpki 38.4017
Core_0_STLB_vberti_prefetch_access 4771
Core_0_STLB_vberti_prefetch_hit 2971
Core_0_STLB_vberti_prefetch_miss 1800
Core_0_STLB_vberti_prefetch_mshr_merge 0
Core_0_STLB_vberti_prefetch_fill 1800
Core_0_STLB_vberti_prefetch_miss_rate 0.377279
Core_0_STLB_vberti_prefetch_mpki 0.018

=== STLB_vBerti Same/Cross-page Prefetch Stats ===
Core_0_STLB_vberti_same_page_prefetch 0
Core_0_STLB_vberti_same_page_prefetch_hit 0
Core_0_STLB_vberti_same_page_prefetch_miss 0
Core_0_STLB_vberti_same_page_prefetch_mshr_merge 0
Core_0_STLB_vberti_same_page_prefetch_fill 0
Core_0_STLB_vberti_same_page_prefetch_miss_rate 0
Core_0_STLB_vberti_same_page_prefetch_mpki 0
Core_0_STLB_vberti_cross_page_prefetch 4771
Core_0_STLB_vberti_cross_page_prefetch_hit 2971
Core_0_STLB_vberti_cross_page_prefetch_miss 1800
Core_0_STLB_vberti_cross_page_prefetch_mshr_merge 0
Core_0_STLB_vberti_cross_page_prefetch_fill 1800
Core_0_STLB_vberti_cross_page_prefetch_miss_rate 0.377279
Core_0_STLB_vberti_cross_page_prefetch_mpki 0.018
Core_0_STLB_same_page_prefetch_miss_rate 0
Core_0_STLB_same_page_prefetch_mpki 0
Core_0_STLB_cross_page_prefetch_miss_rate 0.377279
Core_0_STLB_cross_page_prefetch_mpki 0.018
Core_0_STLB_cross_page_prefetch_issued 4771
Core_0_STLB_cross_page_prefetch_lookups 4771
Core_0_STLB_cross_page_prefetch_useful 149
Core_0_STLB_cross_page_prefetch_useless 1651
Core_0_STLB_cross_page_prefetch_late 0
Core_0_STLB_cross_page_prefetch_too_early 387
Core_0_STLB_cross_page_prefetch_too_early_among_fill 0.215
Core_0_STLB_cross_page_prefetch_too_early_among_useless 0.234403
Core_0_STLB_cross_page_prefetch_pollution_evict 1373
Core_0_STLB_cross_page_prefetch_pollution_demand 1373
Core_0_STLB_cross_page_prefetch_pollution_among_prefetch_fill 0.762778
Core_0_STLB_cross_page_prefetch_accuracy 0.0312304
Core_0_STLB_cross_page_prefetch_coverage 3.87989e-05

========= STLB Cross-page Prefetch Buffer Stats =========
Core_0_STLB_raw_demand_miss 3840170
Core_0_CP_PB_insert 0
Core_0_CP_PB_demand_hit 0
Core_0_STLB_PB_demand_miss 3840170
Core_0_CP_PB_coverage 0
Core_0_STLB_raw_demand_mpki 38.4017
Core_0_STLB_PB_demand_mpki 38.4017
Core_0_CP_PB_demand_hit_mpki 0

Core_0_TLB_demand_miss_rate 0.342214
Core_0_TLB_demand_mpki 38.4017
Core_0_TLB_same_page_prefetch_miss_rate 0
Core_0_TLB_same_page_prefetch_mpki 0
Core_0_TLB_cross_page_prefetch_miss_rate 0.0102048
Core_0_TLB_cross_page_prefetch_mpki 0.018
Core_0_TLB_cross_page_prefetch_issued 176388
Core_0_TLB_cross_page_prefetch_lookups 176388
Core_0_TLB_cross_page_prefetch_useful 31
Core_0_TLB_cross_page_prefetch_useless 3398
Core_0_TLB_cross_page_prefetch_late 0
Core_0_TLB_cross_page_prefetch_too_early 213
Core_0_TLB_cross_page_prefetch_too_early_among_fill 0.0324152
Core_0_TLB_cross_page_prefetch_too_early_among_useless 0.0626839
Core_0_TLB_cross_page_prefetch_accuracy 0.000175749
Core_0_TLB_cross_page_prefetch_coverage 8.07249e-06
====== vBerti internal metric ========
Core_0_vBerti_end_to_end_issued 2052788
Core_0_vBerti_end_to_end_useful 312
Core_0_vBerti_end_to_end_late 0
Core_0_vBerti_end_to_end_accuracy 0.000151988
Core_0_vBerti_end_to_end_timely_accuracy 0.000151988
BERTI TO_L1: 943022 TO_L2: 1401095 TO_L2_BC_MSHR: 0
BERTI AVG_LAT: 174.461 NUM_TRACK_LATENCY: 6054460 NUM_CANT_TRACK_LATENCY: 0
BERTI CROSS_PAGE 277289 NO_CROSS_PAGE: 2066828
BERTI FOUND_BERTI: 8806169 NO_FOUND_BERTI: 2575667
BERTI AVERAGE_ISSUED: 3.3949
