[VMEM] WARNING: physical memory size is smaller than virtual memory size.

*** ChampSim Multicore Out-of-Order Simulator ***
Warmup Instructions: 50000000
Simulation Instructions: 100000000
Number of CPUs: 1
Page size: 4096
Core 0: /data2/zcq/champsim_traces_xsbench/xs.XL100nuclide-185B.champsimtrace.xz
VBerti Prefetcher
BERTI HASH ENTANGLING
BERTI IP MASK ffff
Off-chip DRAM Size: 16 GiB Channels: 1 Width: 64-bit Data Rate: 3205 MT/s
Warmup halting CPU 0 at instruction 50000005 cycle 34178717 for remainder of phase
Warmup finished CPU 0 instructions: 50000005 cycles: 34178717 cumulative IPC: 1.463 (Simulation time: 00 hr 06 min 53 sec)
Warmup complete CPU 0 instructions: 50000005 cycles: 34178717 cumulative IPC: 1.463 (Simulation time: 00 hr 06 min 53 sec)
Simulation finished CPU 0 instructions: 100000001 cycles: 645625262 cumulative IPC: 0.1549 (Simulation time: 00 hr 54 min 09 sec)
Simulation complete CPU 0 instructions: 100000001 cycles: 645625262 cumulative IPC: 0.1549 (Simulation time: 00 hr 54 min 09 sec)

ChampSim completed all CPUs

=== Simulation ===
CPU 0 runs /data2/zcq/champsim_traces_xsbench/xs.XL100nuclide-185B.champsimtrace.xz

Region of Interest Statistics

CPU 0 cumulative IPC: 0.1549 instructions: 100000001 cycles: 645625262
CPU 0 Branch Prediction Accuracy: 87.1% MPKI: 21.56 Average ROB Occupancy at Mispredict: 25.77
Branch type MPKI
BRANCH_DIRECT_JUMP: 0
BRANCH_INDIRECT: 0
BRANCH_CONDITIONAL: 21.56
BRANCH_DIRECT_CALL: 0
BRANCH_INDIRECT_CALL: 0
BRANCH_RETURN: 0

cpu0->cpu0_STLB TOTAL        ACCESS:    3799174 HIT:     149043 MISS:    3650131 MSHR_MERGE:          0
cpu0->cpu0_STLB LOAD         ACCESS:    3799174 HIT:     149043 MISS:    3650131 MSHR_MERGE:          0
cpu0->cpu0_STLB RFO          ACCESS:          0 HIT:          0 MISS:          0 MSHR_MERGE:          0
cpu0->cpu0_STLB PREFETCH     ACCESS:          0 HIT:          0 MISS:          0 MSHR_MERGE:          0
cpu0->cpu0_STLB WRITE        ACCESS:          0 HIT:          0 MISS:          0 MSHR_MERGE:          0
cpu0->cpu0_STLB TRANSLATION  ACCESS:          0 HIT:          0 MISS:          0 MSHR_MERGE:          0
cpu0->cpu0_STLB PREFETCH REQUESTED:          0 ISSUED:          0 USEFUL:          0 USELESS:          0 LATE:          0 TOO_EARLY:          0
cpu0->cpu0_STLB AVERAGE MISS LATENCY: 146.4 cycles
cpu0->cpu0_L2C TOTAL        ACCESS:   10017439 HIT:    1492850 MISS:    8524589 MSHR_MERGE:       8109
cpu0->cpu0_L2C LOAD         ACCESS:    5864806 HIT:     262472 MISS:    5602334 MSHR_MERGE:        115
cpu0->cpu0_L2C RFO          ACCESS:      23740 HIT:      22926 MISS:        814 MSHR_MERGE:          0
cpu0->cpu0_L2C PREFETCH     ACCESS:    1232123 HIT:     976709 MISS:     255414 MSHR_MERGE:       7994
cpu0->cpu0_L2C WRITE        ACCESS:      27175 HIT:      27152 MISS:         23 MSHR_MERGE:          0
cpu0->cpu0_L2C TRANSLATION  ACCESS:    2869595 HIT:     203591 MISS:    2666004 MSHR_MERGE:          0
cpu0->cpu0_L2C PREFETCH REQUESTED:     320288 ISSUED:     320288 USEFUL:      14946 USELESS:     160726 LATE:        115 TOO_EARLY:        165
cpu0->cpu0_L2C AVERAGE MISS LATENCY: 146.7 cycles
cpu0->cpu0_L1I TOTAL        ACCESS:      22118 HIT:      22118 MISS:          0 MSHR_MERGE:          0
cpu0->cpu0_L1I LOAD         ACCESS:      22118 HIT:      22118 MISS:          0 MSHR_MERGE:          0
cpu0->cpu0_L1I RFO          ACCESS:          0 HIT:          0 MISS:          0 MSHR_MERGE:          0
cpu0->cpu0_L1I PREFETCH     ACCESS:          0 HIT:          0 MISS:          0 MSHR_MERGE:          0
cpu0->cpu0_L1I WRITE        ACCESS:          0 HIT:          0 MISS:          0 MSHR_MERGE:          0
cpu0->cpu0_L1I TRANSLATION  ACCESS:          0 HIT:          0 MISS:          0 MSHR_MERGE:          0
cpu0->cpu0_L1I PREFETCH REQUESTED:          0 ISSUED:          0 USEFUL:          0 USELESS:          0 LATE:          0 TOO_EARLY:          0
cpu0->cpu0_L1I AVERAGE MISS LATENCY: - cycles
cpu0->cpu0_L1D TOTAL        ACCESS:   21470511 HIT:   10335536 MISS:   11134975 MSHR_MERGE:    1464916
cpu0->cpu0_L1D LOAD         ACCESS:    9633379 HIT:    3658252 MISS:    5975127 MSHR_MERGE:     110321
cpu0->cpu0_L1D RFO          ACCESS:          0 HIT:          0 MISS:          0 MSHR_MERGE:          0
cpu0->cpu0_L1D PREFETCH     ACCESS:    2156072 HIT:    1244236 MISS:     911836 MSHR_MERGE:          1
cpu0->cpu0_L1D WRITE        ACCESS:    1902407 HIT:    1830730 MISS:      71677 MSHR_MERGE:      47854
cpu0->cpu0_L1D TRANSLATION  ACCESS:    7778653 HIT:    3602318 MISS:    4176335 MSHR_MERGE:    1306740
cpu0->cpu0_L1D PREFETCH REQUESTED:    2441530 ISSUED:    2156071 USEFUL:      39627 USELESS:      47294 LATE:          0 TOO_EARLY:       1923
cpu0->cpu0_L1D AVERAGE MISS LATENCY: 147.6 cycles
cpu0->cpu0_ITLB TOTAL        ACCESS:      17990 HIT:      17990 MISS:          0 MSHR_MERGE:          0
cpu0->cpu0_ITLB LOAD         ACCESS:      17990 HIT:      17990 MISS:          0 MSHR_MERGE:          0
cpu0->cpu0_ITLB RFO          ACCESS:          0 HIT:          0 MISS:          0 MSHR_MERGE:          0
cpu0->cpu0_ITLB PREFETCH     ACCESS:          0 HIT:          0 MISS:          0 MSHR_MERGE:          0
cpu0->cpu0_ITLB WRITE        ACCESS:          0 HIT:          0 MISS:          0 MSHR_MERGE:          0
cpu0->cpu0_ITLB TRANSLATION  ACCESS:          0 HIT:          0 MISS:          0 MSHR_MERGE:          0
cpu0->cpu0_ITLB PREFETCH REQUESTED:          0 ISSUED:          0 USEFUL:          0 USELESS:          0 LATE:          0 TOO_EARLY:          0
cpu0->cpu0_ITLB AVERAGE MISS LATENCY: - cycles
cpu0->cpu0_DTLB TOTAL        ACCESS:   13002493 HIT:    8990686 MISS:    4011807 MSHR_MERGE:     212633
cpu0->cpu0_DTLB LOAD         ACCESS:   13002493 HIT:    8990686 MISS:    4011807 MSHR_MERGE:     212633
cpu0->cpu0_DTLB RFO          ACCESS:          0 HIT:          0 MISS:          0 MSHR_MERGE:          0
cpu0->cpu0_DTLB PREFETCH     ACCESS:          0 HIT:          0 MISS:          0 MSHR_MERGE:          0
cpu0->cpu0_DTLB WRITE        ACCESS:          0 HIT:          0 MISS:          0 MSHR_MERGE:          0
cpu0->cpu0_DTLB TRANSLATION  ACCESS:          0 HIT:          0 MISS:          0 MSHR_MERGE:          0
cpu0->cpu0_DTLB PREFETCH REQUESTED:          0 ISSUED:          0 USEFUL:          0 USELESS:          0 LATE:          0 TOO_EARLY:          0
cpu0->cpu0_DTLB AVERAGE MISS LATENCY: 146.7 cycles
cpu0->LLC TOTAL        ACCESS:    8518527 HIT:    2949110 MISS:    5569417 MSHR_MERGE:          0
cpu0->LLC LOAD         ACCESS:    5602219 HIT:    1352194 MISS:    4250025 MSHR_MERGE:          0
cpu0->LLC RFO          ACCESS:        814 HIT:        809 MISS:          5 MSHR_MERGE:          0
cpu0->LLC PREFETCH     ACCESS:     247420 HIT:      82591 MISS:     164829 MSHR_MERGE:          0
cpu0->LLC WRITE        ACCESS:       2070 HIT:       2055 MISS:         15 MSHR_MERGE:          0
cpu0->LLC TRANSLATION  ACCESS:    2666004 HIT:    1511461 MISS:    1154543 MSHR_MERGE:          0
cpu0->LLC PREFETCH REQUESTED:          0 ISSUED:          0 USEFUL:          0 USELESS:          0 LATE:          0 TOO_EARLY:          0
cpu0->LLC AVERAGE MISS LATENCY: 200.6 cycles

DRAM Statistics

Channel 0 RQ ROW_BUFFER_HIT:      57318
  ROW_BUFFER_MISS:    5512084
  AVG DBUS CONGESTED CYCLE: 2.939
Channel 0 WQ ROW_BUFFER_HIT:          2
  ROW_BUFFER_MISS:         16
  FULL:          0
Channel 0 REFRESHES ISSUED:      53802

[ROI Statistics]
[System Configuration]
num_cpus 1
cpu_freq 4000
fetch_width 6
decode_width 6
dispatch_width 6
execute_width 6
lq_width 2
sq_width 2
retire_width 6
scheduler_size 128
branch_mispredict_penalty 15
rob_size 352
lq_size 128
sq_size 72
ifetch_buffer_size 64
decode_buffer_size 32
dispatch_buffer_size 32
register_file_size 288
decode_latency 1
dispatch_latency 1
schedule_latency 1
execute_latency 1
page_size 4096
block_size 64
core_0_itlb_set 16
core_0_itlb_way 4
core_0_itlb_rq_size 16
core_0_itlb_wq_size 16
core_0_itlb_pq_size 0
core_0_itlb_mshr_size 8
core_0_itlb_hit_latency 1
core_0_itlb_fill_latency 1
core_0_itlb_max_tag_check 2
core_0_itlb_max_fill 2
core_0_dtlb_set 16
core_0_dtlb_way 4
core_0_dtlb_rq_size 16
core_0_dtlb_wq_size 16
core_0_dtlb_pq_size 0
core_0_dtlb_mshr_size 8
core_0_dtlb_hit_latency 1
core_0_dtlb_fill_latency 1
core_0_dtlb_max_tag_check 2
core_0_dtlb_max_fill 2
core_0_stlb_set 128
core_0_stlb_way 12
core_0_stlb_rq_size 32
core_0_stlb_wq_size 32
core_0_stlb_pq_size 0
core_0_stlb_mshr_size 16
core_0_stlb_hit_latency 4
core_0_stlb_fill_latency 4
core_0_stlb_max_tag_check 1
core_0_stlb_max_fill 1
core_0_l1i_set 64
core_0_l1i_way 8
core_0_l1i_rq_size 64
core_0_l1i_wq_size 64
core_0_l1i_pq_size 32
core_0_l1i_mshr_size 8
core_0_l1i_hit_latency 2
core_0_l1i_fill_latency 2
core_0_l1i_max_tag_check 2
core_0_l1i_max_fill 2
core_0_l1d_set 64
core_0_l1d_way 12
core_0_l1d_rq_size 64
core_0_l1d_wq_size 64
core_0_l1d_pq_size 8
core_0_l1d_mshr_size 16
core_0_l1d_hit_latency 2
core_0_l1d_fill_latency 3
core_0_l1d_max_tag_check 2
core_0_l1d_max_fill 2
core_0_l2c_set 1024
core_0_l2c_way 8
core_0_l2c_rq_size 32
core_0_l2c_wq_size 32
core_0_l2c_pq_size 16
core_0_l2c_mshr_size 32
core_0_l2c_hit_latency 5
core_0_l2c_fill_latency 5
core_0_l2c_max_tag_check 1
core_0_l2c_max_fill 1
llc_set 2048
llc_way 16
llc_rq_size 32
llc_wq_size 32
llc_pq_size 32
llc_mshr_size 64
llc_hit_latency 10
llc_fill_latency 10
llc_max_tag_check 1
llc_max_fill 1
dram_channels 1
dram_ranks 1
dram_bankgroups 8
dram_banks 4
dram_rows 65536
dram_columns 1024
dram_channel_width 8
dram_rq_size 64
dram_wq_size 64
dram_size 17179869184
core_0_itlb_prefetcher no
core_0_dtlb_prefetcher no
core_0_stlb_prefetcher no
core_0_l1i_prefetcher next_line
core_0_l1d_prefetcher vberti
core_0_l2c_prefetcher ip_stride
llc_prefetcher no
llc_replacement drrip

Core_0_instructions 100000001
Core_0_cycles 645625262
Core_0_IPC 0.154889
Core_0_branch_prediction_accuracy 87.1027
Core_0_branch_MPKI 21.5612
Core_0_average_ROB_occupancy_at_mispredict 25.7716

Core_0_ITLB_total_access 17990
Core_0_ITLB_total_hit 17990
Core_0_ITLB_total_miss 0
Core_0_ITLB_total_MPKI 0
Core_0_ITLB_total_miss_rate 0
Core_0_ITLB_demand_access 17990
Core_0_ITLB_demand_hit 17990
Core_0_ITLB_demand_miss 0
Core_0_ITLB_demand_MPKI 0
Core_0_ITLB_demand_miss_rate 0
Core_0_ITLB_load_access 17990
Core_0_ITLB_load_hit 17990
Core_0_ITLB_load_miss 0
Core_0_ITLB_load_MPKI 0
Core_0_ITLB_load_miss_rate 0
Core_0_ITLB_rfo_access 0
Core_0_ITLB_rfo_hit 0
Core_0_ITLB_rfo_miss 0
Core_0_ITLB_rfo_MPKI 0
Core_0_ITLB_rfo_miss_rate 0
Core_0_ITLB_prefetch_access 0
Core_0_ITLB_prefetch_hit 0
Core_0_ITLB_prefetch_miss 0
Core_0_ITLB_prefetch_MPKI 0
Core_0_ITLB_prefetch_miss_rate 0
Core_0_ITLB_writeback_access 0
Core_0_ITLB_writeback_hit 0
Core_0_ITLB_writeback_miss 0
Core_0_ITLB_writeback_MPKI 0
Core_0_ITLB_writeback_miss_rate 0
Core_0_ITLB_prefetch_requested 0
Core_0_ITLB_prefetch_issued 0
Core_0_ITLB_prefetch_useful 0
Core_0_ITLB_prefetch_useless 0
Core_0_ITLB_prefetch_late 0
Core_0_ITLB_prefetch_fill 0
Core_0_ITLB_prefetch_too_early 0
Core_0_ITLB_prefetch_too_early_among_fill 0
Core_0_ITLB_prefetch_too_early_among_useless 0
Core_0_ITLB_prefetch_pollution_evict 0
Core_0_ITLB_prefetch_pollution_demand 0
Core_0_ITLB_prefetch_pollution_among_prefetch_fill 0
Core_0_ITLB_prefetch_accuracy 0
Core_0_ITLB_prefetch_coverage 0

Core_0_DTLB_total_access 13002493
Core_0_DTLB_total_hit 8990686
Core_0_DTLB_total_miss 4011807
Core_0_DTLB_total_MPKI 40.1181
Core_0_DTLB_total_miss_rate 0.308541
Core_0_DTLB_demand_access 13002493
Core_0_DTLB_demand_hit 8990686
Core_0_DTLB_demand_miss 4011807
Core_0_DTLB_demand_MPKI 40.1181
Core_0_DTLB_demand_miss_rate 0.308541
Core_0_DTLB_load_access 13002493
Core_0_DTLB_load_hit 8990686
Core_0_DTLB_load_miss 4011807
Core_0_DTLB_load_MPKI 40.1181
Core_0_DTLB_load_miss_rate 0.308541
Core_0_DTLB_rfo_access 0
Core_0_DTLB_rfo_hit 0
Core_0_DTLB_rfo_miss 0
Core_0_DTLB_rfo_MPKI 0
Core_0_DTLB_rfo_miss_rate 0
Core_0_DTLB_prefetch_access 0
Core_0_DTLB_prefetch_hit 0
Core_0_DTLB_prefetch_miss 0
Core_0_DTLB_prefetch_MPKI 0
Core_0_DTLB_prefetch_miss_rate 0
Core_0_DTLB_writeback_access 0
Core_0_DTLB_writeback_hit 0
Core_0_DTLB_writeback_miss 0
Core_0_DTLB_writeback_MPKI 0
Core_0_DTLB_writeback_miss_rate 0
Core_0_DTLB_prefetch_requested 0
Core_0_DTLB_prefetch_issued 0
Core_0_DTLB_prefetch_useful 0
Core_0_DTLB_prefetch_useless 0
Core_0_DTLB_prefetch_late 0
Core_0_DTLB_prefetch_fill 0
Core_0_DTLB_prefetch_too_early 0
Core_0_DTLB_prefetch_too_early_among_fill 0
Core_0_DTLB_prefetch_too_early_among_useless 0
Core_0_DTLB_prefetch_pollution_evict 0
Core_0_DTLB_prefetch_pollution_demand 0
Core_0_DTLB_prefetch_pollution_among_prefetch_fill 0
Core_0_DTLB_prefetch_accuracy 0
Core_0_DTLB_prefetch_coverage 0

Core_0_STLB_total_access 3799174
Core_0_STLB_total_hit 149043
Core_0_STLB_total_miss 3650131
Core_0_STLB_total_MPKI 36.5013
Core_0_STLB_total_miss_rate 0.96077
Core_0_STLB_demand_access 3799174
Core_0_STLB_demand_hit 149043
Core_0_STLB_demand_miss 3650131
Core_0_STLB_demand_MPKI 36.5013
Core_0_STLB_demand_miss_rate 0.96077
Core_0_STLB_load_access 3799174
Core_0_STLB_load_hit 149043
Core_0_STLB_load_miss 3650131
Core_0_STLB_load_MPKI 36.5013
Core_0_STLB_load_miss_rate 0.96077
Core_0_STLB_rfo_access 0
Core_0_STLB_rfo_hit 0
Core_0_STLB_rfo_miss 0
Core_0_STLB_rfo_MPKI 0
Core_0_STLB_rfo_miss_rate 0
Core_0_STLB_prefetch_access 0
Core_0_STLB_prefetch_hit 0
Core_0_STLB_prefetch_miss 0
Core_0_STLB_prefetch_MPKI 0
Core_0_STLB_prefetch_miss_rate 0
Core_0_STLB_writeback_access 0
Core_0_STLB_writeback_hit 0
Core_0_STLB_writeback_miss 0
Core_0_STLB_writeback_MPKI 0
Core_0_STLB_writeback_miss_rate 0
Core_0_STLB_prefetch_requested 0
Core_0_STLB_prefetch_issued 0
Core_0_STLB_prefetch_useful 0
Core_0_STLB_prefetch_useless 0
Core_0_STLB_prefetch_late 0
Core_0_STLB_prefetch_fill 0
Core_0_STLB_prefetch_too_early 0
Core_0_STLB_prefetch_too_early_among_fill 0
Core_0_STLB_prefetch_too_early_among_useless 0
Core_0_STLB_prefetch_pollution_evict 0
Core_0_STLB_prefetch_pollution_demand 0
Core_0_STLB_prefetch_pollution_among_prefetch_fill 0
Core_0_STLB_prefetch_accuracy 0
Core_0_STLB_prefetch_coverage 0

Core_0_L1I_total_access 22118
Core_0_L1I_total_hit 22118
Core_0_L1I_total_miss 0
Core_0_L1I_total_MPKI 0
Core_0_L1I_total_miss_rate 0
Core_0_L1I_demand_access 22118
Core_0_L1I_demand_hit 22118
Core_0_L1I_demand_miss 0
Core_0_L1I_demand_MPKI 0
Core_0_L1I_demand_miss_rate 0
Core_0_L1I_load_access 22118
Core_0_L1I_load_hit 22118
Core_0_L1I_load_miss 0
Core_0_L1I_load_MPKI 0
Core_0_L1I_load_miss_rate 0
Core_0_L1I_rfo_access 0
Core_0_L1I_rfo_hit 0
Core_0_L1I_rfo_miss 0
Core_0_L1I_rfo_MPKI 0
Core_0_L1I_rfo_miss_rate 0
Core_0_L1I_prefetch_access 0
Core_0_L1I_prefetch_hit 0
Core_0_L1I_prefetch_miss 0
Core_0_L1I_prefetch_MPKI 0
Core_0_L1I_prefetch_miss_rate 0
Core_0_L1I_writeback_access 0
Core_0_L1I_writeback_hit 0
Core_0_L1I_writeback_miss 0
Core_0_L1I_writeback_MPKI 0
Core_0_L1I_writeback_miss_rate 0
Core_0_L1I_prefetch_requested 0
Core_0_L1I_prefetch_issued 0
Core_0_L1I_prefetch_useful 0
Core_0_L1I_prefetch_useless 0
Core_0_L1I_prefetch_late 0
Core_0_L1I_prefetch_fill 0
Core_0_L1I_prefetch_too_early 0
Core_0_L1I_prefetch_too_early_among_fill 0
Core_0_L1I_prefetch_too_early_among_useless 0
Core_0_L1I_prefetch_pollution_evict 0
Core_0_L1I_prefetch_pollution_demand 0
Core_0_L1I_prefetch_pollution_among_prefetch_fill 0
Core_0_L1I_prefetch_accuracy 0
Core_0_L1I_prefetch_coverage 0

Core_0_L1D_total_access 13691858
Core_0_L1D_total_hit 6733218
Core_0_L1D_total_miss 6958640
Core_0_L1D_total_MPKI 69.5864
Core_0_L1D_total_miss_rate 0.508232
Core_0_L1D_demand_access 9633379
Core_0_L1D_demand_hit 3658252
Core_0_L1D_demand_miss 5975127
Core_0_L1D_demand_MPKI 59.7513
Core_0_L1D_demand_miss_rate 0.620252
Core_0_L1D_load_access 9633379
Core_0_L1D_load_hit 3658252
Core_0_L1D_load_miss 5975127
Core_0_L1D_load_MPKI 59.7513
Core_0_L1D_load_miss_rate 0.620252
Core_0_L1D_rfo_access 0
Core_0_L1D_rfo_hit 0
Core_0_L1D_rfo_miss 0
Core_0_L1D_rfo_MPKI 0
Core_0_L1D_rfo_miss_rate 0
Core_0_L1D_prefetch_access 2156072
Core_0_L1D_prefetch_hit 1244236
Core_0_L1D_prefetch_miss 911836
Core_0_L1D_prefetch_MPKI 9.11836
Core_0_L1D_prefetch_miss_rate 0.422915
Core_0_L1D_writeback_access 1902407
Core_0_L1D_writeback_hit 1830730
Core_0_L1D_writeback_miss 71677
Core_0_L1D_writeback_MPKI 0.71677
Core_0_L1D_writeback_miss_rate 0.037677
Core_0_L1D_prefetch_requested 2441530
Core_0_L1D_prefetch_issued 2156071
Core_0_L1D_prefetch_useful 39627
Core_0_L1D_prefetch_useless 47294
Core_0_L1D_prefetch_late 0
Core_0_L1D_prefetch_fill 86951
Core_0_L1D_prefetch_too_early 1923
Core_0_L1D_prefetch_too_early_among_fill 0.0221159
Core_0_L1D_prefetch_too_early_among_useless 0.0406605
Core_0_L1D_prefetch_pollution_evict 15418
Core_0_L1D_prefetch_pollution_demand 15409
Core_0_L1D_prefetch_pollution_among_prefetch_fill 0.177318
Core_0_L1D_prefetch_accuracy 0.0183793
Core_0_L1D_prefetch_coverage 0.0065883

Core_0_L2C_total_access 7147844
Core_0_L2C_total_hit 1289259
Core_0_L2C_total_miss 5858585
Core_0_L2C_total_MPKI 58.5858
Core_0_L2C_total_miss_rate 0.81963
Core_0_L2C_demand_access 5888546
Core_0_L2C_demand_hit 285398
Core_0_L2C_demand_miss 5603148
Core_0_L2C_demand_MPKI 56.0315
Core_0_L2C_demand_miss_rate 0.951533
Core_0_L2C_load_access 5864806
Core_0_L2C_load_hit 262472
Core_0_L2C_load_miss 5602334
Core_0_L2C_load_MPKI 56.0233
Core_0_L2C_load_miss_rate 0.955246
Core_0_L2C_rfo_access 23740
Core_0_L2C_rfo_hit 22926
Core_0_L2C_rfo_miss 814
Core_0_L2C_rfo_MPKI 0.00814
Core_0_L2C_rfo_miss_rate 0.0342881
Core_0_L2C_prefetch_access 1232123
Core_0_L2C_prefetch_hit 976709
Core_0_L2C_prefetch_miss 255414
Core_0_L2C_prefetch_MPKI 2.55414
Core_0_L2C_prefetch_miss_rate 0.207296
Core_0_L2C_writeback_access 27175
Core_0_L2C_writeback_hit 27152
Core_0_L2C_writeback_miss 23
Core_0_L2C_writeback_MPKI 0.00023
Core_0_L2C_writeback_miss_rate 0.000846366
Core_0_L2C_prefetch_requested 320288
Core_0_L2C_prefetch_issued 320288
Core_0_L2C_prefetch_useful 14946
Core_0_L2C_prefetch_useless 160726
Core_0_L2C_prefetch_late 115
Core_0_L2C_prefetch_fill 247305
Core_0_L2C_prefetch_too_early 165
Core_0_L2C_prefetch_too_early_among_fill 0.000667192
Core_0_L2C_prefetch_too_early_among_useless 0.00102659
Core_0_L2C_prefetch_pollution_evict 53761
Core_0_L2C_prefetch_pollution_demand 53760
Core_0_L2C_prefetch_pollution_among_prefetch_fill 0.217387
Core_0_L2C_prefetch_accuracy 0.0466643
Core_0_L2C_prefetch_coverage 0.00266033

Core_0_LLC_total_access 5852523
Core_0_LLC_total_hit 1437649
Core_0_LLC_total_miss 4414874
Core_0_LLC_total_MPKI 44.1487
Core_0_LLC_total_miss_rate 0.754354
Core_0_LLC_demand_access 5603033
Core_0_LLC_demand_hit 1353003
Core_0_LLC_demand_miss 4250030
Core_0_LLC_demand_MPKI 42.5003
Core_0_LLC_demand_miss_rate 0.758523
Core_0_LLC_load_access 5602219
Core_0_LLC_load_hit 1352194
Core_0_LLC_load_miss 4250025
Core_0_LLC_load_MPKI 42.5002
Core_0_LLC_load_miss_rate 0.758632
Core_0_LLC_rfo_access 814
Core_0_LLC_rfo_hit 809
Core_0_LLC_rfo_miss 5
Core_0_LLC_rfo_MPKI 5e-05
Core_0_LLC_rfo_miss_rate 0.00614251
Core_0_LLC_prefetch_access 247420
Core_0_LLC_prefetch_hit 82591
Core_0_LLC_prefetch_miss 164829
Core_0_LLC_prefetch_MPKI 1.64829
Core_0_LLC_prefetch_miss_rate 0.666191
Core_0_LLC_writeback_access 2070
Core_0_LLC_writeback_hit 2055
Core_0_LLC_writeback_miss 15
Core_0_LLC_writeback_MPKI 0.00015
Core_0_LLC_writeback_miss_rate 0.00724638
Core_0_LLC_prefetch_requested 0
Core_0_LLC_prefetch_issued 0
Core_0_LLC_prefetch_useful 0
Core_0_LLC_prefetch_useless 0
Core_0_LLC_prefetch_late 0
Core_0_LLC_prefetch_fill 164829
Core_0_LLC_prefetch_too_early 0
Core_0_LLC_prefetch_too_early_among_fill 0
Core_0_LLC_prefetch_too_early_among_useless 0
Core_0_LLC_prefetch_pollution_evict 38646
Core_0_LLC_prefetch_pollution_demand 38646
Core_0_LLC_prefetch_pollution_among_prefetch_fill 0.234461
Core_0_LLC_prefetch_accuracy 0
Core_0_LLC_prefetch_coverage 0

[DRAM Statistics]
Channel_0_RQ_row_buffer_hit 57318
Channel_0_RQ_row_buffer_miss 5512084
Channel_0_WQ_row_buffer_hit 2
Channel_0_WQ_row_buffer_miss 16
Channel_0_WQ_full 0
Channel_0_dbus_congested 5898701
DRAM_total_RQ_row_buffer_hit 57318
DRAM_total_RQ_row_buffer_miss 5512084
DRAM_total_WQ_row_buffer_hit 2
DRAM_total_WQ_row_buffer_miss 16
DRAM_total_WQ_full 0
DRAM_total_dbus_congested 5898701
DRAM_avg_congested_cycle 2.93893

====== DRAM_RQ_TRAFFIC ========
DRAM_RQ_READ_TRAFFIC_BREAKDOWN:
data_demand_read.count = 4250030
data_demand_read.share = 76.31%

inst_demand_read.count = 0
inst_demand_read.share = 0.00%

cache_inst_prefetch.count = 0
cache_inst_prefetch.share = 0.00%

cache_data_prefetch.count = 164829
cache_data_prefetch.share = 2.96%

stlb_data_demand.count = 1154543
stlb_data_demand.share = 20.73%

stlb_inst_demand.count = 0
stlb_inst_demand.share = 0.00%

stlb_l1i_pref.count = 0
stlb_l1i_pref.share = 0.00%

stlb_l1d_pref.count = 0
stlb_l1d_pref.share = 0.00%

DRAM_RQ_READ_TRAFFIC_SUMMARY:
cache_demand.count = 4250030
cache_demand.share = 76.31%

cache_prefetch.count = 164829
cache_prefetch.share = 2.96%

stlb_demand.count = 1154543
stlb_demand.share = 20.73%

stlb_prefetch.count = 0
stlb_prefetch.share = 0.00%

DRAM_RQ_READ_TRAFFIC_DEBUG:
total_classified_read.count = 5569402
unclassified_read.count = 0
total_read_with_other.count = 5569402

classified_plus_unclassified_check.count = 5569402
dram_rq_read_total_observed.count = 5569402
dram_rq_read_total_observed.per_1K_instructions = 55.694

STLB_MISS_PTW_DRAM_TOUCH_BREAKDOWN:
stlb_miss_total.count = 3650131

stlb_miss_touch_dram.count = 1160305
stlb_miss_touch_dram.share = 31.79%

stlb_miss_no_dram_touch.count = 2489826
stlb_miss_no_dram_touch.share = 68.21%

STLB_MISS_PTW_DRAM_TOUCH_DEBUG:
stlb_miss_touch_plus_no_touch.count = 3650131
stlb_miss_total_check.count = 3650131

======STLB miss causes ========
Core_0_STLB_miss_cause_breakdown
Core_0_STLB_cause_Demand_Data_miss 3648311
Core_0_STLB_cause_Demand_Data_miss_rate 0.960291
Core_0_STLB_cause_Demand_Instruction_miss 0
Core_0_STLB_cause_Demand_Instruction_miss_rate 0
Core_0_STLB_cause_L1D_Prefetch_miss 1820
Core_0_STLB_cause_L1D_Prefetch_miss_rate 0.000479051
Core_0_STLB_cause_L1D_Prefetch_Same_Page_miss 0
Core_0_STLB_cause_L1D_Prefetch_Same_Page_miss_rate 0
Core_0_STLB_cause_L1D_Prefetch_Cross_Page_miss 1820
Core_0_STLB_cause_L1D_Prefetch_Cross_Page_miss_rate 0.000479051
Core_0_STLB_cause_L1I_Prefetch_miss 0
Core_0_STLB_cause_L1I_Prefetch_miss_rate 0
Core_0_STLB_cause_Other_miss 0
Core_0_STLB_cause_Other_miss_rate 0
Core_0_STLB_Demand_miss 3648311
Core_0_STLB_Demand_miss_rate 0.960291
Core_0_STLB_L1D_Prefetch_miss 1820
Core_0_STLB_L1D_Prefetch_miss_rate 0.000479051
Core_0_STLB_Other_miss 0
Core_0_STLB_Other_miss_rate 0

========== vBerti-TLB Cross-page Flow Stats ==========

Core_0_vBerti_Requested 2441530
Core_0_vBerti_Cross_page_prefetch_in_Requested 297732
Core_0_vBerti_Same_page_prefetch_in_Requested 2143798
Core_0_vBerti_Cross_page_prefetch_of_Requested 0.121945
Core_0_vBerti_Issued 2156071
Core_0_vBerti_InPQ_Same_page_prefetch 1925604
Core_0_vBerti_InPQ_Cross_page_prefetch 230467
Core_0_vBerti_PQ_Drop_Rate 0.116918
Core_0_vBerti_InPQ_Cross_page_prefetch_of_Requested 0.0943945
Core_0_vBerti_Cross_page_PQ_Drop_rate 0.225925
Core_0_vBerti_Cross_page_prefetch_of_Issued 0.106892
Core_0_CP_PF_PQFULL_drop 67265
Core_0_CP_PF_PQFULL_TLB_rescue_enqueued 0
Core_0_CP_PF_PQFULL_TLB_rescue_issued 0
Core_0_CP_PF_PQFULL_TLB_rescue_translated 0

========= DTLB_vBerti Prefetch Stats =========
Core_0_DTLB_demand_access 11361466
Core_0_DTLB_demand_hit 7355511
Core_0_DTLB_demand_miss 4005955
Core_0_DTLB_demand_mshr_merge 211405
Core_0_DTLB_demand_fill 3794552
Core_0_DTLB_demand_miss_rate 0.352591
Core_0_DTLB_demand_mpki 40.0595
Core_0_DTLB_vberti_prefetch_access 1641027
Core_0_DTLB_vberti_prefetch_hit 1635175
Core_0_DTLB_vberti_prefetch_miss 5852
Core_0_DTLB_vberti_prefetch_mshr_merge 1228
Core_0_DTLB_vberti_prefetch_fill 4624
Core_0_DTLB_vberti_prefetch_miss_rate 0.00356606
Core_0_DTLB_vberti_prefetch_mpki 0.05852

=== DTLB_vBerti Same/Cross-page Prefetch Stats ===
Core_0_DTLB_vberti_same_page_prefetch 1448973
Core_0_DTLB_vberti_same_page_prefetch_hit 1448973
Core_0_DTLB_vberti_same_page_prefetch_miss 0
Core_0_DTLB_vberti_same_page_prefetch_mshr_merge 0
Core_0_DTLB_vberti_same_page_prefetch_fill 0
Core_0_DTLB_vberti_same_page_prefetch_miss_rate 0
Core_0_DTLB_vberti_same_page_prefetch_mpki 0
Core_0_DTLB_vberti_cross_page_prefetch 192054
Core_0_DTLB_vberti_cross_page_prefetch_hit 186202
Core_0_DTLB_vberti_cross_page_prefetch_miss 5852
Core_0_DTLB_vberti_cross_page_prefetch_mshr_merge 1228
Core_0_DTLB_vberti_cross_page_prefetch_fill 4624
Core_0_DTLB_vberti_cross_page_prefetch_miss_rate 0.0304706
Core_0_DTLB_vberti_cross_page_prefetch_mpki 0.05852
Core_0_DTLB_same_page_prefetch_miss_rate 0
Core_0_DTLB_same_page_prefetch_mpki 0
Core_0_DTLB_cross_page_prefetch_miss_rate 0.0304706
Core_0_DTLB_cross_page_prefetch_mpki 0.05852
Core_0_DTLB_cross_page_prefetch_issued 192054
Core_0_DTLB_cross_page_prefetch_lookups 192054
Core_0_DTLB_cross_page_prefetch_useful 815
Core_0_DTLB_cross_page_prefetch_useless 3809
Core_0_DTLB_cross_page_prefetch_late 0
Core_0_DTLB_cross_page_prefetch_too_early 342
Core_0_DTLB_cross_page_prefetch_too_early_among_fill 0.0739619
Core_0_DTLB_cross_page_prefetch_too_early_among_useless 0.0897873
Core_0_DTLB_cross_page_prefetch_pollution_evict 2466
Core_0_DTLB_cross_page_prefetch_pollution_demand 2466
Core_0_DTLB_cross_page_prefetch_pollution_among_prefetch_fill 0.533304
Core_0_DTLB_cross_page_prefetch_accuracy 0.0042436
Core_0_DTLB_cross_page_prefetch_coverage 0.000203406

========= STLB_vBerti Prefetch Stats =========
Core_0_STLB_demand_access 3794550
Core_0_STLB_demand_hit 146239
Core_0_STLB_demand_miss 3648311
Core_0_STLB_demand_mshr_merge 0
Core_0_STLB_demand_fill 3648313
Core_0_STLB_demand_miss_rate 0.961461
Core_0_STLB_demand_mpki 36.4831
Core_0_STLB_vberti_prefetch_access 4624
Core_0_STLB_vberti_prefetch_hit 2804
Core_0_STLB_vberti_prefetch_miss 1820
Core_0_STLB_vberti_prefetch_mshr_merge 0
Core_0_STLB_vberti_prefetch_fill 1820
Core_0_STLB_vberti_prefetch_miss_rate 0.393599
Core_0_STLB_vberti_prefetch_mpki 0.0182

=== STLB_vBerti Same/Cross-page Prefetch Stats ===
Core_0_STLB_vberti_same_page_prefetch 0
Core_0_STLB_vberti_same_page_prefetch_hit 0
Core_0_STLB_vberti_same_page_prefetch_miss 0
Core_0_STLB_vberti_same_page_prefetch_mshr_merge 0
Core_0_STLB_vberti_same_page_prefetch_fill 0
Core_0_STLB_vberti_same_page_prefetch_miss_rate 0
Core_0_STLB_vberti_same_page_prefetch_mpki 0
Core_0_STLB_vberti_cross_page_prefetch 4624
Core_0_STLB_vberti_cross_page_prefetch_hit 2804
Core_0_STLB_vberti_cross_page_prefetch_miss 1820
Core_0_STLB_vberti_cross_page_prefetch_mshr_merge 0
Core_0_STLB_vberti_cross_page_prefetch_fill 1820
Core_0_STLB_vberti_cross_page_prefetch_miss_rate 0.393599
Core_0_STLB_vberti_cross_page_prefetch_mpki 0.0182
Core_0_STLB_same_page_prefetch_miss_rate 0
Core_0_STLB_same_page_prefetch_mpki 0
Core_0_STLB_cross_page_prefetch_miss_rate 0.393599
Core_0_STLB_cross_page_prefetch_mpki 0.0182
Core_0_STLB_cross_page_prefetch_issued 4624
Core_0_STLB_cross_page_prefetch_lookups 4624
Core_0_STLB_cross_page_prefetch_useful 140
Core_0_STLB_cross_page_prefetch_useless 1680
Core_0_STLB_cross_page_prefetch_late 0
Core_0_STLB_cross_page_prefetch_too_early 374
Core_0_STLB_cross_page_prefetch_too_early_among_fill 0.205495
Core_0_STLB_cross_page_prefetch_too_early_among_useless 0.222619
Core_0_STLB_cross_page_prefetch_pollution_evict 1498
Core_0_STLB_cross_page_prefetch_pollution_demand 1498
Core_0_STLB_cross_page_prefetch_pollution_among_prefetch_fill 0.823077
Core_0_STLB_cross_page_prefetch_accuracy 0.0302768
Core_0_STLB_cross_page_prefetch_coverage 3.83724e-05

========= STLB Cross-page Prefetch Buffer Stats =========
Core_0_STLB_raw_demand_miss 3648311
Core_0_CP_PB_insert 0
Core_0_CP_PB_demand_hit 0
Core_0_STLB_PB_demand_miss 3648311
Core_0_CP_PB_coverage 0
Core_0_STLB_raw_demand_mpki 36.4831
Core_0_STLB_PB_demand_mpki 36.4831
Core_0_CP_PB_demand_hit_mpki 0

Core_0_TLB_demand_miss_rate 0.321113
Core_0_TLB_demand_mpki 36.4831
Core_0_TLB_same_page_prefetch_miss_rate 0
Core_0_TLB_same_page_prefetch_mpki 0
Core_0_TLB_cross_page_prefetch_miss_rate 0.0094765
Core_0_TLB_cross_page_prefetch_mpki 0.0182
Core_0_TLB_cross_page_prefetch_issued 192054
Core_0_TLB_cross_page_prefetch_lookups 192054
Core_0_TLB_cross_page_prefetch_useful 31
Core_0_TLB_cross_page_prefetch_useless 3309
Core_0_TLB_cross_page_prefetch_late 0
Core_0_TLB_cross_page_prefetch_too_early 199
Core_0_TLB_cross_page_prefetch_too_early_among_fill 0.0308814
Core_0_TLB_cross_page_prefetch_too_early_among_useless 0.060139
Core_0_TLB_cross_page_prefetch_accuracy 0.000161413
Core_0_TLB_cross_page_prefetch_coverage 8.49701e-06
====== vBerti internal metric ========
Core_0_vBerti_end_to_end_issued 2156071
Core_0_vBerti_end_to_end_useful 176
Core_0_vBerti_end_to_end_late 0
Core_0_vBerti_end_to_end_accuracy 8.163e-05
Core_0_vBerti_end_to_end_timely_accuracy 8.163e-05
BERTI TO_L1: 1083137 TO_L2: 1358393 TO_L2_BC_MSHR: 0
BERTI AVG_LAT: 167.744 NUM_TRACK_LATENCY: 5959998 NUM_CANT_TRACK_LATENCY: 0
BERTI CROSS_PAGE 297732 NO_CROSS_PAGE: 2143798
BERTI FOUND_BERTI: 8832987 NO_FOUND_BERTI: 2702799
BERTI AVERAGE_ISSUED: 3.33516
