[VMEM] WARNING: physical memory size is smaller than virtual memory size.

*** ChampSim Multicore Out-of-Order Simulator ***
Warmup Instructions: 20000000
Simulation Instructions: 50000000
Number of CPUs: 1
Page size: 4096
Core 0: /data0/tzh/champsim_traces/SPEC06/483.xalancbmk-716B.champsimtrace.xz
 L1D Berti prefetcher
Off-chip DRAM Size: 16 GiB Channels: 1 Width: 64-bit Data Rate: 3205 MT/s
Warmup halting CPU 0 at instruction 20000005 cycle 4226325 for remainder of phase
Warmup finished CPU 0 instructions: 20000005 cycles: 4226325 cumulative IPC: 4.732 (Simulation time: 00 hr 00 min 48 sec)
Warmup complete CPU 0 instructions: 20000005 cycles: 4226325 cumulative IPC: 4.732 (Simulation time: 00 hr 00 min 48 sec)
Simulation finished CPU 0 instructions: 50000001 cycles: 36024298 cumulative IPC: 1.388 (Simulation time: 00 hr 05 min 27 sec)
Simulation complete CPU 0 instructions: 50000001 cycles: 36024298 cumulative IPC: 1.388 (Simulation time: 00 hr 05 min 27 sec)

ChampSim completed all CPUs

=== Simulation ===
CPU 0 runs /data0/tzh/champsim_traces/SPEC06/483.xalancbmk-716B.champsimtrace.xz

Region of Interest Statistics

CPU 0 cumulative IPC: 1.388 instructions: 50000001 cycles: 36024298
CPU 0 Branch Prediction Accuracy: 98.2% MPKI: 4.715 Average ROB Occupancy at Mispredict: 55.35
Branch type MPKI
BRANCH_DIRECT_JUMP: 0.0076
BRANCH_INDIRECT: 0.2231
BRANCH_CONDITIONAL: 2.662
BRANCH_DIRECT_CALL: 0.08324
BRANCH_INDIRECT_CALL: 0.3313
BRANCH_RETURN: 1.407

cpu0->cpu0_STLB TOTAL        ACCESS:     420431 HIT:     367790 MISS:      52641 MSHR_MERGE:          0
cpu0->cpu0_STLB LOAD         ACCESS:     420431 HIT:     367790 MISS:      52641 MSHR_MERGE:          0
cpu0->cpu0_STLB RFO          ACCESS:          0 HIT:          0 MISS:          0 MSHR_MERGE:          0
cpu0->cpu0_STLB PREFETCH     ACCESS:          0 HIT:          0 MISS:          0 MSHR_MERGE:          0
cpu0->cpu0_STLB WRITE        ACCESS:          0 HIT:          0 MISS:          0 MSHR_MERGE:          0
cpu0->cpu0_STLB TRANSLATION  ACCESS:          0 HIT:          0 MISS:          0 MSHR_MERGE:          0
cpu0->cpu0_STLB PREFETCH REQUESTED:          0 ISSUED:          0 USEFUL:          0 USELESS:          0 LATE:          0
cpu0->cpu0_STLB AVERAGE MISS LATENCY: 188.2 cycles
cpu0->cpu0_L2C TOTAL        ACCESS:     948012 HIT:     651727 MISS:     296285 MSHR_MERGE:      31135
cpu0->cpu0_L2C LOAD         ACCESS:     235016 HIT:     161220 MISS:      73796 MSHR_MERGE:       2838
cpu0->cpu0_L2C RFO          ACCESS:      46154 HIT:       6174 MISS:      39980 MSHR_MERGE:         72
cpu0->cpu0_L2C PREFETCH     ACCESS:     503024 HIT:     356878 MISS:     146146 MSHR_MERGE:      28225
cpu0->cpu0_L2C WRITE        ACCESS:     113194 HIT:     113063 MISS:        131 MSHR_MERGE:          0
cpu0->cpu0_L2C TRANSLATION  ACCESS:      50624 HIT:      14392 MISS:      36232 MSHR_MERGE:          0
cpu0->cpu0_L2C PREFETCH REQUESTED:     406748 ISSUED:     405446 USEFUL:      30653 USELESS:      66954 LATE:       2910
cpu0->cpu0_L2C AVERAGE MISS LATENCY: 162.2 cycles
cpu0->cpu0_L1I TOTAL        ACCESS:    7451508 HIT:    7405512 MISS:      45996 MSHR_MERGE:       9437
cpu0->cpu0_L1I LOAD         ACCESS:    7451508 HIT:    7405512 MISS:      45996 MSHR_MERGE:       9437
cpu0->cpu0_L1I RFO          ACCESS:          0 HIT:          0 MISS:          0 MSHR_MERGE:          0
cpu0->cpu0_L1I PREFETCH     ACCESS:          0 HIT:          0 MISS:          0 MSHR_MERGE:          0
cpu0->cpu0_L1I WRITE        ACCESS:          0 HIT:          0 MISS:          0 MSHR_MERGE:          0
cpu0->cpu0_L1I TRANSLATION  ACCESS:          0 HIT:          0 MISS:          0 MSHR_MERGE:          0
cpu0->cpu0_L1I PREFETCH REQUESTED:          0 ISSUED:          0 USEFUL:          0 USELESS:          0 LATE:          0
cpu0->cpu0_L1I AVERAGE MISS LATENCY: 27.51 cycles
cpu0->cpu0_L1D TOTAL        ACCESS:   12442683 HIT:   11735942 MISS:     706741 MSHR_MERGE:     313924
cpu0->cpu0_L1D LOAD         ACCESS:    8224168 HIT:    7960400 MISS:     263768 MSHR_MERGE:      65309
cpu0->cpu0_L1D RFO          ACCESS:          0 HIT:          0 MISS:          0 MSHR_MERGE:          0
cpu0->cpu0_L1D PREFETCH     ACCESS:     604313 HIT:     495553 MISS:     108760 MSHR_MERGE:      11181
cpu0->cpu0_L1D WRITE        ACCESS:    3485519 HIT:    3203072 MISS:     282447 MSHR_MERGE:     236292
cpu0->cpu0_L1D TRANSLATION  ACCESS:     128683 HIT:      76917 MISS:      51766 MSHR_MERGE:       1142
cpu0->cpu0_L1D PREFETCH REQUESTED:     610980 ISSUED:     604313 USEFUL:      72931 USELESS:      24637 LATE:       6705
cpu0->cpu0_L1D AVERAGE MISS LATENCY: 87.88 cycles
cpu0->cpu0_ITLB TOTAL        ACCESS:    6971503 HIT:    6905743 MISS:      65760 MSHR_MERGE:      33444
cpu0->cpu0_ITLB LOAD         ACCESS:    6971503 HIT:    6905743 MISS:      65760 MSHR_MERGE:      33444
cpu0->cpu0_ITLB RFO          ACCESS:          0 HIT:          0 MISS:          0 MSHR_MERGE:          0
cpu0->cpu0_ITLB PREFETCH     ACCESS:          0 HIT:          0 MISS:          0 MSHR_MERGE:          0
cpu0->cpu0_ITLB WRITE        ACCESS:          0 HIT:          0 MISS:          0 MSHR_MERGE:          0
cpu0->cpu0_ITLB TRANSLATION  ACCESS:          0 HIT:          0 MISS:          0 MSHR_MERGE:          0
cpu0->cpu0_ITLB PREFETCH REQUESTED:          0 ISSUED:          0 USEFUL:          0 USELESS:          0 LATE:          0
cpu0->cpu0_ITLB AVERAGE MISS LATENCY: 7.015 cycles
cpu0->cpu0_DTLB TOTAL        ACCESS:   11735691 HIT:   11103303 MISS:     632388 MSHR_MERGE:     244273
cpu0->cpu0_DTLB LOAD         ACCESS:   11735691 HIT:   11103303 MISS:     632388 MSHR_MERGE:     244273
cpu0->cpu0_DTLB RFO          ACCESS:          0 HIT:          0 MISS:          0 MSHR_MERGE:          0
cpu0->cpu0_DTLB PREFETCH     ACCESS:          0 HIT:          0 MISS:          0 MSHR_MERGE:          0
cpu0->cpu0_DTLB WRITE        ACCESS:          0 HIT:          0 MISS:          0 MSHR_MERGE:          0
cpu0->cpu0_DTLB TRANSLATION  ACCESS:          0 HIT:          0 MISS:          0 MSHR_MERGE:          0
cpu0->cpu0_DTLB PREFETCH REQUESTED:          0 ISSUED:          0 USEFUL:          0 USELESS:          0 LATE:          0
cpu0->cpu0_DTLB AVERAGE MISS LATENCY: 30.49 cycles
cpu0->LLC TOTAL        ACCESS:     363746 HIT:     122950 MISS:     240796 MSHR_MERGE:          0
cpu0->LLC LOAD         ACCESS:      70958 HIT:      27710 MISS:      43248 MSHR_MERGE:          0
cpu0->LLC RFO          ACCESS:      39908 HIT:       5740 MISS:      34168 MSHR_MERGE:          0
cpu0->LLC PREFETCH     ACCESS:     117921 HIT:      23929 MISS:      93992 MSHR_MERGE:          0
cpu0->LLC WRITE        ACCESS:      98727 HIT:      51994 MISS:      46733 MSHR_MERGE:          0
cpu0->LLC TRANSLATION  ACCESS:      36232 HIT:      13577 MISS:      22655 MSHR_MERGE:          0
cpu0->LLC PREFETCH REQUESTED:          0 ISSUED:          0 USEFUL:          0 USELESS:          0 LATE:          0
cpu0->LLC AVERAGE MISS LATENCY: 149.7 cycles

DRAM Statistics

Channel 0 RQ ROW_BUFFER_HIT:       1660
  ROW_BUFFER_MISS:     192378
  AVG DBUS CONGESTED CYCLE: 11.15
Channel 0 WQ ROW_BUFFER_HIT:      13071
  ROW_BUFFER_MISS:      47896
  FULL:          0
Channel 0 REFRESHES ISSUED:       3002

[ROI Statistics]
[System Configuration]
num_cpus 1
cpu_freq 4000
fetch_width 6
decode_width 6
dispatch_width 6
execute_width 6
lq_width 2
sq_width 2
retire_width 6
scheduler_size 128
branch_mispredict_penalty 15
rob_size 352
lq_size 128
sq_size 72
ifetch_buffer_size 64
decode_buffer_size 32
dispatch_buffer_size 32
register_file_size 288
decode_latency 1
dispatch_latency 1
schedule_latency 1
execute_latency 1
page_size 4096
block_size 64
core_0_itlb_set 16
core_0_itlb_way 4
core_0_itlb_rq_size 16
core_0_itlb_wq_size 16
core_0_itlb_pq_size 0
core_0_itlb_mshr_size 8
core_0_itlb_hit_latency 1
core_0_itlb_fill_latency 1
core_0_itlb_max_tag_check 2
core_0_itlb_max_fill 2
core_0_dtlb_set 16
core_0_dtlb_way 4
core_0_dtlb_rq_size 16
core_0_dtlb_wq_size 16
core_0_dtlb_pq_size 0
core_0_dtlb_mshr_size 8
core_0_dtlb_hit_latency 1
core_0_dtlb_fill_latency 1
core_0_dtlb_max_tag_check 2
core_0_dtlb_max_fill 2
core_0_stlb_set 128
core_0_stlb_way 12
core_0_stlb_rq_size 32
core_0_stlb_wq_size 32
core_0_stlb_pq_size 0
core_0_stlb_mshr_size 16
core_0_stlb_hit_latency 4
core_0_stlb_fill_latency 4
core_0_stlb_max_tag_check 1
core_0_stlb_max_fill 1
core_0_l1i_set 64
core_0_l1i_way 8
core_0_l1i_rq_size 64
core_0_l1i_wq_size 64
core_0_l1i_pq_size 32
core_0_l1i_mshr_size 8
core_0_l1i_hit_latency 2
core_0_l1i_fill_latency 2
core_0_l1i_max_tag_check 2
core_0_l1i_max_fill 2
core_0_l1d_set 64
core_0_l1d_way 12
core_0_l1d_rq_size 64
core_0_l1d_wq_size 64
core_0_l1d_pq_size 8
core_0_l1d_mshr_size 16
core_0_l1d_hit_latency 2
core_0_l1d_fill_latency 3
core_0_l1d_max_tag_check 2
core_0_l1d_max_fill 2
core_0_l2c_set 1024
core_0_l2c_way 8
core_0_l2c_rq_size 32
core_0_l2c_wq_size 32
core_0_l2c_pq_size 16
core_0_l2c_mshr_size 32
core_0_l2c_hit_latency 5
core_0_l2c_fill_latency 5
core_0_l2c_max_tag_check 1
core_0_l2c_max_fill 1
llc_set 2048
llc_way 16
llc_rq_size 32
llc_wq_size 32
llc_pq_size 32
llc_mshr_size 64
llc_hit_latency 10
llc_fill_latency 10
llc_max_tag_check 1
llc_max_fill 1
dram_channels 1
dram_ranks 1
dram_bankgroups 8
dram_banks 4
dram_rows 65536
dram_columns 1024
dram_channel_width 8
dram_rq_size 64
dram_wq_size 64
dram_size 17179869184
core_0_itlb_prefetcher no
core_0_dtlb_prefetcher no
core_0_stlb_prefetcher no
core_0_l1i_prefetcher next_line
core_0_l1d_prefetcher berti
core_0_l2c_prefetcher pythia
llc_prefetcher no
llc_replacement drrip

Core_0_instructions 50000001
Core_0_cycles 36024298
Core_0_IPC 1.38795
Core_0_branch_prediction_accuracy 98.2025
Core_0_branch_MPKI 4.71486
Core_0_average_ROB_occupancy_at_mispredict 55.3453

Core_0_ITLB_total_access 6971503
Core_0_ITLB_total_hit 6905743
Core_0_ITLB_total_miss 65760
Core_0_ITLB_total_MPKI 1.3152
Core_0_ITLB_total_miss_rate 0.00943269
Core_0_ITLB_demand_access 6971503
Core_0_ITLB_demand_hit 6905743
Core_0_ITLB_demand_miss 65760
Core_0_ITLB_demand_MPKI 1.3152
Core_0_ITLB_demand_miss_rate 0.00943269
Core_0_ITLB_load_access 6971503
Core_0_ITLB_load_hit 6905743
Core_0_ITLB_load_miss 65760
Core_0_ITLB_load_MPKI 1.3152
Core_0_ITLB_load_miss_rate 0.00943269
Core_0_ITLB_rfo_access 0
Core_0_ITLB_rfo_hit 0
Core_0_ITLB_rfo_miss 0
Core_0_ITLB_rfo_MPKI 0
Core_0_ITLB_rfo_miss_rate 0
Core_0_ITLB_prefetch_access 0
Core_0_ITLB_prefetch_hit 0
Core_0_ITLB_prefetch_miss 0
Core_0_ITLB_prefetch_MPKI 0
Core_0_ITLB_prefetch_miss_rate 0
Core_0_ITLB_writeback_access 0
Core_0_ITLB_writeback_hit 0
Core_0_ITLB_writeback_miss 0
Core_0_ITLB_writeback_MPKI 0
Core_0_ITLB_writeback_miss_rate 0
Core_0_ITLB_prefetch_requested 0
Core_0_ITLB_prefetch_issued 0
Core_0_ITLB_prefetch_useful 0
Core_0_ITLB_prefetch_useless 0
Core_0_ITLB_prefetch_late 0
Core_0_ITLB_prefetch_accuracy 0
Core_0_ITLB_prefetch_coverage 0

Core_0_DTLB_total_access 11735691
Core_0_DTLB_total_hit 11103303
Core_0_DTLB_total_miss 632388
Core_0_DTLB_total_MPKI 12.6478
Core_0_DTLB_total_miss_rate 0.0538859
Core_0_DTLB_demand_access 11735691
Core_0_DTLB_demand_hit 11103303
Core_0_DTLB_demand_miss 632388
Core_0_DTLB_demand_MPKI 12.6478
Core_0_DTLB_demand_miss_rate 0.0538859
Core_0_DTLB_load_access 11735691
Core_0_DTLB_load_hit 11103303
Core_0_DTLB_load_miss 632388
Core_0_DTLB_load_MPKI 12.6478
Core_0_DTLB_load_miss_rate 0.0538859
Core_0_DTLB_rfo_access 0
Core_0_DTLB_rfo_hit 0
Core_0_DTLB_rfo_miss 0
Core_0_DTLB_rfo_MPKI 0
Core_0_DTLB_rfo_miss_rate 0
Core_0_DTLB_prefetch_access 0
Core_0_DTLB_prefetch_hit 0
Core_0_DTLB_prefetch_miss 0
Core_0_DTLB_prefetch_MPKI 0
Core_0_DTLB_prefetch_miss_rate 0
Core_0_DTLB_writeback_access 0
Core_0_DTLB_writeback_hit 0
Core_0_DTLB_writeback_miss 0
Core_0_DTLB_writeback_MPKI 0
Core_0_DTLB_writeback_miss_rate 0
Core_0_DTLB_prefetch_requested 0
Core_0_DTLB_prefetch_issued 0
Core_0_DTLB_prefetch_useful 0
Core_0_DTLB_prefetch_useless 0
Core_0_DTLB_prefetch_late 0
Core_0_DTLB_prefetch_accuracy 0
Core_0_DTLB_prefetch_coverage 0

Core_0_STLB_total_access 420431
Core_0_STLB_total_hit 367790
Core_0_STLB_total_miss 52641
Core_0_STLB_total_MPKI 1.05282
Core_0_STLB_total_miss_rate 0.125207
Core_0_STLB_demand_access 420431
Core_0_STLB_demand_hit 367790
Core_0_STLB_demand_miss 52641
Core_0_STLB_demand_MPKI 1.05282
Core_0_STLB_demand_miss_rate 0.125207
Core_0_STLB_load_access 420431
Core_0_STLB_load_hit 367790
Core_0_STLB_load_miss 52641
Core_0_STLB_load_MPKI 1.05282
Core_0_STLB_load_miss_rate 0.125207
Core_0_STLB_rfo_access 0
Core_0_STLB_rfo_hit 0
Core_0_STLB_rfo_miss 0
Core_0_STLB_rfo_MPKI 0
Core_0_STLB_rfo_miss_rate 0
Core_0_STLB_prefetch_access 0
Core_0_STLB_prefetch_hit 0
Core_0_STLB_prefetch_miss 0
Core_0_STLB_prefetch_MPKI 0
Core_0_STLB_prefetch_miss_rate 0
Core_0_STLB_writeback_access 0
Core_0_STLB_writeback_hit 0
Core_0_STLB_writeback_miss 0
Core_0_STLB_writeback_MPKI 0
Core_0_STLB_writeback_miss_rate 0
Core_0_STLB_prefetch_requested 0
Core_0_STLB_prefetch_issued 0
Core_0_STLB_prefetch_useful 0
Core_0_STLB_prefetch_useless 0
Core_0_STLB_prefetch_late 0
Core_0_STLB_prefetch_accuracy 0
Core_0_STLB_prefetch_coverage 0

Core_0_L1I_total_access 7451508
Core_0_L1I_total_hit 7405512
Core_0_L1I_total_miss 45996
Core_0_L1I_total_MPKI 0.91992
Core_0_L1I_total_miss_rate 0.00617271
Core_0_L1I_demand_access 7451508
Core_0_L1I_demand_hit 7405512
Core_0_L1I_demand_miss 45996
Core_0_L1I_demand_MPKI 0.91992
Core_0_L1I_demand_miss_rate 0.00617271
Core_0_L1I_load_access 7451508
Core_0_L1I_load_hit 7405512
Core_0_L1I_load_miss 45996
Core_0_L1I_load_MPKI 0.91992
Core_0_L1I_load_miss_rate 0.00617271
Core_0_L1I_rfo_access 0
Core_0_L1I_rfo_hit 0
Core_0_L1I_rfo_miss 0
Core_0_L1I_rfo_MPKI 0
Core_0_L1I_rfo_miss_rate 0
Core_0_L1I_prefetch_access 0
Core_0_L1I_prefetch_hit 0
Core_0_L1I_prefetch_miss 0
Core_0_L1I_prefetch_MPKI 0
Core_0_L1I_prefetch_miss_rate 0
Core_0_L1I_writeback_access 0
Core_0_L1I_writeback_hit 0
Core_0_L1I_writeback_miss 0
Core_0_L1I_writeback_MPKI 0
Core_0_L1I_writeback_miss_rate 0
Core_0_L1I_prefetch_requested 0
Core_0_L1I_prefetch_issued 0
Core_0_L1I_prefetch_useful 0
Core_0_L1I_prefetch_useless 0
Core_0_L1I_prefetch_late 0
Core_0_L1I_prefetch_accuracy 0
Core_0_L1I_prefetch_coverage 0

Core_0_L1D_total_access 12314000
Core_0_L1D_total_hit 11659025
Core_0_L1D_total_miss 654975
Core_0_L1D_total_MPKI 13.0995
Core_0_L1D_total_miss_rate 0.0531895
Core_0_L1D_demand_access 8224168
Core_0_L1D_demand_hit 7960400
Core_0_L1D_demand_miss 263768
Core_0_L1D_demand_MPKI 5.27536
Core_0_L1D_demand_miss_rate 0.0320723
Core_0_L1D_load_access 8224168
Core_0_L1D_load_hit 7960400
Core_0_L1D_load_miss 263768
Core_0_L1D_load_MPKI 5.27536
Core_0_L1D_load_miss_rate 0.0320723
Core_0_L1D_rfo_access 0
Core_0_L1D_rfo_hit 0
Core_0_L1D_rfo_miss 0
Core_0_L1D_rfo_MPKI 0
Core_0_L1D_rfo_miss_rate 0
Core_0_L1D_prefetch_access 604313
Core_0_L1D_prefetch_hit 495553
Core_0_L1D_prefetch_miss 108760
Core_0_L1D_prefetch_MPKI 2.1752
Core_0_L1D_prefetch_miss_rate 0.179973
Core_0_L1D_writeback_access 3485519
Core_0_L1D_writeback_hit 3203072
Core_0_L1D_writeback_miss 282447
Core_0_L1D_writeback_MPKI 5.64894
Core_0_L1D_writeback_miss_rate 0.0810344
Core_0_L1D_prefetch_requested 610980
Core_0_L1D_prefetch_issued 604313
Core_0_L1D_prefetch_useful 72931
Core_0_L1D_prefetch_useless 24637
Core_0_L1D_prefetch_late 6705
Core_0_L1D_prefetch_accuracy 0.120684
Core_0_L1D_prefetch_coverage 0.216606

Core_0_L2C_total_access 897388
Core_0_L2C_total_hit 637335
Core_0_L2C_total_miss 260053
Core_0_L2C_total_MPKI 5.20106
Core_0_L2C_total_miss_rate 0.289789
Core_0_L2C_demand_access 281170
Core_0_L2C_demand_hit 167394
Core_0_L2C_demand_miss 113776
Core_0_L2C_demand_MPKI 2.27552
Core_0_L2C_demand_miss_rate 0.404652
Core_0_L2C_load_access 235016
Core_0_L2C_load_hit 161220
Core_0_L2C_load_miss 73796
Core_0_L2C_load_MPKI 1.47592
Core_0_L2C_load_miss_rate 0.314004
Core_0_L2C_rfo_access 46154
Core_0_L2C_rfo_hit 6174
Core_0_L2C_rfo_miss 39980
Core_0_L2C_rfo_MPKI 0.7996
Core_0_L2C_rfo_miss_rate 0.86623
Core_0_L2C_prefetch_access 503024
Core_0_L2C_prefetch_hit 356878
Core_0_L2C_prefetch_miss 146146
Core_0_L2C_prefetch_MPKI 2.92292
Core_0_L2C_prefetch_miss_rate 0.290535
Core_0_L2C_writeback_access 113194
Core_0_L2C_writeback_hit 113063
Core_0_L2C_writeback_miss 131
Core_0_L2C_writeback_MPKI 0.00262
Core_0_L2C_writeback_miss_rate 0.00115731
Core_0_L2C_prefetch_requested 406748
Core_0_L2C_prefetch_issued 405446
Core_0_L2C_prefetch_useful 30653
Core_0_L2C_prefetch_useless 66954
Core_0_L2C_prefetch_late 2910
Core_0_L2C_prefetch_accuracy 0.0756032
Core_0_L2C_prefetch_coverage 0.212236

Core_0_LLC_total_access 327514
Core_0_LLC_total_hit 109373
Core_0_LLC_total_miss 218141
Core_0_LLC_total_MPKI 4.36282
Core_0_LLC_total_miss_rate 0.666051
Core_0_LLC_demand_access 110866
Core_0_LLC_demand_hit 33450
Core_0_LLC_demand_miss 77416
Core_0_LLC_demand_MPKI 1.54832
Core_0_LLC_demand_miss_rate 0.698284
Core_0_LLC_load_access 70958
Core_0_LLC_load_hit 27710
Core_0_LLC_load_miss 43248
Core_0_LLC_load_MPKI 0.86496
Core_0_LLC_load_miss_rate 0.609487
Core_0_LLC_rfo_access 39908
Core_0_LLC_rfo_hit 5740
Core_0_LLC_rfo_miss 34168
Core_0_LLC_rfo_MPKI 0.68336
Core_0_LLC_rfo_miss_rate 0.856169
Core_0_LLC_prefetch_access 117921
Core_0_LLC_prefetch_hit 23929
Core_0_LLC_prefetch_miss 93992
Core_0_LLC_prefetch_MPKI 1.87984
Core_0_LLC_prefetch_miss_rate 0.797076
Core_0_LLC_writeback_access 98727
Core_0_LLC_writeback_hit 51994
Core_0_LLC_writeback_miss 46733
Core_0_LLC_writeback_MPKI 0.93466
Core_0_LLC_writeback_miss_rate 0.473356
Core_0_LLC_prefetch_requested 0
Core_0_LLC_prefetch_issued 0
Core_0_LLC_prefetch_useful 0
Core_0_LLC_prefetch_useless 0
Core_0_LLC_prefetch_late 0
Core_0_LLC_prefetch_accuracy 0
Core_0_LLC_prefetch_coverage 0

[DRAM Statistics]
Channel_0_RQ_row_buffer_hit 1660
Channel_0_RQ_row_buffer_miss 192378
Channel_0_WQ_row_buffer_hit 13071
Channel_0_WQ_row_buffer_miss 47896
Channel_0_WQ_full 0
Channel_0_dbus_congested 554276
DRAM_total_RQ_row_buffer_hit 1660
DRAM_total_RQ_row_buffer_miss 192378
DRAM_total_WQ_row_buffer_hit 13071
DRAM_total_WQ_row_buffer_miss 47896
DRAM_total_WQ_full 0
DRAM_total_dbus_congested 554276
DRAM_avg_congested_cycle 11.1455

====== DRAM_RQ_TRAFFIC ========
DRAM_RQ_READ_TRAFFIC_BREAKDOWN:
data_demand_read.count = 74116
data_demand_read.share = 38.19%

inst_demand_read.count = 3300
inst_demand_read.share = 1.70%

cache_inst_prefetch.count = 0
cache_inst_prefetch.share = 0.00%

cache_data_prefetch.count = 93992
cache_data_prefetch.share = 48.43%

stlb_data_demand.count = 22371
stlb_data_demand.share = 11.53%

stlb_inst_demand.count = 122
stlb_inst_demand.share = 0.06%

stlb_l1i_pref.count = 0
stlb_l1i_pref.share = 0.00%

stlb_l1d_pref.count = 162
stlb_l1d_pref.share = 0.08%

DRAM_RQ_READ_TRAFFIC_SUMMARY:
cache_demand.count = 77416
cache_demand.share = 39.89%

cache_prefetch.count = 93992
cache_prefetch.share = 48.43%

stlb_demand.count = 22493
stlb_demand.share = 11.59%

stlb_prefetch.count = 162
stlb_prefetch.share = 0.08%

DRAM_RQ_READ_TRAFFIC_DEBUG:
total_classified_read.count = 194063
unclassified_read.count = 0
total_read_with_other.count = 194063

classified_plus_unclassified_check.count = 194063
dram_rq_read_total_observed.count = 194063
dram_rq_read_total_observed.per_1K_instructions = 3.88126

STLB_MISS_PTW_DRAM_TOUCH_BREAKDOWN:
stlb_miss_total.count = 52641

stlb_miss_touch_dram.count = 22662
stlb_miss_touch_dram.share = 43.05%

stlb_miss_no_dram_touch.count = 29979
stlb_miss_no_dram_touch.share = 56.95%

STLB_MISS_PTW_DRAM_TOUCH_DEBUG:
stlb_miss_touch_plus_no_touch.count = 52641
stlb_miss_total_check.count = 52641

======STLB miss causes ========
Core_0_STLB_miss_cause_breakdown
Core_0_STLB_cause_Demand_Data_miss 50868
Core_0_STLB_cause_Demand_Data_miss_rate 0.12099
Core_0_STLB_cause_Demand_Instruction_miss 596
Core_0_STLB_cause_Demand_Instruction_miss_rate 0.00141759
Core_0_STLB_cause_L1D_Prefetch_miss 1177
Core_0_STLB_cause_L1D_Prefetch_miss_rate 0.00279951
Core_0_STLB_cause_L1I_Prefetch_miss 0
Core_0_STLB_cause_L1I_Prefetch_miss_rate 0
Core_0_STLB_cause_Other_miss 0
Core_0_STLB_cause_Other_miss_rate 0
Core_0_STLB_Demand_miss 51464
Core_0_STLB_Demand_miss_rate 0.122408
Core_0_STLB_L1D_Prefetch_miss 1177
Core_0_STLB_L1D_Prefetch_miss_rate 0.00279951
Core_0_STLB_Other_miss 0
Core_0_STLB_Other_miss_rate 0
