[VMEM] WARNING: physical memory size is smaller than virtual memory size.

*** ChampSim Multicore Out-of-Order Simulator ***
Warmup Instructions: 20000000
Simulation Instructions: 50000000
Number of CPUs: 1
Page size: 4096
STLB ideal mode: l1pref
Core 0: /data0/tzh/champsim_traces/SPEC17/602.gcc_s-2226B.champsimtrace.xz
 L1D Berti prefetcher
Off-chip DRAM Size: 16 GiB Channels: 1 Width: 64-bit Data Rate: 3205 MT/s
Warmup halting CPU 0 at instruction 20000001 cycle 7734971 for remainder of phase
Warmup finished CPU 0 instructions: 20000001 cycles: 7734971 cumulative IPC: 2.586 (Simulation time: 00 hr 01 min 27 sec)
Warmup complete CPU 0 instructions: 20000001 cycles: 7734971 cumulative IPC: 2.586 (Simulation time: 00 hr 01 min 27 sec)
Simulation finished CPU 0 instructions: 50000000 cycles: 95245658 cumulative IPC: 0.525 (Simulation time: 00 hr 12 min 27 sec)
Simulation complete CPU 0 instructions: 50000000 cycles: 95245658 cumulative IPC: 0.525 (Simulation time: 00 hr 12 min 27 sec)

ChampSim completed all CPUs

=== Simulation ===
CPU 0 runs /data0/tzh/champsim_traces/SPEC17/602.gcc_s-2226B.champsimtrace.xz

Region of Interest Statistics

CPU 0 cumulative IPC: 0.525 instructions: 50000000 cycles: 95245658
CPU 0 Branch Prediction Accuracy: 99.66% MPKI: 1.202 Average ROB Occupancy at Mispredict: 235
Branch type MPKI
BRANCH_DIRECT_JUMP: 0.0742
BRANCH_INDIRECT: 0
BRANCH_CONDITIONAL: 1.127
BRANCH_DIRECT_CALL: 4e-05
BRANCH_INDIRECT_CALL: 0
BRANCH_RETURN: 0

cpu0->cpu0_STLB TOTAL        ACCESS:      68093 HIT:       8388 MISS:      59705 MSHR_MERGE:          0
cpu0->cpu0_STLB LOAD         ACCESS:      68093 HIT:       8388 MISS:      59705 MSHR_MERGE:          0
cpu0->cpu0_STLB RFO          ACCESS:          0 HIT:          0 MISS:          0 MSHR_MERGE:          0
cpu0->cpu0_STLB PREFETCH     ACCESS:          0 HIT:          0 MISS:          0 MSHR_MERGE:          0
cpu0->cpu0_STLB WRITE        ACCESS:          0 HIT:          0 MISS:          0 MSHR_MERGE:          0
cpu0->cpu0_STLB TRANSLATION  ACCESS:          0 HIT:          0 MISS:          0 MSHR_MERGE:          0
cpu0->cpu0_STLB PREFETCH REQUESTED:          0 ISSUED:          0 USEFUL:          0 USELESS:          0 LATE:          0
cpu0->cpu0_STLB AVERAGE MISS LATENCY: 133.5 cycles
cpu0->cpu0_L2C TOTAL        ACCESS:   18609739 HIT:    5563998 MISS:   13045741 MSHR_MERGE:    9377545
cpu0->cpu0_L2C LOAD         ACCESS:     249714 HIT:     132505 MISS:     117209 MSHR_MERGE:      21561
cpu0->cpu0_L2C RFO          ACCESS:       1129 HIT:        869 MISS:        260 MSHR_MERGE:          1
cpu0->cpu0_L2C PREFETCH     ACCESS:   18336048 HIT:    5422544 MISS:   12913504 MSHR_MERGE:    9355983
cpu0->cpu0_L2C WRITE        ACCESS:       5532 HIT:       5516 MISS:         16 MSHR_MERGE:          0
cpu0->cpu0_L2C TRANSLATION  ACCESS:      17316 HIT:       2564 MISS:      14752 MSHR_MERGE:          0
cpu0->cpu0_L2C PREFETCH REQUESTED:   15064512 ISSUED:   15038611 USEFUL:    1775090 USELESS:    1502514 LATE:      21562
cpu0->cpu0_L2C AVERAGE MISS LATENCY: 205.9 cycles
cpu0->cpu0_L1I TOTAL        ACCESS:    3927616 HIT:    3927616 MISS:          0 MSHR_MERGE:          0
cpu0->cpu0_L1I LOAD         ACCESS:    3927616 HIT:    3927616 MISS:          0 MSHR_MERGE:          0
cpu0->cpu0_L1I RFO          ACCESS:          0 HIT:          0 MISS:          0 MSHR_MERGE:          0
cpu0->cpu0_L1I PREFETCH     ACCESS:          0 HIT:          0 MISS:          0 MSHR_MERGE:          0
cpu0->cpu0_L1I WRITE        ACCESS:          0 HIT:          0 MISS:          0 MSHR_MERGE:          0
cpu0->cpu0_L1I TRANSLATION  ACCESS:          0 HIT:          0 MISS:          0 MSHR_MERGE:          0
cpu0->cpu0_L1I PREFETCH REQUESTED:          0 ISSUED:          0 USEFUL:          0 USELESS:          0 LATE:          0
cpu0->cpu0_L1I AVERAGE MISS LATENCY: - cycles
cpu0->cpu0_L1D TOTAL        ACCESS:   16176405 HIT:   11297791 MISS:    4878614 MSHR_MERGE:    1313018
cpu0->cpu0_L1D LOAD         ACCESS:   11954339 HIT:   10458698 MISS:    1495641 MSHR_MERGE:    1245927
cpu0->cpu0_L1D RFO          ACCESS:          0 HIT:          0 MISS:          0 MSHR_MERGE:          0
cpu0->cpu0_L1D PREFETCH     ACCESS:    3445481 HIT:      80987 MISS:    3364494 MSHR_MERGE:      67057
cpu0->cpu0_L1D WRITE        ACCESS:     655966 HIT:     654821 MISS:       1145 MSHR_MERGE:         16
cpu0->cpu0_L1D TRANSLATION  ACCESS:     120619 HIT:     103285 MISS:      17334 MSHR_MERGE:         18
cpu0->cpu0_L1D PREFETCH REQUESTED:    3445481 ISSUED:    3445481 USEFUL:    3255530 USELESS:      41905 LATE:     484438
cpu0->cpu0_L1D AVERAGE MISS LATENCY: 72.92 cycles
cpu0->cpu0_ITLB TOTAL        ACCESS:    3921978 HIT:    3921978 MISS:          0 MSHR_MERGE:          0
cpu0->cpu0_ITLB LOAD         ACCESS:    3921978 HIT:    3921978 MISS:          0 MSHR_MERGE:          0
cpu0->cpu0_ITLB RFO          ACCESS:          0 HIT:          0 MISS:          0 MSHR_MERGE:          0
cpu0->cpu0_ITLB PREFETCH     ACCESS:          0 HIT:          0 MISS:          0 MSHR_MERGE:          0
cpu0->cpu0_ITLB WRITE        ACCESS:          0 HIT:          0 MISS:          0 MSHR_MERGE:          0
cpu0->cpu0_ITLB TRANSLATION  ACCESS:          0 HIT:          0 MISS:          0 MSHR_MERGE:          0
cpu0->cpu0_ITLB PREFETCH REQUESTED:          0 ISSUED:          0 USEFUL:          0 USELESS:          0 LATE:          0
cpu0->cpu0_ITLB AVERAGE MISS LATENCY: - cycles
cpu0->cpu0_DTLB TOTAL        ACCESS:   15730731 HIT:   15588095 MISS:     142636 MSHR_MERGE:      74543
cpu0->cpu0_DTLB LOAD         ACCESS:   15730731 HIT:   15588095 MISS:     142636 MSHR_MERGE:      74543
cpu0->cpu0_DTLB RFO          ACCESS:          0 HIT:          0 MISS:          0 MSHR_MERGE:          0
cpu0->cpu0_DTLB PREFETCH     ACCESS:          0 HIT:          0 MISS:          0 MSHR_MERGE:          0
cpu0->cpu0_DTLB WRITE        ACCESS:          0 HIT:          0 MISS:          0 MSHR_MERGE:          0
cpu0->cpu0_DTLB TRANSLATION  ACCESS:          0 HIT:          0 MISS:          0 MSHR_MERGE:          0
cpu0->cpu0_DTLB PREFETCH REQUESTED:          0 ISSUED:          0 USEFUL:          0 USELESS:          0 LATE:          0
cpu0->cpu0_DTLB AVERAGE MISS LATENCY: 122.9 cycles
cpu0->LLC TOTAL        ACCESS:    3673715 HIT:       2157 MISS:    3671558 MSHR_MERGE:          0
cpu0->LLC LOAD         ACCESS:      95648 HIT:        198 MISS:      95450 MSHR_MERGE:          0
cpu0->LLC RFO          ACCESS:        259 HIT:          2 MISS:        257 MSHR_MERGE:          0
cpu0->LLC PREFETCH     ACCESS:    3557521 HIT:        483 MISS:    3557038 MSHR_MERGE:          0
cpu0->LLC WRITE        ACCESS:       5535 HIT:       1077 MISS:       4458 MSHR_MERGE:          0
cpu0->LLC TRANSLATION  ACCESS:      14752 HIT:        397 MISS:      14355 MSHR_MERGE:          0
cpu0->LLC PREFETCH REQUESTED:          0 ISSUED:          0 USEFUL:          0 USELESS:          0 LATE:          0
cpu0->LLC AVERAGE MISS LATENCY: 203.3 cycles

DRAM Statistics

Channel 0 RQ ROW_BUFFER_HIT:    1530464
  ROW_BUFFER_MISS:    2136633
  AVG DBUS CONGESTED CYCLE: 3.372
Channel 0 WQ ROW_BUFFER_HIT:       1232
  ROW_BUFFER_MISS:       4804
  FULL:          0
Channel 0 REFRESHES ISSUED:       7937

[ROI Statistics]
[System Configuration]
num_cpus 1
cpu_freq 4000
fetch_width 6
decode_width 6
dispatch_width 6
execute_width 6
lq_width 2
sq_width 2
retire_width 6
scheduler_size 128
branch_mispredict_penalty 15
rob_size 352
lq_size 128
sq_size 72
ifetch_buffer_size 64
decode_buffer_size 32
dispatch_buffer_size 32
register_file_size 288
decode_latency 1
dispatch_latency 1
schedule_latency 1
execute_latency 1
page_size 4096
block_size 64
core_0_itlb_set 16
core_0_itlb_way 4
core_0_itlb_rq_size 16
core_0_itlb_wq_size 16
core_0_itlb_pq_size 0
core_0_itlb_mshr_size 8
core_0_itlb_hit_latency 1
core_0_itlb_fill_latency 1
core_0_itlb_max_tag_check 2
core_0_itlb_max_fill 2
core_0_dtlb_set 16
core_0_dtlb_way 4
core_0_dtlb_rq_size 16
core_0_dtlb_wq_size 16
core_0_dtlb_pq_size 0
core_0_dtlb_mshr_size 8
core_0_dtlb_hit_latency 1
core_0_dtlb_fill_latency 1
core_0_dtlb_max_tag_check 2
core_0_dtlb_max_fill 2
core_0_stlb_set 128
core_0_stlb_way 12
core_0_stlb_rq_size 32
core_0_stlb_wq_size 32
core_0_stlb_pq_size 0
core_0_stlb_mshr_size 16
core_0_stlb_hit_latency 4
core_0_stlb_fill_latency 4
core_0_stlb_max_tag_check 1
core_0_stlb_max_fill 1
core_0_l1i_set 64
core_0_l1i_way 8
core_0_l1i_rq_size 64
core_0_l1i_wq_size 64
core_0_l1i_pq_size 32
core_0_l1i_mshr_size 8
core_0_l1i_hit_latency 2
core_0_l1i_fill_latency 2
core_0_l1i_max_tag_check 2
core_0_l1i_max_fill 2
core_0_l1d_set 64
core_0_l1d_way 12
core_0_l1d_rq_size 64
core_0_l1d_wq_size 64
core_0_l1d_pq_size 8
core_0_l1d_mshr_size 16
core_0_l1d_hit_latency 2
core_0_l1d_fill_latency 3
core_0_l1d_max_tag_check 2
core_0_l1d_max_fill 2
core_0_l2c_set 1024
core_0_l2c_way 8
core_0_l2c_rq_size 32
core_0_l2c_wq_size 32
core_0_l2c_pq_size 16
core_0_l2c_mshr_size 32
core_0_l2c_hit_latency 5
core_0_l2c_fill_latency 5
core_0_l2c_max_tag_check 1
core_0_l2c_max_fill 1
llc_set 2048
llc_way 16
llc_rq_size 32
llc_wq_size 32
llc_pq_size 32
llc_mshr_size 64
llc_hit_latency 10
llc_fill_latency 10
llc_max_tag_check 1
llc_max_fill 1
dram_channels 1
dram_ranks 1
dram_bankgroups 8
dram_banks 4
dram_rows 65536
dram_columns 1024
dram_channel_width 8
dram_rq_size 64
dram_wq_size 64
dram_size 17179869184
core_0_itlb_prefetcher no
core_0_dtlb_prefetcher no
core_0_stlb_prefetcher no
core_0_l1i_prefetcher next_line
core_0_l1d_prefetcher berti
core_0_l2c_prefetcher pythia
llc_prefetcher no
llc_replacement drrip

Core_0_instructions 50000000
Core_0_cycles 95245658
Core_0_IPC 0.524958
Core_0_branch_prediction_accuracy 99.6632
Core_0_branch_MPKI 1.20166
Core_0_average_ROB_occupancy_at_mispredict 234.986

Core_0_ITLB_total_access 3921978
Core_0_ITLB_total_hit 3921978
Core_0_ITLB_total_miss 0
Core_0_ITLB_total_MPKI 0
Core_0_ITLB_total_miss_rate 0
Core_0_ITLB_demand_access 3921978
Core_0_ITLB_demand_hit 3921978
Core_0_ITLB_demand_miss 0
Core_0_ITLB_demand_MPKI 0
Core_0_ITLB_demand_miss_rate 0
Core_0_ITLB_load_access 3921978
Core_0_ITLB_load_hit 3921978
Core_0_ITLB_load_miss 0
Core_0_ITLB_load_MPKI 0
Core_0_ITLB_load_miss_rate 0
Core_0_ITLB_rfo_access 0
Core_0_ITLB_rfo_hit 0
Core_0_ITLB_rfo_miss 0
Core_0_ITLB_rfo_MPKI 0
Core_0_ITLB_rfo_miss_rate 0
Core_0_ITLB_prefetch_access 0
Core_0_ITLB_prefetch_hit 0
Core_0_ITLB_prefetch_miss 0
Core_0_ITLB_prefetch_MPKI 0
Core_0_ITLB_prefetch_miss_rate 0
Core_0_ITLB_writeback_access 0
Core_0_ITLB_writeback_hit 0
Core_0_ITLB_writeback_miss 0
Core_0_ITLB_writeback_MPKI 0
Core_0_ITLB_writeback_miss_rate 0
Core_0_ITLB_prefetch_requested 0
Core_0_ITLB_prefetch_issued 0
Core_0_ITLB_prefetch_useful 0
Core_0_ITLB_prefetch_useless 0
Core_0_ITLB_prefetch_late 0
Core_0_ITLB_prefetch_accuracy 0
Core_0_ITLB_prefetch_coverage 0

Core_0_DTLB_total_access 15730731
Core_0_DTLB_total_hit 15588095
Core_0_DTLB_total_miss 142636
Core_0_DTLB_total_MPKI 2.85272
Core_0_DTLB_total_miss_rate 0.00906735
Core_0_DTLB_demand_access 15730731
Core_0_DTLB_demand_hit 15588095
Core_0_DTLB_demand_miss 142636
Core_0_DTLB_demand_MPKI 2.85272
Core_0_DTLB_demand_miss_rate 0.00906735
Core_0_DTLB_load_access 15730731
Core_0_DTLB_load_hit 15588095
Core_0_DTLB_load_miss 142636
Core_0_DTLB_load_MPKI 2.85272
Core_0_DTLB_load_miss_rate 0.00906735
Core_0_DTLB_rfo_access 0
Core_0_DTLB_rfo_hit 0
Core_0_DTLB_rfo_miss 0
Core_0_DTLB_rfo_MPKI 0
Core_0_DTLB_rfo_miss_rate 0
Core_0_DTLB_prefetch_access 0
Core_0_DTLB_prefetch_hit 0
Core_0_DTLB_prefetch_miss 0
Core_0_DTLB_prefetch_MPKI 0
Core_0_DTLB_prefetch_miss_rate 0
Core_0_DTLB_writeback_access 0
Core_0_DTLB_writeback_hit 0
Core_0_DTLB_writeback_miss 0
Core_0_DTLB_writeback_MPKI 0
Core_0_DTLB_writeback_miss_rate 0
Core_0_DTLB_prefetch_requested 0
Core_0_DTLB_prefetch_issued 0
Core_0_DTLB_prefetch_useful 0
Core_0_DTLB_prefetch_useless 0
Core_0_DTLB_prefetch_late 0
Core_0_DTLB_prefetch_accuracy 0
Core_0_DTLB_prefetch_coverage 0

Core_0_STLB_total_access 68093
Core_0_STLB_total_hit 8388
Core_0_STLB_total_miss 59705
Core_0_STLB_total_MPKI 1.1941
Core_0_STLB_total_miss_rate 0.876816
Core_0_STLB_demand_access 68093
Core_0_STLB_demand_hit 8388
Core_0_STLB_demand_miss 59705
Core_0_STLB_demand_MPKI 1.1941
Core_0_STLB_demand_miss_rate 0.876816
Core_0_STLB_load_access 68093
Core_0_STLB_load_hit 8388
Core_0_STLB_load_miss 59705
Core_0_STLB_load_MPKI 1.1941
Core_0_STLB_load_miss_rate 0.876816
Core_0_STLB_rfo_access 0
Core_0_STLB_rfo_hit 0
Core_0_STLB_rfo_miss 0
Core_0_STLB_rfo_MPKI 0
Core_0_STLB_rfo_miss_rate 0
Core_0_STLB_prefetch_access 0
Core_0_STLB_prefetch_hit 0
Core_0_STLB_prefetch_miss 0
Core_0_STLB_prefetch_MPKI 0
Core_0_STLB_prefetch_miss_rate 0
Core_0_STLB_writeback_access 0
Core_0_STLB_writeback_hit 0
Core_0_STLB_writeback_miss 0
Core_0_STLB_writeback_MPKI 0
Core_0_STLB_writeback_miss_rate 0
Core_0_STLB_prefetch_requested 0
Core_0_STLB_prefetch_issued 0
Core_0_STLB_prefetch_useful 0
Core_0_STLB_prefetch_useless 0
Core_0_STLB_prefetch_late 0
Core_0_STLB_prefetch_accuracy 0
Core_0_STLB_prefetch_coverage 0

Core_0_L1I_total_access 3927616
Core_0_L1I_total_hit 3927616
Core_0_L1I_total_miss 0
Core_0_L1I_total_MPKI 0
Core_0_L1I_total_miss_rate 0
Core_0_L1I_demand_access 3927616
Core_0_L1I_demand_hit 3927616
Core_0_L1I_demand_miss 0
Core_0_L1I_demand_MPKI 0
Core_0_L1I_demand_miss_rate 0
Core_0_L1I_load_access 3927616
Core_0_L1I_load_hit 3927616
Core_0_L1I_load_miss 0
Core_0_L1I_load_MPKI 0
Core_0_L1I_load_miss_rate 0
Core_0_L1I_rfo_access 0
Core_0_L1I_rfo_hit 0
Core_0_L1I_rfo_miss 0
Core_0_L1I_rfo_MPKI 0
Core_0_L1I_rfo_miss_rate 0
Core_0_L1I_prefetch_access 0
Core_0_L1I_prefetch_hit 0
Core_0_L1I_prefetch_miss 0
Core_0_L1I_prefetch_MPKI 0
Core_0_L1I_prefetch_miss_rate 0
Core_0_L1I_writeback_access 0
Core_0_L1I_writeback_hit 0
Core_0_L1I_writeback_miss 0
Core_0_L1I_writeback_MPKI 0
Core_0_L1I_writeback_miss_rate 0
Core_0_L1I_prefetch_requested 0
Core_0_L1I_prefetch_issued 0
Core_0_L1I_prefetch_useful 0
Core_0_L1I_prefetch_useless 0
Core_0_L1I_prefetch_late 0
Core_0_L1I_prefetch_accuracy 0
Core_0_L1I_prefetch_coverage 0

Core_0_L1D_total_access 16055786
Core_0_L1D_total_hit 11194506
Core_0_L1D_total_miss 4861280
Core_0_L1D_total_MPKI 97.2256
Core_0_L1D_total_miss_rate 0.302774
Core_0_L1D_demand_access 11954339
Core_0_L1D_demand_hit 10458698
Core_0_L1D_demand_miss 1495641
Core_0_L1D_demand_MPKI 29.9128
Core_0_L1D_demand_miss_rate 0.125113
Core_0_L1D_load_access 11954339
Core_0_L1D_load_hit 10458698
Core_0_L1D_load_miss 1495641
Core_0_L1D_load_MPKI 29.9128
Core_0_L1D_load_miss_rate 0.125113
Core_0_L1D_rfo_access 0
Core_0_L1D_rfo_hit 0
Core_0_L1D_rfo_miss 0
Core_0_L1D_rfo_MPKI 0
Core_0_L1D_rfo_miss_rate 0
Core_0_L1D_prefetch_access 3445481
Core_0_L1D_prefetch_hit 80987
Core_0_L1D_prefetch_miss 3364494
Core_0_L1D_prefetch_MPKI 67.2899
Core_0_L1D_prefetch_miss_rate 0.976495
Core_0_L1D_writeback_access 655966
Core_0_L1D_writeback_hit 654821
Core_0_L1D_writeback_miss 1145
Core_0_L1D_writeback_MPKI 0.0229
Core_0_L1D_writeback_miss_rate 0.00174552
Core_0_L1D_prefetch_requested 3445481
Core_0_L1D_prefetch_issued 3445481
Core_0_L1D_prefetch_useful 3255530
Core_0_L1D_prefetch_useless 41905
Core_0_L1D_prefetch_late 484438
Core_0_L1D_prefetch_accuracy 0.94487
Core_0_L1D_prefetch_coverage 0.685206

Core_0_L2C_total_access 18592423
Core_0_L2C_total_hit 5561434
Core_0_L2C_total_miss 13030989
Core_0_L2C_total_MPKI 260.62
Core_0_L2C_total_miss_rate 0.700876
Core_0_L2C_demand_access 250843
Core_0_L2C_demand_hit 133374
Core_0_L2C_demand_miss 117469
Core_0_L2C_demand_MPKI 2.34938
Core_0_L2C_demand_miss_rate 0.468297
Core_0_L2C_load_access 249714
Core_0_L2C_load_hit 132505
Core_0_L2C_load_miss 117209
Core_0_L2C_load_MPKI 2.34418
Core_0_L2C_load_miss_rate 0.469373
Core_0_L2C_rfo_access 1129
Core_0_L2C_rfo_hit 869
Core_0_L2C_rfo_miss 260
Core_0_L2C_rfo_MPKI 0.0052
Core_0_L2C_rfo_miss_rate 0.230292
Core_0_L2C_prefetch_access 18336048
Core_0_L2C_prefetch_hit 5422544
Core_0_L2C_prefetch_miss 12913504
Core_0_L2C_prefetch_MPKI 258.27
Core_0_L2C_prefetch_miss_rate 0.704269
Core_0_L2C_writeback_access 5532
Core_0_L2C_writeback_hit 5516
Core_0_L2C_writeback_miss 16
Core_0_L2C_writeback_MPKI 0.00032
Core_0_L2C_writeback_miss_rate 0.00289226
Core_0_L2C_prefetch_requested 15064512
Core_0_L2C_prefetch_issued 15038611
Core_0_L2C_prefetch_useful 1775090
Core_0_L2C_prefetch_useless 1502514
Core_0_L2C_prefetch_late 21562
Core_0_L2C_prefetch_accuracy 0.118036
Core_0_L2C_prefetch_coverage 0.937931

Core_0_LLC_total_access 3658963
Core_0_LLC_total_hit 1760
Core_0_LLC_total_miss 3657203
Core_0_LLC_total_MPKI 73.1441
Core_0_LLC_total_miss_rate 0.999519
Core_0_LLC_demand_access 95907
Core_0_LLC_demand_hit 200
Core_0_LLC_demand_miss 95707
Core_0_LLC_demand_MPKI 1.91414
Core_0_LLC_demand_miss_rate 0.997915
Core_0_LLC_load_access 95648
Core_0_LLC_load_hit 198
Core_0_LLC_load_miss 95450
Core_0_LLC_load_MPKI 1.909
Core_0_LLC_load_miss_rate 0.99793
Core_0_LLC_rfo_access 259
Core_0_LLC_rfo_hit 2
Core_0_LLC_rfo_miss 257
Core_0_LLC_rfo_MPKI 0.00514
Core_0_LLC_rfo_miss_rate 0.992278
Core_0_LLC_prefetch_access 3557521
Core_0_LLC_prefetch_hit 483
Core_0_LLC_prefetch_miss 3557038
Core_0_LLC_prefetch_MPKI 71.1408
Core_0_LLC_prefetch_miss_rate 0.999864
Core_0_LLC_writeback_access 5535
Core_0_LLC_writeback_hit 1077
Core_0_LLC_writeback_miss 4458
Core_0_LLC_writeback_MPKI 0.08916
Core_0_LLC_writeback_miss_rate 0.80542
Core_0_LLC_prefetch_requested 0
Core_0_LLC_prefetch_issued 0
Core_0_LLC_prefetch_useful 0
Core_0_LLC_prefetch_useless 0
Core_0_LLC_prefetch_late 0
Core_0_LLC_prefetch_accuracy 0
Core_0_LLC_prefetch_coverage 0

[DRAM Statistics]
Channel_0_RQ_row_buffer_hit 1530464
Channel_0_RQ_row_buffer_miss 2136633
Channel_0_WQ_row_buffer_hit 1232
Channel_0_WQ_row_buffer_miss 4804
Channel_0_WQ_full 0
Channel_0_dbus_congested 8147821
DRAM_total_RQ_row_buffer_hit 1530464
DRAM_total_RQ_row_buffer_miss 2136633
DRAM_total_WQ_row_buffer_hit 1232
DRAM_total_WQ_row_buffer_miss 4804
DRAM_total_WQ_full 0
DRAM_total_dbus_congested 8147821
DRAM_avg_congested_cycle 3.37201

======STLB miss causes ========
Core_0_STLB_miss_cause_breakdown
Core_0_STLB_cause_Demand_Data_miss 59705
Core_0_STLB_cause_Demand_Data_miss_rate 0.876816
Core_0_STLB_cause_Demand_Instruction_miss 0
Core_0_STLB_cause_Demand_Instruction_miss_rate 0
Core_0_STLB_cause_L1D_Prefetch_miss 0
Core_0_STLB_cause_L1D_Prefetch_miss_rate 0
Core_0_STLB_cause_L1I_Prefetch_miss 0
Core_0_STLB_cause_L1I_Prefetch_miss_rate 0
Core_0_STLB_cause_Other_miss 0
Core_0_STLB_cause_Other_miss_rate 0
Core_0_STLB_Demand_miss 59705
Core_0_STLB_Demand_miss_rate 0.876816
Core_0_STLB_L1D_Prefetch_miss 0
Core_0_STLB_L1D_Prefetch_miss_rate 0
Core_0_STLB_Other_miss 0
Core_0_STLB_Other_miss_rate 0
