[VMEM] WARNING: physical memory size is smaller than virtual memory size.

*** ChampSim Multicore Out-of-Order Simulator ***
Warmup Instructions: 20000000
Simulation Instructions: 50000000
Number of CPUs: 1
Page size: 4096
STLB ideal mode: l1pref
Core 0: /data0/tzh/champsim_traces/SPEC06/429.mcf-192B.champsimtrace.xz
 L1D Berti prefetcher
Off-chip DRAM Size: 16 GiB Channels: 1 Width: 64-bit Data Rate: 3205 MT/s
Warmup halting CPU 0 at instruction 20000005 cycle 5001411 for remainder of phase
Warmup finished CPU 0 instructions: 20000005 cycles: 5001411 cumulative IPC: 3.999 (Simulation time: 00 hr 01 min 46 sec)
Warmup complete CPU 0 instructions: 20000005 cycles: 5001411 cumulative IPC: 3.999 (Simulation time: 00 hr 01 min 46 sec)
Simulation finished CPU 0 instructions: 50000000 cycles: 259752960 cumulative IPC: 0.1925 (Simulation time: 00 hr 19 min 46 sec)
Simulation complete CPU 0 instructions: 50000000 cycles: 259752960 cumulative IPC: 0.1925 (Simulation time: 00 hr 19 min 46 sec)

ChampSim completed all CPUs

=== Simulation ===
CPU 0 runs /data0/tzh/champsim_traces/SPEC06/429.mcf-192B.champsimtrace.xz

Region of Interest Statistics

CPU 0 cumulative IPC: 0.1925 instructions: 50000000 cycles: 259752960
CPU 0 Branch Prediction Accuracy: 91.85% MPKI: 19.58 Average ROB Occupancy at Mispredict: 30.5
Branch type MPKI
BRANCH_DIRECT_JUMP: 0.02388
BRANCH_INDIRECT: 0
BRANCH_CONDITIONAL: 19.56
BRANCH_DIRECT_CALL: 0
BRANCH_INDIRECT_CALL: 0
BRANCH_RETURN: 0

cpu0->cpu0_STLB TOTAL        ACCESS:    7431354 HIT:    7306408 MISS:     124946 MSHR_MERGE:          0
cpu0->cpu0_STLB LOAD         ACCESS:    7431354 HIT:    7306408 MISS:     124946 MSHR_MERGE:          0
cpu0->cpu0_STLB RFO          ACCESS:          0 HIT:          0 MISS:          0 MSHR_MERGE:          0
cpu0->cpu0_STLB PREFETCH     ACCESS:          0 HIT:          0 MISS:          0 MSHR_MERGE:          0
cpu0->cpu0_STLB WRITE        ACCESS:          0 HIT:          0 MISS:          0 MSHR_MERGE:          0
cpu0->cpu0_STLB TRANSLATION  ACCESS:          0 HIT:          0 MISS:          0 MSHR_MERGE:          0
cpu0->cpu0_STLB PREFETCH REQUESTED:          0 ISSUED:          0 USEFUL:          0 USELESS:          0 LATE:          0
cpu0->cpu0_STLB AVERAGE MISS LATENCY: 183 cycles
cpu0->cpu0_L2C TOTAL        ACCESS:   14976408 HIT:    5819144 MISS:    9157264 MSHR_MERGE:      11073
cpu0->cpu0_L2C LOAD         ACCESS:    7101467 HIT:    4066450 MISS:    3035017 MSHR_MERGE:        196
cpu0->cpu0_L2C RFO          ACCESS:       1053 HIT:        263 MISS:        790 MSHR_MERGE:          2
cpu0->cpu0_L2C PREFETCH     ACCESS:    7701576 HIT:    1713028 MISS:    5988548 MSHR_MERGE:      10875
cpu0->cpu0_L2C WRITE        ACCESS:      12723 HIT:      12679 MISS:         44 MSHR_MERGE:          0
cpu0->cpu0_L2C TRANSLATION  ACCESS:     159589 HIT:      26724 MISS:     132865 MSHR_MERGE:          0
cpu0->cpu0_L2C PREFETCH REQUESTED:    7354808 ISSUED:    7352883 USEFUL:    2597921 USELESS:    3085849 LATE:        198
cpu0->cpu0_L2C AVERAGE MISS LATENCY: 66.1 cycles
cpu0->cpu0_L1I TOTAL        ACCESS:      25423 HIT:      25423 MISS:          0 MSHR_MERGE:          0
cpu0->cpu0_L1I LOAD         ACCESS:      25423 HIT:      25423 MISS:          0 MSHR_MERGE:          0
cpu0->cpu0_L1I RFO          ACCESS:          0 HIT:          0 MISS:          0 MSHR_MERGE:          0
cpu0->cpu0_L1I PREFETCH     ACCESS:          0 HIT:          0 MISS:          0 MSHR_MERGE:          0
cpu0->cpu0_L1I WRITE        ACCESS:          0 HIT:          0 MISS:          0 MSHR_MERGE:          0
cpu0->cpu0_L1I TRANSLATION  ACCESS:          0 HIT:          0 MISS:          0 MSHR_MERGE:          0
cpu0->cpu0_L1I PREFETCH REQUESTED:          0 ISSUED:          0 USEFUL:          0 USELESS:          0 LATE:          0
cpu0->cpu0_L1I AVERAGE MISS LATENCY: - cycles
cpu0->cpu0_L1D TOTAL        ACCESS:   12943896 HIT:    3466701 MISS:    9477195 MSHR_MERGE:    1866410
cpu0->cpu0_L1D LOAD         ACCESS:   12224319 HIT:    3258474 MISS:    8965845 MSHR_MERGE:    1864379
cpu0->cpu0_L1D RFO          ACCESS:          0 HIT:          0 MISS:          0 MSHR_MERGE:          0
cpu0->cpu0_L1D PREFETCH     ACCESS:     384303 HIT:      34425 MISS:     349878 MSHR_MERGE:       1201
cpu0->cpu0_L1D WRITE        ACCESS:      42798 HIT:      41109 MISS:       1689 MSHR_MERGE:        636
cpu0->cpu0_L1D TRANSLATION  ACCESS:     292476 HIT:     132693 MISS:     159783 MSHR_MERGE:        194
cpu0->cpu0_L1D PREFETCH REQUESTED:     384372 ISSUED:     384303 USEFUL:       8510 USELESS:     340150 LATE:        217
cpu0->cpu0_L1D AVERAGE MISS LATENCY: 37.31 cycles
cpu0->cpu0_ITLB TOTAL        ACCESS:      22800 HIT:      22800 MISS:          0 MSHR_MERGE:          0
cpu0->cpu0_ITLB LOAD         ACCESS:      22800 HIT:      22800 MISS:          0 MSHR_MERGE:          0
cpu0->cpu0_ITLB RFO          ACCESS:          0 HIT:          0 MISS:          0 MSHR_MERGE:          0
cpu0->cpu0_ITLB PREFETCH     ACCESS:          0 HIT:          0 MISS:          0 MSHR_MERGE:          0
cpu0->cpu0_ITLB WRITE        ACCESS:          0 HIT:          0 MISS:          0 MSHR_MERGE:          0
cpu0->cpu0_ITLB TRANSLATION  ACCESS:          0 HIT:          0 MISS:          0 MSHR_MERGE:          0
cpu0->cpu0_ITLB PREFETCH REQUESTED:          0 ISSUED:          0 USEFUL:          0 USELESS:          0 LATE:          0
cpu0->cpu0_ITLB AVERAGE MISS LATENCY: - cycles
cpu0->cpu0_DTLB TOTAL        ACCESS:   12640953 HIT:    3293815 MISS:    9347138 MSHR_MERGE:    1915784
cpu0->cpu0_DTLB LOAD         ACCESS:   12640953 HIT:    3293815 MISS:    9347138 MSHR_MERGE:    1915784
cpu0->cpu0_DTLB RFO          ACCESS:          0 HIT:          0 MISS:          0 MSHR_MERGE:          0
cpu0->cpu0_DTLB PREFETCH     ACCESS:          0 HIT:          0 MISS:          0 MSHR_MERGE:          0
cpu0->cpu0_DTLB WRITE        ACCESS:          0 HIT:          0 MISS:          0 MSHR_MERGE:          0
cpu0->cpu0_DTLB TRANSLATION  ACCESS:          0 HIT:          0 MISS:          0 MSHR_MERGE:          0
cpu0->cpu0_DTLB PREFETCH REQUESTED:          0 ISSUED:          0 USEFUL:          0 USELESS:          0 LATE:          0
cpu0->cpu0_DTLB AVERAGE MISS LATENCY: 8.095 cycles
cpu0->LLC TOTAL        ACCESS:    9157157 HIT:    4922277 MISS:    4234880 MSHR_MERGE:          0
cpu0->LLC LOAD         ACCESS:    3034820 HIT:    2380029 MISS:     654791 MSHR_MERGE:          0
cpu0->LLC RFO          ACCESS:        788 HIT:        494 MISS:        294 MSHR_MERGE:          0
cpu0->LLC PREFETCH     ACCESS:    5977673 HIT:    2442894 MISS:    3534779 MSHR_MERGE:          0
cpu0->LLC WRITE        ACCESS:      11011 HIT:       8225 MISS:       2786 MSHR_MERGE:          0
cpu0->LLC TRANSLATION  ACCESS:     132865 HIT:      90635 MISS:      42230 MSHR_MERGE:          0
cpu0->LLC PREFETCH REQUESTED:          0 ISSUED:          0 USEFUL:          0 USELESS:          0 LATE:          0
cpu0->LLC AVERAGE MISS LATENCY: 230.3 cycles

DRAM Statistics

Channel 0 RQ ROW_BUFFER_HIT:       2137
  ROW_BUFFER_MISS:    4229928
  AVG DBUS CONGESTED CYCLE: 4.299
Channel 0 WQ ROW_BUFFER_HIT:       1446
  ROW_BUFFER_MISS:       2842
  FULL:          0
Channel 0 REFRESHES ISSUED:      21646

[ROI Statistics]
[System Configuration]
num_cpus 1
cpu_freq 4000
fetch_width 6
decode_width 6
dispatch_width 6
execute_width 6
lq_width 2
sq_width 2
retire_width 6
scheduler_size 128
branch_mispredict_penalty 15
rob_size 352
lq_size 128
sq_size 72
ifetch_buffer_size 64
decode_buffer_size 32
dispatch_buffer_size 32
register_file_size 288
decode_latency 1
dispatch_latency 1
schedule_latency 1
execute_latency 1
page_size 4096
block_size 64
core_0_itlb_set 16
core_0_itlb_way 4
core_0_itlb_rq_size 16
core_0_itlb_wq_size 16
core_0_itlb_pq_size 0
core_0_itlb_mshr_size 4
core_0_itlb_hit_latency 1
core_0_itlb_fill_latency 1
core_0_itlb_max_tag_check 2
core_0_itlb_max_fill 2
core_0_dtlb_set 16
core_0_dtlb_way 4
core_0_dtlb_rq_size 16
core_0_dtlb_wq_size 16
core_0_dtlb_pq_size 0
core_0_dtlb_mshr_size 4
core_0_dtlb_hit_latency 1
core_0_dtlb_fill_latency 1
core_0_dtlb_max_tag_check 2
core_0_dtlb_max_fill 2
core_0_stlb_set 128
core_0_stlb_way 12
core_0_stlb_rq_size 32
core_0_stlb_wq_size 32
core_0_stlb_pq_size 0
core_0_stlb_mshr_size 4
core_0_stlb_hit_latency 4
core_0_stlb_fill_latency 4
core_0_stlb_max_tag_check 1
core_0_stlb_max_fill 1
core_0_l1i_set 64
core_0_l1i_way 8
core_0_l1i_rq_size 64
core_0_l1i_wq_size 64
core_0_l1i_pq_size 32
core_0_l1i_mshr_size 8
core_0_l1i_hit_latency 2
core_0_l1i_fill_latency 2
core_0_l1i_max_tag_check 2
core_0_l1i_max_fill 2
core_0_l1d_set 64
core_0_l1d_way 12
core_0_l1d_rq_size 64
core_0_l1d_wq_size 64
core_0_l1d_pq_size 8
core_0_l1d_mshr_size 16
core_0_l1d_hit_latency 2
core_0_l1d_fill_latency 3
core_0_l1d_max_tag_check 2
core_0_l1d_max_fill 2
core_0_l2c_set 1024
core_0_l2c_way 8
core_0_l2c_rq_size 32
core_0_l2c_wq_size 32
core_0_l2c_pq_size 16
core_0_l2c_mshr_size 32
core_0_l2c_hit_latency 5
core_0_l2c_fill_latency 5
core_0_l2c_max_tag_check 1
core_0_l2c_max_fill 1
llc_set 2048
llc_way 16
llc_rq_size 32
llc_wq_size 32
llc_pq_size 32
llc_mshr_size 64
llc_hit_latency 10
llc_fill_latency 10
llc_max_tag_check 1
llc_max_fill 1
dram_channels 1
dram_ranks 1
dram_bankgroups 8
dram_banks 4
dram_rows 65536
dram_columns 1024
dram_channel_width 8
dram_rq_size 64
dram_wq_size 64
dram_size 17179869184
core_0_itlb_prefetcher no
core_0_dtlb_prefetcher no
core_0_stlb_prefetcher no
core_0_l1i_prefetcher next_line
core_0_l1d_prefetcher berti
core_0_l2c_prefetcher pythia
llc_prefetcher no
llc_replacement drrip

Core_0_instructions 50000000
Core_0_cycles 259752960
Core_0_IPC 0.192491
Core_0_branch_prediction_accuracy 91.8483
Core_0_branch_MPKI 19.5804
Core_0_average_ROB_occupancy_at_mispredict 30.5047

Core_0_ITLB_total_access 22800
Core_0_ITLB_total_hit 22800
Core_0_ITLB_total_miss 0
Core_0_ITLB_total_MPKI 0
Core_0_ITLB_total_miss_rate 0
Core_0_ITLB_demand_access 22800
Core_0_ITLB_demand_hit 22800
Core_0_ITLB_demand_miss 0
Core_0_ITLB_demand_MPKI 0
Core_0_ITLB_demand_miss_rate 0
Core_0_ITLB_load_access 22800
Core_0_ITLB_load_hit 22800
Core_0_ITLB_load_miss 0
Core_0_ITLB_load_MPKI 0
Core_0_ITLB_load_miss_rate 0
Core_0_ITLB_rfo_access 0
Core_0_ITLB_rfo_hit 0
Core_0_ITLB_rfo_miss 0
Core_0_ITLB_rfo_MPKI 0
Core_0_ITLB_rfo_miss_rate 0
Core_0_ITLB_prefetch_access 0
Core_0_ITLB_prefetch_hit 0
Core_0_ITLB_prefetch_miss 0
Core_0_ITLB_prefetch_MPKI 0
Core_0_ITLB_prefetch_miss_rate 0
Core_0_ITLB_writeback_access 0
Core_0_ITLB_writeback_hit 0
Core_0_ITLB_writeback_miss 0
Core_0_ITLB_writeback_MPKI 0
Core_0_ITLB_writeback_miss_rate 0
Core_0_ITLB_prefetch_requested 0
Core_0_ITLB_prefetch_issued 0
Core_0_ITLB_prefetch_useful 0
Core_0_ITLB_prefetch_useless 0
Core_0_ITLB_prefetch_late 0
Core_0_ITLB_prefetch_accuracy 0
Core_0_ITLB_prefetch_coverage 0

Core_0_DTLB_total_access 12640953
Core_0_DTLB_total_hit 3293815
Core_0_DTLB_total_miss 9347138
Core_0_DTLB_total_MPKI 186.943
Core_0_DTLB_total_miss_rate 0.739433
Core_0_DTLB_demand_access 12640953
Core_0_DTLB_demand_hit 3293815
Core_0_DTLB_demand_miss 9347138
Core_0_DTLB_demand_MPKI 186.943
Core_0_DTLB_demand_miss_rate 0.739433
Core_0_DTLB_load_access 12640953
Core_0_DTLB_load_hit 3293815
Core_0_DTLB_load_miss 9347138
Core_0_DTLB_load_MPKI 186.943
Core_0_DTLB_load_miss_rate 0.739433
Core_0_DTLB_rfo_access 0
Core_0_DTLB_rfo_hit 0
Core_0_DTLB_rfo_miss 0
Core_0_DTLB_rfo_MPKI 0
Core_0_DTLB_rfo_miss_rate 0
Core_0_DTLB_prefetch_access 0
Core_0_DTLB_prefetch_hit 0
Core_0_DTLB_prefetch_miss 0
Core_0_DTLB_prefetch_MPKI 0
Core_0_DTLB_prefetch_miss_rate 0
Core_0_DTLB_writeback_access 0
Core_0_DTLB_writeback_hit 0
Core_0_DTLB_writeback_miss 0
Core_0_DTLB_writeback_MPKI 0
Core_0_DTLB_writeback_miss_rate 0
Core_0_DTLB_prefetch_requested 0
Core_0_DTLB_prefetch_issued 0
Core_0_DTLB_prefetch_useful 0
Core_0_DTLB_prefetch_useless 0
Core_0_DTLB_prefetch_late 0
Core_0_DTLB_prefetch_accuracy 0
Core_0_DTLB_prefetch_coverage 0

Core_0_STLB_total_access 7431354
Core_0_STLB_total_hit 7306408
Core_0_STLB_total_miss 124946
Core_0_STLB_total_MPKI 2.49892
Core_0_STLB_total_miss_rate 0.0168134
Core_0_STLB_demand_access 7431354
Core_0_STLB_demand_hit 7306408
Core_0_STLB_demand_miss 124946
Core_0_STLB_demand_MPKI 2.49892
Core_0_STLB_demand_miss_rate 0.0168134
Core_0_STLB_load_access 7431354
Core_0_STLB_load_hit 7306408
Core_0_STLB_load_miss 124946
Core_0_STLB_load_MPKI 2.49892
Core_0_STLB_load_miss_rate 0.0168134
Core_0_STLB_rfo_access 0
Core_0_STLB_rfo_hit 0
Core_0_STLB_rfo_miss 0
Core_0_STLB_rfo_MPKI 0
Core_0_STLB_rfo_miss_rate 0
Core_0_STLB_prefetch_access 0
Core_0_STLB_prefetch_hit 0
Core_0_STLB_prefetch_miss 0
Core_0_STLB_prefetch_MPKI 0
Core_0_STLB_prefetch_miss_rate 0
Core_0_STLB_writeback_access 0
Core_0_STLB_writeback_hit 0
Core_0_STLB_writeback_miss 0
Core_0_STLB_writeback_MPKI 0
Core_0_STLB_writeback_miss_rate 0
Core_0_STLB_prefetch_requested 0
Core_0_STLB_prefetch_issued 0
Core_0_STLB_prefetch_useful 0
Core_0_STLB_prefetch_useless 0
Core_0_STLB_prefetch_late 0
Core_0_STLB_prefetch_accuracy 0
Core_0_STLB_prefetch_coverage 0

Core_0_L1I_total_access 25423
Core_0_L1I_total_hit 25423
Core_0_L1I_total_miss 0
Core_0_L1I_total_MPKI 0
Core_0_L1I_total_miss_rate 0
Core_0_L1I_demand_access 25423
Core_0_L1I_demand_hit 25423
Core_0_L1I_demand_miss 0
Core_0_L1I_demand_MPKI 0
Core_0_L1I_demand_miss_rate 0
Core_0_L1I_load_access 25423
Core_0_L1I_load_hit 25423
Core_0_L1I_load_miss 0
Core_0_L1I_load_MPKI 0
Core_0_L1I_load_miss_rate 0
Core_0_L1I_rfo_access 0
Core_0_L1I_rfo_hit 0
Core_0_L1I_rfo_miss 0
Core_0_L1I_rfo_MPKI 0
Core_0_L1I_rfo_miss_rate 0
Core_0_L1I_prefetch_access 0
Core_0_L1I_prefetch_hit 0
Core_0_L1I_prefetch_miss 0
Core_0_L1I_prefetch_MPKI 0
Core_0_L1I_prefetch_miss_rate 0
Core_0_L1I_writeback_access 0
Core_0_L1I_writeback_hit 0
Core_0_L1I_writeback_miss 0
Core_0_L1I_writeback_MPKI 0
Core_0_L1I_writeback_miss_rate 0
Core_0_L1I_prefetch_requested 0
Core_0_L1I_prefetch_issued 0
Core_0_L1I_prefetch_useful 0
Core_0_L1I_prefetch_useless 0
Core_0_L1I_prefetch_late 0
Core_0_L1I_prefetch_accuracy 0
Core_0_L1I_prefetch_coverage 0

Core_0_L1D_total_access 12651420
Core_0_L1D_total_hit 3334008
Core_0_L1D_total_miss 9317412
Core_0_L1D_total_MPKI 186.348
Core_0_L1D_total_miss_rate 0.736472
Core_0_L1D_demand_access 12224319
Core_0_L1D_demand_hit 3258474
Core_0_L1D_demand_miss 8965845
Core_0_L1D_demand_MPKI 179.317
Core_0_L1D_demand_miss_rate 0.733443
Core_0_L1D_load_access 12224319
Core_0_L1D_load_hit 3258474
Core_0_L1D_load_miss 8965845
Core_0_L1D_load_MPKI 179.317
Core_0_L1D_load_miss_rate 0.733443
Core_0_L1D_rfo_access 0
Core_0_L1D_rfo_hit 0
Core_0_L1D_rfo_miss 0
Core_0_L1D_rfo_MPKI 0
Core_0_L1D_rfo_miss_rate 0
Core_0_L1D_prefetch_access 384303
Core_0_L1D_prefetch_hit 34425
Core_0_L1D_prefetch_miss 349878
Core_0_L1D_prefetch_MPKI 6.99756
Core_0_L1D_prefetch_miss_rate 0.910422
Core_0_L1D_writeback_access 42798
Core_0_L1D_writeback_hit 41109
Core_0_L1D_writeback_miss 1689
Core_0_L1D_writeback_MPKI 0.03378
Core_0_L1D_writeback_miss_rate 0.0394645
Core_0_L1D_prefetch_requested 384372
Core_0_L1D_prefetch_issued 384303
Core_0_L1D_prefetch_useful 8510
Core_0_L1D_prefetch_useless 340150
Core_0_L1D_prefetch_late 217
Core_0_L1D_prefetch_accuracy 0.022144
Core_0_L1D_prefetch_coverage 0.000948258

Core_0_L2C_total_access 14816819
Core_0_L2C_total_hit 5792420
Core_0_L2C_total_miss 9024399
Core_0_L2C_total_MPKI 180.488
Core_0_L2C_total_miss_rate 0.609065
Core_0_L2C_demand_access 7102520
Core_0_L2C_demand_hit 4066713
Core_0_L2C_demand_miss 3035807
Core_0_L2C_demand_MPKI 60.7161
Core_0_L2C_demand_miss_rate 0.427427
Core_0_L2C_load_access 7101467
Core_0_L2C_load_hit 4066450
Core_0_L2C_load_miss 3035017
Core_0_L2C_load_MPKI 60.7003
Core_0_L2C_load_miss_rate 0.427379
Core_0_L2C_rfo_access 1053
Core_0_L2C_rfo_hit 263
Core_0_L2C_rfo_miss 790
Core_0_L2C_rfo_MPKI 0.0158
Core_0_L2C_rfo_miss_rate 0.750237
Core_0_L2C_prefetch_access 7701576
Core_0_L2C_prefetch_hit 1713028
Core_0_L2C_prefetch_miss 5988548
Core_0_L2C_prefetch_MPKI 119.771
Core_0_L2C_prefetch_miss_rate 0.777574
Core_0_L2C_writeback_access 12723
Core_0_L2C_writeback_hit 12679
Core_0_L2C_writeback_miss 44
Core_0_L2C_writeback_MPKI 0.00088
Core_0_L2C_writeback_miss_rate 0.0034583
Core_0_L2C_prefetch_requested 7354808
Core_0_L2C_prefetch_issued 7352883
Core_0_L2C_prefetch_useful 2597921
Core_0_L2C_prefetch_useless 3085849
Core_0_L2C_prefetch_late 198
Core_0_L2C_prefetch_accuracy 0.35332
Core_0_L2C_prefetch_coverage 0.461137

Core_0_LLC_total_access 9024292
Core_0_LLC_total_hit 4831642
Core_0_LLC_total_miss 4192650
Core_0_LLC_total_MPKI 83.853
Core_0_LLC_total_miss_rate 0.464596
Core_0_LLC_demand_access 3035608
Core_0_LLC_demand_hit 2380523
Core_0_LLC_demand_miss 655085
Core_0_LLC_demand_MPKI 13.1017
Core_0_LLC_demand_miss_rate 0.2158
Core_0_LLC_load_access 3034820
Core_0_LLC_load_hit 2380029
Core_0_LLC_load_miss 654791
Core_0_LLC_load_MPKI 13.0958
Core_0_LLC_load_miss_rate 0.215759
Core_0_LLC_rfo_access 788
Core_0_LLC_rfo_hit 494
Core_0_LLC_rfo_miss 294
Core_0_LLC_rfo_MPKI 0.00588
Core_0_LLC_rfo_miss_rate 0.373096
Core_0_LLC_prefetch_access 5977673
Core_0_LLC_prefetch_hit 2442894
Core_0_LLC_prefetch_miss 3534779
Core_0_LLC_prefetch_MPKI 70.6956
Core_0_LLC_prefetch_miss_rate 0.59133
Core_0_LLC_writeback_access 11011
Core_0_LLC_writeback_hit 8225
Core_0_LLC_writeback_miss 2786
Core_0_LLC_writeback_MPKI 0.05572
Core_0_LLC_writeback_miss_rate 0.25302
Core_0_LLC_prefetch_requested 0
Core_0_LLC_prefetch_issued 0
Core_0_LLC_prefetch_useful 0
Core_0_LLC_prefetch_useless 0
Core_0_LLC_prefetch_late 0
Core_0_LLC_prefetch_accuracy 0
Core_0_LLC_prefetch_coverage 0

[DRAM Statistics]
Channel_0_RQ_row_buffer_hit 2137
Channel_0_RQ_row_buffer_miss 4229928
Channel_0_WQ_row_buffer_hit 1446
Channel_0_WQ_row_buffer_miss 2842
Channel_0_WQ_full 0
Channel_0_dbus_congested 5632046
DRAM_total_RQ_row_buffer_hit 2137
DRAM_total_RQ_row_buffer_miss 4229928
DRAM_total_WQ_row_buffer_hit 1446
DRAM_total_WQ_row_buffer_miss 2842
DRAM_total_WQ_full 0
DRAM_total_dbus_congested 5632046
DRAM_avg_congested_cycle 4.29919

======STLB miss causes ========
Core_0_STLB_miss_cause_breakdown
Core_0_STLB_cause_Demand_Data_miss 124946
Core_0_STLB_cause_Demand_Data_miss_rate 0.0168134
Core_0_STLB_cause_Demand_Instruction_miss 0
Core_0_STLB_cause_Demand_Instruction_miss_rate 0
Core_0_STLB_cause_L1D_Prefetch_miss 0
Core_0_STLB_cause_L1D_Prefetch_miss_rate 0
Core_0_STLB_cause_L1I_Prefetch_miss 0
Core_0_STLB_cause_L1I_Prefetch_miss_rate 0
Core_0_STLB_cause_Other_miss 0
Core_0_STLB_cause_Other_miss_rate 0
Core_0_STLB_Demand_miss 124946
Core_0_STLB_Demand_miss_rate 0.0168134
Core_0_STLB_L1D_Prefetch_miss 0
Core_0_STLB_L1D_Prefetch_miss_rate 0
Core_0_STLB_Other_miss 0
Core_0_STLB_Other_miss_rate 0
