[VMEM] WARNING: physical memory size is smaller than virtual memory size.

*** ChampSim Multicore Out-of-Order Simulator ***
Warmup Instructions: 20000000
Simulation Instructions: 50000000
Number of CPUs: 1
Page size: 4096
Core 0: /data0/tzh/champsim_traces/SPEC06/447.dealII-3B.champsimtrace.xz
Off-chip DRAM Size: 16 GiB Channels: 1 Width: 64-bit Data Rate: 3205 MT/s
Warmup halting CPU 0 at instruction 20000002 cycle 4066016 for remainder of phase
Warmup finished CPU 0 instructions: 20000002 cycles: 4066016 cumulative IPC: 4.919 (Simulation time: 00 hr 00 min 51 sec)
Warmup complete CPU 0 instructions: 20000002 cycles: 4066016 cumulative IPC: 4.919 (Simulation time: 00 hr 00 min 51 sec)
Simulation finished CPU 0 instructions: 50000001 cycles: 30200388 cumulative IPC: 1.656 (Simulation time: 00 hr 05 min 45 sec)
Simulation complete CPU 0 instructions: 50000001 cycles: 30200388 cumulative IPC: 1.656 (Simulation time: 00 hr 05 min 45 sec)

ChampSim completed all CPUs

=== Simulation ===
CPU 0 runs /data0/tzh/champsim_traces/SPEC06/447.dealII-3B.champsimtrace.xz

Region of Interest Statistics

CPU 0 cumulative IPC: 1.656 instructions: 50000001 cycles: 30200388
CPU 0 Branch Prediction Accuracy: 99.49% MPKI: 0.4923 Average ROB Occupancy at Mispredict: 112.2
Branch type MPKI
BRANCH_DIRECT_JUMP: 0.00066
BRANCH_INDIRECT: 0.03488
BRANCH_CONDITIONAL: 0.4554
BRANCH_DIRECT_CALL: 6e-05
BRANCH_INDIRECT_CALL: 0.00042
BRANCH_RETURN: 0.00086

cpu0->cpu0_STLB TOTAL        ACCESS:       5444 HIT:       5415 MISS:         29 MSHR_MERGE:          0
cpu0->cpu0_STLB LOAD         ACCESS:       5444 HIT:       5415 MISS:         29 MSHR_MERGE:          0
cpu0->cpu0_STLB RFO          ACCESS:          0 HIT:          0 MISS:          0 MSHR_MERGE:          0
cpu0->cpu0_STLB PREFETCH     ACCESS:          0 HIT:          0 MISS:          0 MSHR_MERGE:          0
cpu0->cpu0_STLB WRITE        ACCESS:          0 HIT:          0 MISS:          0 MSHR_MERGE:          0
cpu0->cpu0_STLB TRANSLATION  ACCESS:          0 HIT:          0 MISS:          0 MSHR_MERGE:          0
cpu0->cpu0_STLB PREFETCH REQUESTED:          0 ISSUED:          0 USEFUL:          0 USELESS:          0 LATE:          0
cpu0->cpu0_STLB AVERAGE MISS LATENCY: 221.1 cycles
cpu0->cpu0_L2C TOTAL        ACCESS:      71084 HIT:      69543 MISS:       1541 MSHR_MERGE:          0
cpu0->cpu0_L2C LOAD         ACCESS:      57462 HIT:      55923 MISS:       1539 MSHR_MERGE:          0
cpu0->cpu0_L2C RFO          ACCESS:       4909 HIT:       4908 MISS:          1 MSHR_MERGE:          0
cpu0->cpu0_L2C PREFETCH     ACCESS:          0 HIT:          0 MISS:          0 MSHR_MERGE:          0
cpu0->cpu0_L2C WRITE        ACCESS:       8695 HIT:       8695 MISS:          0 MSHR_MERGE:          0
cpu0->cpu0_L2C TRANSLATION  ACCESS:         18 HIT:         17 MISS:          1 MSHR_MERGE:          0
cpu0->cpu0_L2C PREFETCH REQUESTED:          0 ISSUED:          0 USEFUL:          0 USELESS:          0 LATE:          0
cpu0->cpu0_L2C AVERAGE MISS LATENCY: 158.2 cycles
cpu0->cpu0_L1I TOTAL        ACCESS:   12550216 HIT:   12546685 MISS:       3531 MSHR_MERGE:       1561
cpu0->cpu0_L1I LOAD         ACCESS:   12550216 HIT:   12546685 MISS:       3531 MSHR_MERGE:       1561
cpu0->cpu0_L1I RFO          ACCESS:          0 HIT:          0 MISS:          0 MSHR_MERGE:          0
cpu0->cpu0_L1I PREFETCH     ACCESS:          0 HIT:          0 MISS:          0 MSHR_MERGE:          0
cpu0->cpu0_L1I WRITE        ACCESS:          0 HIT:          0 MISS:          0 MSHR_MERGE:          0
cpu0->cpu0_L1I TRANSLATION  ACCESS:          0 HIT:          0 MISS:          0 MSHR_MERGE:          0
cpu0->cpu0_L1I PREFETCH REQUESTED:          0 ISSUED:          0 USEFUL:          0 USELESS:          0 LATE:          0
cpu0->cpu0_L1I AVERAGE MISS LATENCY: 20.33 cycles
cpu0->cpu0_L1D TOTAL        ACCESS:   17774823 HIT:   17685953 MISS:      88870 MSHR_MERGE:      28451
cpu0->cpu0_L1D LOAD         ACCESS:   11727040 HIT:   11661571 MISS:      65469 MSHR_MERGE:       9977
cpu0->cpu0_L1D RFO          ACCESS:          0 HIT:          0 MISS:          0 MSHR_MERGE:          0
cpu0->cpu0_L1D PREFETCH     ACCESS:          0 HIT:          0 MISS:          0 MSHR_MERGE:          0
cpu0->cpu0_L1D WRITE        ACCESS:    6047725 HIT:    6024342 MISS:      23383 MSHR_MERGE:      18474
cpu0->cpu0_L1D TRANSLATION  ACCESS:         58 HIT:         40 MISS:         18 MSHR_MERGE:          0
cpu0->cpu0_L1D PREFETCH REQUESTED:          0 ISSUED:          0 USEFUL:          0 USELESS:          0 LATE:          0
cpu0->cpu0_L1D AVERAGE MISS LATENCY: 11.64 cycles
cpu0->cpu0_ITLB TOTAL        ACCESS:   11010483 HIT:   11007853 MISS:       2630 MSHR_MERGE:       1575
cpu0->cpu0_ITLB LOAD         ACCESS:   11010483 HIT:   11007853 MISS:       2630 MSHR_MERGE:       1575
cpu0->cpu0_ITLB RFO          ACCESS:          0 HIT:          0 MISS:          0 MSHR_MERGE:          0
cpu0->cpu0_ITLB PREFETCH     ACCESS:          0 HIT:          0 MISS:          0 MSHR_MERGE:          0
cpu0->cpu0_ITLB WRITE        ACCESS:          0 HIT:          0 MISS:          0 MSHR_MERGE:          0
cpu0->cpu0_ITLB TRANSLATION  ACCESS:          0 HIT:          0 MISS:          0 MSHR_MERGE:          0
cpu0->cpu0_ITLB PREFETCH REQUESTED:          0 ISSUED:          0 USEFUL:          0 USELESS:          0 LATE:          0
cpu0->cpu0_ITLB AVERAGE MISS LATENCY: 5.817 cycles
cpu0->cpu0_DTLB TOTAL        ACCESS:   16377652 HIT:   16372170 MISS:       5482 MSHR_MERGE:       1093
cpu0->cpu0_DTLB LOAD         ACCESS:   16377652 HIT:   16372170 MISS:       5482 MSHR_MERGE:       1093
cpu0->cpu0_DTLB RFO          ACCESS:          0 HIT:          0 MISS:          0 MSHR_MERGE:          0
cpu0->cpu0_DTLB PREFETCH     ACCESS:          0 HIT:          0 MISS:          0 MSHR_MERGE:          0
cpu0->cpu0_DTLB WRITE        ACCESS:          0 HIT:          0 MISS:          0 MSHR_MERGE:          0
cpu0->cpu0_DTLB TRANSLATION  ACCESS:          0 HIT:          0 MISS:          0 MSHR_MERGE:          0
cpu0->cpu0_DTLB PREFETCH REQUESTED:          0 ISSUED:          0 USEFUL:          0 USELESS:          0 LATE:          0
cpu0->cpu0_DTLB AVERAGE MISS LATENCY: 6.271 cycles
cpu0->LLC TOTAL        ACCESS:       1587 HIT:        198 MISS:       1389 MSHR_MERGE:          0
cpu0->LLC LOAD         ACCESS:       1539 HIT:        152 MISS:       1387 MSHR_MERGE:          0
cpu0->LLC RFO          ACCESS:          1 HIT:          0 MISS:          1 MSHR_MERGE:          0
cpu0->LLC PREFETCH     ACCESS:          0 HIT:          0 MISS:          0 MSHR_MERGE:          0
cpu0->LLC WRITE        ACCESS:         46 HIT:         46 MISS:          0 MSHR_MERGE:          0
cpu0->LLC TRANSLATION  ACCESS:          1 HIT:          0 MISS:          1 MSHR_MERGE:          0
cpu0->LLC PREFETCH REQUESTED:          0 ISSUED:          0 USEFUL:          0 USELESS:          0 LATE:          0
cpu0->LLC AVERAGE MISS LATENCY: 157.9 cycles

DRAM Statistics

Channel 0 RQ ROW_BUFFER_HIT:          5
  ROW_BUFFER_MISS:       1384
  AVG DBUS CONGESTED CYCLE: 2.905
Channel 0 WQ ROW_BUFFER_HIT:          0
  ROW_BUFFER_MISS:          0
  FULL:          0
Channel 0 REFRESHES ISSUED:       2517

[ROI Statistics]
[System Configuration]
num_cpus 1
cpu_freq 4000
fetch_width 6
decode_width 6
dispatch_width 6
execute_width 6
lq_width 2
sq_width 2
retire_width 6
scheduler_size 128
branch_mispredict_penalty 15
rob_size 352
lq_size 128
sq_size 72
ifetch_buffer_size 64
decode_buffer_size 32
dispatch_buffer_size 32
register_file_size 288
decode_latency 1
dispatch_latency 1
schedule_latency 1
execute_latency 1
page_size 4096
block_size 64
core_0_itlb_set 16
core_0_itlb_way 4
core_0_itlb_rq_size 16
core_0_itlb_wq_size 16
core_0_itlb_pq_size 0
core_0_itlb_mshr_size 8
core_0_itlb_hit_latency 1
core_0_itlb_fill_latency 1
core_0_itlb_max_tag_check 2
core_0_itlb_max_fill 2
core_0_dtlb_set 16
core_0_dtlb_way 4
core_0_dtlb_rq_size 16
core_0_dtlb_wq_size 16
core_0_dtlb_pq_size 0
core_0_dtlb_mshr_size 8
core_0_dtlb_hit_latency 1
core_0_dtlb_fill_latency 1
core_0_dtlb_max_tag_check 2
core_0_dtlb_max_fill 2
core_0_stlb_set 128
core_0_stlb_way 12
core_0_stlb_rq_size 32
core_0_stlb_wq_size 32
core_0_stlb_pq_size 0
core_0_stlb_mshr_size 16
core_0_stlb_hit_latency 4
core_0_stlb_fill_latency 4
core_0_stlb_max_tag_check 1
core_0_stlb_max_fill 1
core_0_l1i_set 64
core_0_l1i_way 8
core_0_l1i_rq_size 64
core_0_l1i_wq_size 64
core_0_l1i_pq_size 32
core_0_l1i_mshr_size 8
core_0_l1i_hit_latency 2
core_0_l1i_fill_latency 2
core_0_l1i_max_tag_check 2
core_0_l1i_max_fill 2
core_0_l1d_set 64
core_0_l1d_way 12
core_0_l1d_rq_size 64
core_0_l1d_wq_size 64
core_0_l1d_pq_size 8
core_0_l1d_mshr_size 16
core_0_l1d_hit_latency 2
core_0_l1d_fill_latency 3
core_0_l1d_max_tag_check 2
core_0_l1d_max_fill 2
core_0_l2c_set 1024
core_0_l2c_way 8
core_0_l2c_rq_size 32
core_0_l2c_wq_size 32
core_0_l2c_pq_size 16
core_0_l2c_mshr_size 32
core_0_l2c_hit_latency 5
core_0_l2c_fill_latency 5
core_0_l2c_max_tag_check 1
core_0_l2c_max_fill 1
llc_set 2048
llc_way 16
llc_rq_size 32
llc_wq_size 32
llc_pq_size 32
llc_mshr_size 64
llc_hit_latency 10
llc_fill_latency 10
llc_max_tag_check 1
llc_max_fill 1
dram_channels 1
dram_ranks 1
dram_bankgroups 8
dram_banks 4
dram_rows 65536
dram_columns 1024
dram_channel_width 8
dram_rq_size 64
dram_wq_size 64
dram_size 17179869184
core_0_itlb_prefetcher no
core_0_dtlb_prefetcher no
core_0_stlb_prefetcher no
core_0_l1i_prefetcher no
core_0_l1d_prefetcher no
core_0_l2c_prefetcher no
llc_prefetcher no
llc_replacement drrip

Core_0_instructions 50000001
Core_0_cycles 30200388
Core_0_IPC 1.65561
Core_0_branch_prediction_accuracy 99.4899
Core_0_branch_MPKI 0.49226
Core_0_average_ROB_occupancy_at_mispredict 112.153

Core_0_ITLB_total_access 11010483
Core_0_ITLB_total_hit 11007853
Core_0_ITLB_total_miss 2630
Core_0_ITLB_total_MPKI 0.0526
Core_0_ITLB_total_miss_rate 0.000238863
Core_0_ITLB_demand_access 11010483
Core_0_ITLB_demand_hit 11007853
Core_0_ITLB_demand_miss 2630
Core_0_ITLB_demand_MPKI 0.0526
Core_0_ITLB_demand_miss_rate 0.000238863
Core_0_ITLB_load_access 11010483
Core_0_ITLB_load_hit 11007853
Core_0_ITLB_load_miss 2630
Core_0_ITLB_load_MPKI 0.0526
Core_0_ITLB_load_miss_rate 0.000238863
Core_0_ITLB_rfo_access 0
Core_0_ITLB_rfo_hit 0
Core_0_ITLB_rfo_miss 0
Core_0_ITLB_rfo_MPKI 0
Core_0_ITLB_rfo_miss_rate 0
Core_0_ITLB_prefetch_access 0
Core_0_ITLB_prefetch_hit 0
Core_0_ITLB_prefetch_miss 0
Core_0_ITLB_prefetch_MPKI 0
Core_0_ITLB_prefetch_miss_rate 0
Core_0_ITLB_writeback_access 0
Core_0_ITLB_writeback_hit 0
Core_0_ITLB_writeback_miss 0
Core_0_ITLB_writeback_MPKI 0
Core_0_ITLB_writeback_miss_rate 0
Core_0_ITLB_prefetch_requested 0
Core_0_ITLB_prefetch_issued 0
Core_0_ITLB_prefetch_useful 0
Core_0_ITLB_prefetch_useless 0
Core_0_ITLB_prefetch_late 0
Core_0_ITLB_prefetch_accuracy 0
Core_0_ITLB_prefetch_coverage 0

Core_0_DTLB_total_access 16377652
Core_0_DTLB_total_hit 16372170
Core_0_DTLB_total_miss 5482
Core_0_DTLB_total_MPKI 0.10964
Core_0_DTLB_total_miss_rate 0.000334724
Core_0_DTLB_demand_access 16377652
Core_0_DTLB_demand_hit 16372170
Core_0_DTLB_demand_miss 5482
Core_0_DTLB_demand_MPKI 0.10964
Core_0_DTLB_demand_miss_rate 0.000334724
Core_0_DTLB_load_access 16377652
Core_0_DTLB_load_hit 16372170
Core_0_DTLB_load_miss 5482
Core_0_DTLB_load_MPKI 0.10964
Core_0_DTLB_load_miss_rate 0.000334724
Core_0_DTLB_rfo_access 0
Core_0_DTLB_rfo_hit 0
Core_0_DTLB_rfo_miss 0
Core_0_DTLB_rfo_MPKI 0
Core_0_DTLB_rfo_miss_rate 0
Core_0_DTLB_prefetch_access 0
Core_0_DTLB_prefetch_hit 0
Core_0_DTLB_prefetch_miss 0
Core_0_DTLB_prefetch_MPKI 0
Core_0_DTLB_prefetch_miss_rate 0
Core_0_DTLB_writeback_access 0
Core_0_DTLB_writeback_hit 0
Core_0_DTLB_writeback_miss 0
Core_0_DTLB_writeback_MPKI 0
Core_0_DTLB_writeback_miss_rate 0
Core_0_DTLB_prefetch_requested 0
Core_0_DTLB_prefetch_issued 0
Core_0_DTLB_prefetch_useful 0
Core_0_DTLB_prefetch_useless 0
Core_0_DTLB_prefetch_late 0
Core_0_DTLB_prefetch_accuracy 0
Core_0_DTLB_prefetch_coverage 0

Core_0_STLB_total_access 5444
Core_0_STLB_total_hit 5415
Core_0_STLB_total_miss 29
Core_0_STLB_total_MPKI 0.00058
Core_0_STLB_total_miss_rate 0.00532697
Core_0_STLB_demand_access 5444
Core_0_STLB_demand_hit 5415
Core_0_STLB_demand_miss 29
Core_0_STLB_demand_MPKI 0.00058
Core_0_STLB_demand_miss_rate 0.00532697
Core_0_STLB_load_access 5444
Core_0_STLB_load_hit 5415
Core_0_STLB_load_miss 29
Core_0_STLB_load_MPKI 0.00058
Core_0_STLB_load_miss_rate 0.00532697
Core_0_STLB_rfo_access 0
Core_0_STLB_rfo_hit 0
Core_0_STLB_rfo_miss 0
Core_0_STLB_rfo_MPKI 0
Core_0_STLB_rfo_miss_rate 0
Core_0_STLB_prefetch_access 0
Core_0_STLB_prefetch_hit 0
Core_0_STLB_prefetch_miss 0
Core_0_STLB_prefetch_MPKI 0
Core_0_STLB_prefetch_miss_rate 0
Core_0_STLB_writeback_access 0
Core_0_STLB_writeback_hit 0
Core_0_STLB_writeback_miss 0
Core_0_STLB_writeback_MPKI 0
Core_0_STLB_writeback_miss_rate 0
Core_0_STLB_prefetch_requested 0
Core_0_STLB_prefetch_issued 0
Core_0_STLB_prefetch_useful 0
Core_0_STLB_prefetch_useless 0
Core_0_STLB_prefetch_late 0
Core_0_STLB_prefetch_accuracy 0
Core_0_STLB_prefetch_coverage 0

Core_0_L1I_total_access 12550216
Core_0_L1I_total_hit 12546685
Core_0_L1I_total_miss 3531
Core_0_L1I_total_MPKI 0.07062
Core_0_L1I_total_miss_rate 0.00028135
Core_0_L1I_demand_access 12550216
Core_0_L1I_demand_hit 12546685
Core_0_L1I_demand_miss 3531
Core_0_L1I_demand_MPKI 0.07062
Core_0_L1I_demand_miss_rate 0.00028135
Core_0_L1I_load_access 12550216
Core_0_L1I_load_hit 12546685
Core_0_L1I_load_miss 3531
Core_0_L1I_load_MPKI 0.07062
Core_0_L1I_load_miss_rate 0.00028135
Core_0_L1I_rfo_access 0
Core_0_L1I_rfo_hit 0
Core_0_L1I_rfo_miss 0
Core_0_L1I_rfo_MPKI 0
Core_0_L1I_rfo_miss_rate 0
Core_0_L1I_prefetch_access 0
Core_0_L1I_prefetch_hit 0
Core_0_L1I_prefetch_miss 0
Core_0_L1I_prefetch_MPKI 0
Core_0_L1I_prefetch_miss_rate 0
Core_0_L1I_writeback_access 0
Core_0_L1I_writeback_hit 0
Core_0_L1I_writeback_miss 0
Core_0_L1I_writeback_MPKI 0
Core_0_L1I_writeback_miss_rate 0
Core_0_L1I_prefetch_requested 0
Core_0_L1I_prefetch_issued 0
Core_0_L1I_prefetch_useful 0
Core_0_L1I_prefetch_useless 0
Core_0_L1I_prefetch_late 0
Core_0_L1I_prefetch_accuracy 0
Core_0_L1I_prefetch_coverage 0

Core_0_L1D_total_access 17774765
Core_0_L1D_total_hit 17685913
Core_0_L1D_total_miss 88852
Core_0_L1D_total_MPKI 1.77704
Core_0_L1D_total_miss_rate 0.00499877
Core_0_L1D_demand_access 11727040
Core_0_L1D_demand_hit 11661571
Core_0_L1D_demand_miss 65469
Core_0_L1D_demand_MPKI 1.30938
Core_0_L1D_demand_miss_rate 0.00558274
Core_0_L1D_load_access 11727040
Core_0_L1D_load_hit 11661571
Core_0_L1D_load_miss 65469
Core_0_L1D_load_MPKI 1.30938
Core_0_L1D_load_miss_rate 0.00558274
Core_0_L1D_rfo_access 0
Core_0_L1D_rfo_hit 0
Core_0_L1D_rfo_miss 0
Core_0_L1D_rfo_MPKI 0
Core_0_L1D_rfo_miss_rate 0
Core_0_L1D_prefetch_access 0
Core_0_L1D_prefetch_hit 0
Core_0_L1D_prefetch_miss 0
Core_0_L1D_prefetch_MPKI 0
Core_0_L1D_prefetch_miss_rate 0
Core_0_L1D_writeback_access 6047725
Core_0_L1D_writeback_hit 6024342
Core_0_L1D_writeback_miss 23383
Core_0_L1D_writeback_MPKI 0.46766
Core_0_L1D_writeback_miss_rate 0.00386641
Core_0_L1D_prefetch_requested 0
Core_0_L1D_prefetch_issued 0
Core_0_L1D_prefetch_useful 0
Core_0_L1D_prefetch_useless 0
Core_0_L1D_prefetch_late 0
Core_0_L1D_prefetch_accuracy 0
Core_0_L1D_prefetch_coverage 0

Core_0_L2C_total_access 71066
Core_0_L2C_total_hit 69526
Core_0_L2C_total_miss 1540
Core_0_L2C_total_MPKI 0.0308
Core_0_L2C_total_miss_rate 0.02167
Core_0_L2C_demand_access 62371
Core_0_L2C_demand_hit 60831
Core_0_L2C_demand_miss 1540
Core_0_L2C_demand_MPKI 0.0308
Core_0_L2C_demand_miss_rate 0.024691
Core_0_L2C_load_access 57462
Core_0_L2C_load_hit 55923
Core_0_L2C_load_miss 1539
Core_0_L2C_load_MPKI 0.03078
Core_0_L2C_load_miss_rate 0.0267829
Core_0_L2C_rfo_access 4909
Core_0_L2C_rfo_hit 4908
Core_0_L2C_rfo_miss 1
Core_0_L2C_rfo_MPKI 2e-05
Core_0_L2C_rfo_miss_rate 0.000203707
Core_0_L2C_prefetch_access 0
Core_0_L2C_prefetch_hit 0
Core_0_L2C_prefetch_miss 0
Core_0_L2C_prefetch_MPKI 0
Core_0_L2C_prefetch_miss_rate 0
Core_0_L2C_writeback_access 8695
Core_0_L2C_writeback_hit 8695
Core_0_L2C_writeback_miss 0
Core_0_L2C_writeback_MPKI 0
Core_0_L2C_writeback_miss_rate 0
Core_0_L2C_prefetch_requested 0
Core_0_L2C_prefetch_issued 0
Core_0_L2C_prefetch_useful 0
Core_0_L2C_prefetch_useless 0
Core_0_L2C_prefetch_late 0
Core_0_L2C_prefetch_accuracy 0
Core_0_L2C_prefetch_coverage 0

Core_0_LLC_total_access 1586
Core_0_LLC_total_hit 198
Core_0_LLC_total_miss 1388
Core_0_LLC_total_MPKI 0.02776
Core_0_LLC_total_miss_rate 0.875158
Core_0_LLC_demand_access 1540
Core_0_LLC_demand_hit 152
Core_0_LLC_demand_miss 1388
Core_0_LLC_demand_MPKI 0.02776
Core_0_LLC_demand_miss_rate 0.901299
Core_0_LLC_load_access 1539
Core_0_LLC_load_hit 152
Core_0_LLC_load_miss 1387
Core_0_LLC_load_MPKI 0.02774
Core_0_LLC_load_miss_rate 0.901235
Core_0_LLC_rfo_access 1
Core_0_LLC_rfo_hit 0
Core_0_LLC_rfo_miss 1
Core_0_LLC_rfo_MPKI 2e-05
Core_0_LLC_rfo_miss_rate 1
Core_0_LLC_prefetch_access 0
Core_0_LLC_prefetch_hit 0
Core_0_LLC_prefetch_miss 0
Core_0_LLC_prefetch_MPKI 0
Core_0_LLC_prefetch_miss_rate 0
Core_0_LLC_writeback_access 46
Core_0_LLC_writeback_hit 46
Core_0_LLC_writeback_miss 0
Core_0_LLC_writeback_MPKI 0
Core_0_LLC_writeback_miss_rate 0
Core_0_LLC_prefetch_requested 0
Core_0_LLC_prefetch_issued 0
Core_0_LLC_prefetch_useful 0
Core_0_LLC_prefetch_useless 0
Core_0_LLC_prefetch_late 0
Core_0_LLC_prefetch_accuracy 0
Core_0_LLC_prefetch_coverage 0

[DRAM Statistics]
Channel_0_RQ_row_buffer_hit 5
Channel_0_RQ_row_buffer_miss 1384
Channel_0_WQ_row_buffer_hit 0
Channel_0_WQ_row_buffer_miss 0
Channel_0_WQ_full 0
Channel_0_dbus_congested 294
DRAM_total_RQ_row_buffer_hit 5
DRAM_total_RQ_row_buffer_miss 1384
DRAM_total_WQ_row_buffer_hit 0
DRAM_total_WQ_row_buffer_miss 0
DRAM_total_WQ_full 0
DRAM_total_dbus_congested 294
DRAM_avg_congested_cycle 2.90476

======STLB miss causes ========
Core_0_STLB_miss_cause_breakdown
Core_0_STLB_cause_Demand_Data_miss 25
Core_0_STLB_cause_Demand_Data_miss_rate 0.00459221
Core_0_STLB_cause_Demand_Instruction_miss 4
Core_0_STLB_cause_Demand_Instruction_miss_rate 0.000734754
Core_0_STLB_cause_L1D_Prefetch_miss 0
Core_0_STLB_cause_L1D_Prefetch_miss_rate 0
Core_0_STLB_cause_L1I_Prefetch_miss 0
Core_0_STLB_cause_L1I_Prefetch_miss_rate 0
Core_0_STLB_cause_Other_miss 0
Core_0_STLB_cause_Other_miss_rate 0
Core_0_STLB_Demand_miss 29
Core_0_STLB_Demand_miss_rate 0.00532697
Core_0_STLB_L1D_Prefetch_miss 0
Core_0_STLB_L1D_Prefetch_miss_rate 0
Core_0_STLB_Other_miss 0
Core_0_STLB_Other_miss_rate 0
