[VMEM] WARNING: physical memory size is smaller than virtual memory size.

*** ChampSim Multicore Out-of-Order Simulator ***
Warmup Instructions: 20000000
Simulation Instructions: 50000000
Number of CPUs: 1
Page size: 4096
Core 0: /data0/tzh/champsim_traces/SPEC06/483.xalancbmk-127B.champsimtrace.xz
Off-chip DRAM Size: 16 GiB Channels: 1 Width: 64-bit Data Rate: 3205 MT/s
Warmup halting CPU 0 at instruction 20000005 cycle 5742153 for remainder of phase
Warmup finished CPU 0 instructions: 20000005 cycles: 5742153 cumulative IPC: 3.483 (Simulation time: 00 hr 00 min 58 sec)
Warmup complete CPU 0 instructions: 20000005 cycles: 5742153 cumulative IPC: 3.483 (Simulation time: 00 hr 00 min 58 sec)
Simulation finished CPU 0 instructions: 50000001 cycles: 185504904 cumulative IPC: 0.2695 (Simulation time: 00 hr 16 min 29 sec)
Simulation complete CPU 0 instructions: 50000001 cycles: 185504904 cumulative IPC: 0.2695 (Simulation time: 00 hr 16 min 29 sec)

ChampSim completed all CPUs

=== Simulation ===
CPU 0 runs /data0/tzh/champsim_traces/SPEC06/483.xalancbmk-127B.champsimtrace.xz

Region of Interest Statistics

CPU 0 cumulative IPC: 0.2695 instructions: 50000001 cycles: 185504904
CPU 0 Branch Prediction Accuracy: 96.57% MPKI: 9.838 Average ROB Occupancy at Mispredict: 68.99
Branch type MPKI
BRANCH_DIRECT_JUMP: 3.996
BRANCH_INDIRECT: 0.00504
BRANCH_CONDITIONAL: 5.754
BRANCH_DIRECT_CALL: 0.0006
BRANCH_INDIRECT_CALL: 0.02282
BRANCH_RETURN: 0.05944

cpu0->cpu0_STLB TOTAL        ACCESS:     207169 HIT:      29959 MISS:     177210 MSHR_MERGE:          0
cpu0->cpu0_STLB LOAD         ACCESS:     207169 HIT:      29959 MISS:     177210 MSHR_MERGE:          0
cpu0->cpu0_STLB RFO          ACCESS:          0 HIT:          0 MISS:          0 MSHR_MERGE:          0
cpu0->cpu0_STLB PREFETCH     ACCESS:          0 HIT:          0 MISS:          0 MSHR_MERGE:          0
cpu0->cpu0_STLB WRITE        ACCESS:          0 HIT:          0 MISS:          0 MSHR_MERGE:          0
cpu0->cpu0_STLB TRANSLATION  ACCESS:          0 HIT:          0 MISS:          0 MSHR_MERGE:          0
cpu0->cpu0_STLB PREFETCH REQUESTED:          0 ISSUED:          0 USEFUL:          0 USELESS:          0 LATE:          0
cpu0->cpu0_STLB AVERAGE MISS LATENCY: 87.41 cycles
cpu0->cpu0_L2C TOTAL        ACCESS:    1538392 HIT:      69625 MISS:    1468767 MSHR_MERGE:          0
cpu0->cpu0_L2C LOAD         ACCESS:    1442832 HIT:      43686 MISS:    1399146 MSHR_MERGE:          0
cpu0->cpu0_L2C RFO          ACCESS:       8358 HIT:       2041 MISS:       6317 MSHR_MERGE:          0
cpu0->cpu0_L2C PREFETCH     ACCESS:          0 HIT:          0 MISS:          0 MSHR_MERGE:          0
cpu0->cpu0_L2C WRITE        ACCESS:      17541 HIT:      17374 MISS:        167 MSHR_MERGE:          0
cpu0->cpu0_L2C TRANSLATION  ACCESS:      69661 HIT:       6524 MISS:      63137 MSHR_MERGE:          0
cpu0->cpu0_L2C PREFETCH REQUESTED:          0 ISSUED:          0 USEFUL:          0 USELESS:          0 LATE:          0
cpu0->cpu0_L2C AVERAGE MISS LATENCY: 180.8 cycles
cpu0->cpu0_L1I TOTAL        ACCESS:     466026 HIT:     381774 MISS:      84252 MSHR_MERGE:      28972
cpu0->cpu0_L1I LOAD         ACCESS:     466026 HIT:     381774 MISS:      84252 MSHR_MERGE:      28972
cpu0->cpu0_L1I RFO          ACCESS:          0 HIT:          0 MISS:          0 MSHR_MERGE:          0
cpu0->cpu0_L1I PREFETCH     ACCESS:          0 HIT:          0 MISS:          0 MSHR_MERGE:          0
cpu0->cpu0_L1I WRITE        ACCESS:          0 HIT:          0 MISS:          0 MSHR_MERGE:          0
cpu0->cpu0_L1I TRANSLATION  ACCESS:          0 HIT:          0 MISS:          0 MSHR_MERGE:          0
cpu0->cpu0_L1I PREFETCH REQUESTED:          0 ISSUED:          0 USEFUL:          0 USELESS:          0 LATE:          0
cpu0->cpu0_L1I AVERAGE MISS LATENCY: 90.59 cycles
cpu0->cpu0_L1D TOTAL        ACCESS:   14505627 HIT:   11180774 MISS:    3324853 MSHR_MERGE:    1859282
cpu0->cpu0_L1D LOAD         ACCESS:   12526703 HIT:    9339370 MISS:    3187333 MSHR_MERGE:    1799781
cpu0->cpu0_L1D RFO          ACCESS:          0 HIT:          0 MISS:          0 MSHR_MERGE:          0
cpu0->cpu0_L1D PREFETCH     ACCESS:          0 HIT:          0 MISS:          0 MSHR_MERGE:          0
cpu0->cpu0_L1D WRITE        ACCESS:    1623111 HIT:    1558310 MISS:      64801 MSHR_MERGE:      56443
cpu0->cpu0_L1D TRANSLATION  ACCESS:     355813 HIT:     283094 MISS:      72719 MSHR_MERGE:       3058
cpu0->cpu0_L1D PREFETCH REQUESTED:          0 ISSUED:          0 USEFUL:          0 USELESS:          0 LATE:          0
cpu0->cpu0_L1D AVERAGE MISS LATENCY: 187.1 cycles
cpu0->cpu0_ITLB TOTAL        ACCESS:     404949 HIT:     379119 MISS:      25830 MSHR_MERGE:      15507
cpu0->cpu0_ITLB LOAD         ACCESS:     404949 HIT:     379119 MISS:      25830 MSHR_MERGE:      15507
cpu0->cpu0_ITLB RFO          ACCESS:          0 HIT:          0 MISS:          0 MSHR_MERGE:          0
cpu0->cpu0_ITLB PREFETCH     ACCESS:          0 HIT:          0 MISS:          0 MSHR_MERGE:          0
cpu0->cpu0_ITLB WRITE        ACCESS:          0 HIT:          0 MISS:          0 MSHR_MERGE:          0
cpu0->cpu0_ITLB TRANSLATION  ACCESS:          0 HIT:          0 MISS:          0 MSHR_MERGE:          0
cpu0->cpu0_ITLB PREFETCH REQUESTED:          0 ISSUED:          0 USEFUL:          0 USELESS:          0 LATE:          0
cpu0->cpu0_ITLB AVERAGE MISS LATENCY: 26.54 cycles
cpu0->cpu0_DTLB TOTAL        ACCESS:   13799634 HIT:   13347186 MISS:     452448 MSHR_MERGE:     255602
cpu0->cpu0_DTLB LOAD         ACCESS:   13799634 HIT:   13347186 MISS:     452448 MSHR_MERGE:     255602
cpu0->cpu0_DTLB RFO          ACCESS:          0 HIT:          0 MISS:          0 MSHR_MERGE:          0
cpu0->cpu0_DTLB PREFETCH     ACCESS:          0 HIT:          0 MISS:          0 MSHR_MERGE:          0
cpu0->cpu0_DTLB WRITE        ACCESS:          0 HIT:          0 MISS:          0 MSHR_MERGE:          0
cpu0->cpu0_DTLB TRANSLATION  ACCESS:          0 HIT:          0 MISS:          0 MSHR_MERGE:          0
cpu0->cpu0_DTLB PREFETCH REQUESTED:          0 ISSUED:          0 USEFUL:          0 USELESS:          0 LATE:          0
cpu0->cpu0_DTLB AVERAGE MISS LATENCY: 83.46 cycles
cpu0->LLC TOTAL        ACCESS:    1479956 HIT:     190208 MISS:    1289748 MSHR_MERGE:          0
cpu0->LLC LOAD         ACCESS:    1399146 HIT:     166117 MISS:    1233029 MSHR_MERGE:          0
cpu0->LLC RFO          ACCESS:       6317 HIT:       1249 MISS:       5068 MSHR_MERGE:          0
cpu0->LLC PREFETCH     ACCESS:          0 HIT:          0 MISS:          0 MSHR_MERGE:          0
cpu0->LLC WRITE        ACCESS:      11356 HIT:       6055 MISS:       5301 MSHR_MERGE:          0
cpu0->LLC TRANSLATION  ACCESS:      63137 HIT:      16787 MISS:      46350 MSHR_MERGE:          0
cpu0->LLC PREFETCH REQUESTED:          0 ISSUED:          0 USEFUL:          0 USELESS:          0 LATE:          0
cpu0->LLC AVERAGE MISS LATENCY: 187.8 cycles

DRAM Statistics

Channel 0 RQ ROW_BUFFER_HIT:      46091
  ROW_BUFFER_MISS:    1238349
  AVG DBUS CONGESTED CYCLE: 5.469
Channel 0 WQ ROW_BUFFER_HIT:       3296
  ROW_BUFFER_MISS:       3853
  FULL:          0
Channel 0 REFRESHES ISSUED:      15459

[ROI Statistics]
[System Configuration]
num_cpus 1
cpu_freq 4000
fetch_width 6
decode_width 6
dispatch_width 6
execute_width 6
lq_width 2
sq_width 2
retire_width 6
scheduler_size 128
branch_mispredict_penalty 15
rob_size 352
lq_size 128
sq_size 72
ifetch_buffer_size 64
decode_buffer_size 32
dispatch_buffer_size 32
register_file_size 288
decode_latency 1
dispatch_latency 1
schedule_latency 1
execute_latency 1
page_size 4096
block_size 64
core_0_itlb_set 16
core_0_itlb_way 4
core_0_itlb_rq_size 16
core_0_itlb_wq_size 16
core_0_itlb_pq_size 0
core_0_itlb_mshr_size 8
core_0_itlb_hit_latency 1
core_0_itlb_fill_latency 1
core_0_itlb_max_tag_check 2
core_0_itlb_max_fill 2
core_0_dtlb_set 16
core_0_dtlb_way 4
core_0_dtlb_rq_size 16
core_0_dtlb_wq_size 16
core_0_dtlb_pq_size 0
core_0_dtlb_mshr_size 8
core_0_dtlb_hit_latency 1
core_0_dtlb_fill_latency 1
core_0_dtlb_max_tag_check 2
core_0_dtlb_max_fill 2
core_0_stlb_set 128
core_0_stlb_way 12
core_0_stlb_rq_size 32
core_0_stlb_wq_size 32
core_0_stlb_pq_size 0
core_0_stlb_mshr_size 16
core_0_stlb_hit_latency 4
core_0_stlb_fill_latency 4
core_0_stlb_max_tag_check 1
core_0_stlb_max_fill 1
core_0_l1i_set 64
core_0_l1i_way 8
core_0_l1i_rq_size 64
core_0_l1i_wq_size 64
core_0_l1i_pq_size 32
core_0_l1i_mshr_size 8
core_0_l1i_hit_latency 2
core_0_l1i_fill_latency 2
core_0_l1i_max_tag_check 2
core_0_l1i_max_fill 2
core_0_l1d_set 64
core_0_l1d_way 12
core_0_l1d_rq_size 64
core_0_l1d_wq_size 64
core_0_l1d_pq_size 8
core_0_l1d_mshr_size 16
core_0_l1d_hit_latency 2
core_0_l1d_fill_latency 3
core_0_l1d_max_tag_check 2
core_0_l1d_max_fill 2
core_0_l2c_set 1024
core_0_l2c_way 8
core_0_l2c_rq_size 32
core_0_l2c_wq_size 32
core_0_l2c_pq_size 16
core_0_l2c_mshr_size 32
core_0_l2c_hit_latency 5
core_0_l2c_fill_latency 5
core_0_l2c_max_tag_check 1
core_0_l2c_max_fill 1
llc_set 2048
llc_way 16
llc_rq_size 32
llc_wq_size 32
llc_pq_size 32
llc_mshr_size 64
llc_hit_latency 10
llc_fill_latency 10
llc_max_tag_check 1
llc_max_fill 1
dram_channels 1
dram_ranks 1
dram_bankgroups 8
dram_banks 4
dram_rows 65536
dram_columns 1024
dram_channel_width 8
dram_rq_size 64
dram_wq_size 64
dram_size 17179869184
core_0_itlb_prefetcher no
core_0_dtlb_prefetcher no
core_0_stlb_prefetcher no
core_0_l1i_prefetcher no
core_0_l1d_prefetcher no
core_0_l2c_prefetcher no
llc_prefetcher no
llc_replacement drrip

Core_0_instructions 50000001
Core_0_cycles 185504904
Core_0_IPC 0.269535
Core_0_branch_prediction_accuracy 96.5705
Core_0_branch_MPKI 9.83816
Core_0_average_ROB_occupancy_at_mispredict 68.9938

Core_0_ITLB_total_access 404949
Core_0_ITLB_total_hit 379119
Core_0_ITLB_total_miss 25830
Core_0_ITLB_total_MPKI 0.5166
Core_0_ITLB_total_miss_rate 0.0637858
Core_0_ITLB_demand_access 404949
Core_0_ITLB_demand_hit 379119
Core_0_ITLB_demand_miss 25830
Core_0_ITLB_demand_MPKI 0.5166
Core_0_ITLB_demand_miss_rate 0.0637858
Core_0_ITLB_load_access 404949
Core_0_ITLB_load_hit 379119
Core_0_ITLB_load_miss 25830
Core_0_ITLB_load_MPKI 0.5166
Core_0_ITLB_load_miss_rate 0.0637858
Core_0_ITLB_rfo_access 0
Core_0_ITLB_rfo_hit 0
Core_0_ITLB_rfo_miss 0
Core_0_ITLB_rfo_MPKI 0
Core_0_ITLB_rfo_miss_rate 0
Core_0_ITLB_prefetch_access 0
Core_0_ITLB_prefetch_hit 0
Core_0_ITLB_prefetch_miss 0
Core_0_ITLB_prefetch_MPKI 0
Core_0_ITLB_prefetch_miss_rate 0
Core_0_ITLB_writeback_access 0
Core_0_ITLB_writeback_hit 0
Core_0_ITLB_writeback_miss 0
Core_0_ITLB_writeback_MPKI 0
Core_0_ITLB_writeback_miss_rate 0
Core_0_ITLB_prefetch_requested 0
Core_0_ITLB_prefetch_issued 0
Core_0_ITLB_prefetch_useful 0
Core_0_ITLB_prefetch_useless 0
Core_0_ITLB_prefetch_late 0
Core_0_ITLB_prefetch_accuracy 0
Core_0_ITLB_prefetch_coverage 0

Core_0_DTLB_total_access 13799634
Core_0_DTLB_total_hit 13347186
Core_0_DTLB_total_miss 452448
Core_0_DTLB_total_MPKI 9.04896
Core_0_DTLB_total_miss_rate 0.032787
Core_0_DTLB_demand_access 13799634
Core_0_DTLB_demand_hit 13347186
Core_0_DTLB_demand_miss 452448
Core_0_DTLB_demand_MPKI 9.04896
Core_0_DTLB_demand_miss_rate 0.032787
Core_0_DTLB_load_access 13799634
Core_0_DTLB_load_hit 13347186
Core_0_DTLB_load_miss 452448
Core_0_DTLB_load_MPKI 9.04896
Core_0_DTLB_load_miss_rate 0.032787
Core_0_DTLB_rfo_access 0
Core_0_DTLB_rfo_hit 0
Core_0_DTLB_rfo_miss 0
Core_0_DTLB_rfo_MPKI 0
Core_0_DTLB_rfo_miss_rate 0
Core_0_DTLB_prefetch_access 0
Core_0_DTLB_prefetch_hit 0
Core_0_DTLB_prefetch_miss 0
Core_0_DTLB_prefetch_MPKI 0
Core_0_DTLB_prefetch_miss_rate 0
Core_0_DTLB_writeback_access 0
Core_0_DTLB_writeback_hit 0
Core_0_DTLB_writeback_miss 0
Core_0_DTLB_writeback_MPKI 0
Core_0_DTLB_writeback_miss_rate 0
Core_0_DTLB_prefetch_requested 0
Core_0_DTLB_prefetch_issued 0
Core_0_DTLB_prefetch_useful 0
Core_0_DTLB_prefetch_useless 0
Core_0_DTLB_prefetch_late 0
Core_0_DTLB_prefetch_accuracy 0
Core_0_DTLB_prefetch_coverage 0

Core_0_STLB_total_access 207169
Core_0_STLB_total_hit 29959
Core_0_STLB_total_miss 177210
Core_0_STLB_total_MPKI 3.5442
Core_0_STLB_total_miss_rate 0.855389
Core_0_STLB_demand_access 207169
Core_0_STLB_demand_hit 29959
Core_0_STLB_demand_miss 177210
Core_0_STLB_demand_MPKI 3.5442
Core_0_STLB_demand_miss_rate 0.855389
Core_0_STLB_load_access 207169
Core_0_STLB_load_hit 29959
Core_0_STLB_load_miss 177210
Core_0_STLB_load_MPKI 3.5442
Core_0_STLB_load_miss_rate 0.855389
Core_0_STLB_rfo_access 0
Core_0_STLB_rfo_hit 0
Core_0_STLB_rfo_miss 0
Core_0_STLB_rfo_MPKI 0
Core_0_STLB_rfo_miss_rate 0
Core_0_STLB_prefetch_access 0
Core_0_STLB_prefetch_hit 0
Core_0_STLB_prefetch_miss 0
Core_0_STLB_prefetch_MPKI 0
Core_0_STLB_prefetch_miss_rate 0
Core_0_STLB_writeback_access 0
Core_0_STLB_writeback_hit 0
Core_0_STLB_writeback_miss 0
Core_0_STLB_writeback_MPKI 0
Core_0_STLB_writeback_miss_rate 0
Core_0_STLB_prefetch_requested 0
Core_0_STLB_prefetch_issued 0
Core_0_STLB_prefetch_useful 0
Core_0_STLB_prefetch_useless 0
Core_0_STLB_prefetch_late 0
Core_0_STLB_prefetch_accuracy 0
Core_0_STLB_prefetch_coverage 0

Core_0_L1I_total_access 466026
Core_0_L1I_total_hit 381774
Core_0_L1I_total_miss 84252
Core_0_L1I_total_MPKI 1.68504
Core_0_L1I_total_miss_rate 0.180788
Core_0_L1I_demand_access 466026
Core_0_L1I_demand_hit 381774
Core_0_L1I_demand_miss 84252
Core_0_L1I_demand_MPKI 1.68504
Core_0_L1I_demand_miss_rate 0.180788
Core_0_L1I_load_access 466026
Core_0_L1I_load_hit 381774
Core_0_L1I_load_miss 84252
Core_0_L1I_load_MPKI 1.68504
Core_0_L1I_load_miss_rate 0.180788
Core_0_L1I_rfo_access 0
Core_0_L1I_rfo_hit 0
Core_0_L1I_rfo_miss 0
Core_0_L1I_rfo_MPKI 0
Core_0_L1I_rfo_miss_rate 0
Core_0_L1I_prefetch_access 0
Core_0_L1I_prefetch_hit 0
Core_0_L1I_prefetch_miss 0
Core_0_L1I_prefetch_MPKI 0
Core_0_L1I_prefetch_miss_rate 0
Core_0_L1I_writeback_access 0
Core_0_L1I_writeback_hit 0
Core_0_L1I_writeback_miss 0
Core_0_L1I_writeback_MPKI 0
Core_0_L1I_writeback_miss_rate 0
Core_0_L1I_prefetch_requested 0
Core_0_L1I_prefetch_issued 0
Core_0_L1I_prefetch_useful 0
Core_0_L1I_prefetch_useless 0
Core_0_L1I_prefetch_late 0
Core_0_L1I_prefetch_accuracy 0
Core_0_L1I_prefetch_coverage 0

Core_0_L1D_total_access 14149814
Core_0_L1D_total_hit 10897680
Core_0_L1D_total_miss 3252134
Core_0_L1D_total_MPKI 65.0427
Core_0_L1D_total_miss_rate 0.229836
Core_0_L1D_demand_access 12526703
Core_0_L1D_demand_hit 9339370
Core_0_L1D_demand_miss 3187333
Core_0_L1D_demand_MPKI 63.7467
Core_0_L1D_demand_miss_rate 0.254443
Core_0_L1D_load_access 12526703
Core_0_L1D_load_hit 9339370
Core_0_L1D_load_miss 3187333
Core_0_L1D_load_MPKI 63.7467
Core_0_L1D_load_miss_rate 0.254443
Core_0_L1D_rfo_access 0
Core_0_L1D_rfo_hit 0
Core_0_L1D_rfo_miss 0
Core_0_L1D_rfo_MPKI 0
Core_0_L1D_rfo_miss_rate 0
Core_0_L1D_prefetch_access 0
Core_0_L1D_prefetch_hit 0
Core_0_L1D_prefetch_miss 0
Core_0_L1D_prefetch_MPKI 0
Core_0_L1D_prefetch_miss_rate 0
Core_0_L1D_writeback_access 1623111
Core_0_L1D_writeback_hit 1558310
Core_0_L1D_writeback_miss 64801
Core_0_L1D_writeback_MPKI 1.29602
Core_0_L1D_writeback_miss_rate 0.0399239
Core_0_L1D_prefetch_requested 0
Core_0_L1D_prefetch_issued 0
Core_0_L1D_prefetch_useful 0
Core_0_L1D_prefetch_useless 0
Core_0_L1D_prefetch_late 0
Core_0_L1D_prefetch_accuracy 0
Core_0_L1D_prefetch_coverage 0

Core_0_L2C_total_access 1468731
Core_0_L2C_total_hit 63101
Core_0_L2C_total_miss 1405630
Core_0_L2C_total_MPKI 28.1126
Core_0_L2C_total_miss_rate 0.957037
Core_0_L2C_demand_access 1451190
Core_0_L2C_demand_hit 45727
Core_0_L2C_demand_miss 1405463
Core_0_L2C_demand_MPKI 28.1093
Core_0_L2C_demand_miss_rate 0.96849
Core_0_L2C_load_access 1442832
Core_0_L2C_load_hit 43686
Core_0_L2C_load_miss 1399146
Core_0_L2C_load_MPKI 27.9829
Core_0_L2C_load_miss_rate 0.969722
Core_0_L2C_rfo_access 8358
Core_0_L2C_rfo_hit 2041
Core_0_L2C_rfo_miss 6317
Core_0_L2C_rfo_MPKI 0.12634
Core_0_L2C_rfo_miss_rate 0.755803
Core_0_L2C_prefetch_access 0
Core_0_L2C_prefetch_hit 0
Core_0_L2C_prefetch_miss 0
Core_0_L2C_prefetch_MPKI 0
Core_0_L2C_prefetch_miss_rate 0
Core_0_L2C_writeback_access 17541
Core_0_L2C_writeback_hit 17374
Core_0_L2C_writeback_miss 167
Core_0_L2C_writeback_MPKI 0.00334
Core_0_L2C_writeback_miss_rate 0.00952055
Core_0_L2C_prefetch_requested 0
Core_0_L2C_prefetch_issued 0
Core_0_L2C_prefetch_useful 0
Core_0_L2C_prefetch_useless 0
Core_0_L2C_prefetch_late 0
Core_0_L2C_prefetch_accuracy 0
Core_0_L2C_prefetch_coverage 0

Core_0_LLC_total_access 1416819
Core_0_LLC_total_hit 173421
Core_0_LLC_total_miss 1243398
Core_0_LLC_total_MPKI 24.868
Core_0_LLC_total_miss_rate 0.877598
Core_0_LLC_demand_access 1405463
Core_0_LLC_demand_hit 167366
Core_0_LLC_demand_miss 1238097
Core_0_LLC_demand_MPKI 24.7619
Core_0_LLC_demand_miss_rate 0.880918
Core_0_LLC_load_access 1399146
Core_0_LLC_load_hit 166117
Core_0_LLC_load_miss 1233029
Core_0_LLC_load_MPKI 24.6606
Core_0_LLC_load_miss_rate 0.881273
Core_0_LLC_rfo_access 6317
Core_0_LLC_rfo_hit 1249
Core_0_LLC_rfo_miss 5068
Core_0_LLC_rfo_MPKI 0.10136
Core_0_LLC_rfo_miss_rate 0.80228
Core_0_LLC_prefetch_access 0
Core_0_LLC_prefetch_hit 0
Core_0_LLC_prefetch_miss 0
Core_0_LLC_prefetch_MPKI 0
Core_0_LLC_prefetch_miss_rate 0
Core_0_LLC_writeback_access 11356
Core_0_LLC_writeback_hit 6055
Core_0_LLC_writeback_miss 5301
Core_0_LLC_writeback_MPKI 0.10602
Core_0_LLC_writeback_miss_rate 0.466802
Core_0_LLC_prefetch_requested 0
Core_0_LLC_prefetch_issued 0
Core_0_LLC_prefetch_useful 0
Core_0_LLC_prefetch_useless 0
Core_0_LLC_prefetch_late 0
Core_0_LLC_prefetch_accuracy 0
Core_0_LLC_prefetch_coverage 0

[DRAM Statistics]
Channel_0_RQ_row_buffer_hit 46091
Channel_0_RQ_row_buffer_miss 1238349
Channel_0_WQ_row_buffer_hit 3296
Channel_0_WQ_row_buffer_miss 3853
Channel_0_WQ_full 0
Channel_0_dbus_congested 1060135
DRAM_total_RQ_row_buffer_hit 46091
DRAM_total_RQ_row_buffer_miss 1238349
DRAM_total_WQ_row_buffer_hit 3296
DRAM_total_WQ_row_buffer_miss 3853
DRAM_total_WQ_full 0
DRAM_total_dbus_congested 1060135
DRAM_avg_congested_cycle 5.4693

======STLB miss causes ========
Core_0_STLB_miss_cause_breakdown
Core_0_STLB_cause_Demand_Data_miss 174404
Core_0_STLB_cause_Demand_Data_miss_rate 0.841844
Core_0_STLB_cause_Demand_Instruction_miss 2806
Core_0_STLB_cause_Demand_Instruction_miss_rate 0.0135445
Core_0_STLB_cause_L1D_Prefetch_miss 0
Core_0_STLB_cause_L1D_Prefetch_miss_rate 0
Core_0_STLB_cause_L1I_Prefetch_miss 0
Core_0_STLB_cause_L1I_Prefetch_miss_rate 0
Core_0_STLB_cause_Other_miss 0
Core_0_STLB_cause_Other_miss_rate 0
Core_0_STLB_Demand_miss 177210
Core_0_STLB_Demand_miss_rate 0.855389
Core_0_STLB_L1D_Prefetch_miss 0
Core_0_STLB_L1D_Prefetch_miss_rate 0
Core_0_STLB_Other_miss 0
Core_0_STLB_Other_miss_rate 0
