[VMEM] WARNING: physical memory size is smaller than virtual memory size.

*** ChampSim Multicore Out-of-Order Simulator ***
Warmup Instructions: 20000000
Simulation Instructions: 50000000
Number of CPUs: 1
Page size: 4096
Core 0: /data0/tzh/champsim_traces/SPEC17/602.gcc_s-1850B.champsimtrace.xz
Off-chip DRAM Size: 16 GiB Channels: 1 Width: 64-bit Data Rate: 3205 MT/s
Warmup halting CPU 0 at instruction 20000005 cycle 5256094 for remainder of phase
Warmup finished CPU 0 instructions: 20000005 cycles: 5256094 cumulative IPC: 3.805 (Simulation time: 00 hr 01 min 01 sec)
Warmup complete CPU 0 instructions: 20000005 cycles: 5256094 cumulative IPC: 3.805 (Simulation time: 00 hr 01 min 01 sec)
Simulation finished CPU 0 instructions: 50000003 cycles: 163823999 cumulative IPC: 0.3052 (Simulation time: 00 hr 21 min 16 sec)
Simulation complete CPU 0 instructions: 50000003 cycles: 163823999 cumulative IPC: 0.3052 (Simulation time: 00 hr 21 min 16 sec)

ChampSim completed all CPUs

=== Simulation ===
CPU 0 runs /data0/tzh/champsim_traces/SPEC17/602.gcc_s-1850B.champsimtrace.xz

Region of Interest Statistics

CPU 0 cumulative IPC: 0.3052 instructions: 50000003 cycles: 163823999
CPU 0 Branch Prediction Accuracy: 99.95% MPKI: 0.124 Average ROB Occupancy at Mispredict: 271.7
Branch type MPKI
BRANCH_DIRECT_JUMP: 0.01052
BRANCH_INDIRECT: 0
BRANCH_CONDITIONAL: 0.1135
BRANCH_DIRECT_CALL: 0
BRANCH_INDIRECT_CALL: 0
BRANCH_RETURN: 0

cpu0->cpu0_STLB TOTAL        ACCESS:      16065 HIT:        888 MISS:      15177 MSHR_MERGE:          0
cpu0->cpu0_STLB LOAD         ACCESS:      16065 HIT:        888 MISS:      15177 MSHR_MERGE:          0
cpu0->cpu0_STLB RFO          ACCESS:          0 HIT:          0 MISS:          0 MSHR_MERGE:          0
cpu0->cpu0_STLB PREFETCH     ACCESS:          0 HIT:          0 MISS:          0 MSHR_MERGE:          0
cpu0->cpu0_STLB WRITE        ACCESS:          0 HIT:          0 MISS:          0 MSHR_MERGE:          0
cpu0->cpu0_STLB TRANSLATION  ACCESS:          0 HIT:          0 MISS:          0 MSHR_MERGE:          0
cpu0->cpu0_STLB PREFETCH REQUESTED:          0 ISSUED:          0 USEFUL:          0 USELESS:          0 LATE:          0
cpu0->cpu0_STLB AVERAGE MISS LATENCY: 248.5 cycles
cpu0->cpu0_L2C TOTAL        ACCESS:    1214979 HIT:     322619 MISS:     892360 MSHR_MERGE:          0
cpu0->cpu0_L2C LOAD         ACCESS:    1204415 HIT:     315233 MISS:     889182 MSHR_MERGE:          0
cpu0->cpu0_L2C RFO          ACCESS:       2160 HIT:       1708 MISS:        452 MSHR_MERGE:          0
cpu0->cpu0_L2C PREFETCH     ACCESS:          0 HIT:          0 MISS:          0 MSHR_MERGE:          0
cpu0->cpu0_L2C WRITE        ACCESS:       4891 HIT:       4890 MISS:          1 MSHR_MERGE:          0
cpu0->cpu0_L2C TRANSLATION  ACCESS:       3513 HIT:        788 MISS:       2725 MSHR_MERGE:          0
cpu0->cpu0_L2C PREFETCH REQUESTED:          0 ISSUED:          0 USEFUL:          0 USELESS:          0 LATE:          0
cpu0->cpu0_L2C AVERAGE MISS LATENCY: 157.3 cycles
cpu0->cpu0_L1I TOTAL        ACCESS:   10507179 HIT:   10507179 MISS:          0 MSHR_MERGE:          0
cpu0->cpu0_L1I LOAD         ACCESS:   10507179 HIT:   10507179 MISS:          0 MSHR_MERGE:          0
cpu0->cpu0_L1I RFO          ACCESS:          0 HIT:          0 MISS:          0 MSHR_MERGE:          0
cpu0->cpu0_L1I PREFETCH     ACCESS:          0 HIT:          0 MISS:          0 MSHR_MERGE:          0
cpu0->cpu0_L1I WRITE        ACCESS:          0 HIT:          0 MISS:          0 MSHR_MERGE:          0
cpu0->cpu0_L1I TRANSLATION  ACCESS:          0 HIT:          0 MISS:          0 MSHR_MERGE:          0
cpu0->cpu0_L1I PREFETCH REQUESTED:          0 ISSUED:          0 USEFUL:          0 USELESS:          0 LATE:          0
cpu0->cpu0_L1I AVERAGE MISS LATENCY: - cycles
cpu0->cpu0_L1D TOTAL        ACCESS:   11862686 HIT:    9106206 MISS:    2756480 MSHR_MERGE:    1546344
cpu0->cpu0_L1D LOAD         ACCESS:    7516523 HIT:    4777701 MISS:    2738822 MSHR_MERGE:    1534407
cpu0->cpu0_L1D RFO          ACCESS:          0 HIT:          0 MISS:          0 MSHR_MERGE:          0
cpu0->cpu0_L1D PREFETCH     ACCESS:          0 HIT:          0 MISS:          0 MSHR_MERGE:          0
cpu0->cpu0_L1D WRITE        ACCESS:    4315656 HIT:    4301515 MISS:      14141 MSHR_MERGE:      11933
cpu0->cpu0_L1D TRANSLATION  ACCESS:      30507 HIT:      26990 MISS:       3517 MSHR_MERGE:          4
cpu0->cpu0_L1D PREFETCH REQUESTED:          0 ISSUED:          0 USEFUL:          0 USELESS:          0 LATE:          0
cpu0->cpu0_L1D AVERAGE MISS LATENCY: 124.7 cycles
cpu0->cpu0_ITLB TOTAL        ACCESS:    9569107 HIT:    9569107 MISS:          0 MSHR_MERGE:          0
cpu0->cpu0_ITLB LOAD         ACCESS:    9569107 HIT:    9569107 MISS:          0 MSHR_MERGE:          0
cpu0->cpu0_ITLB RFO          ACCESS:          0 HIT:          0 MISS:          0 MSHR_MERGE:          0
cpu0->cpu0_ITLB PREFETCH     ACCESS:          0 HIT:          0 MISS:          0 MSHR_MERGE:          0
cpu0->cpu0_ITLB WRITE        ACCESS:          0 HIT:          0 MISS:          0 MSHR_MERGE:          0
cpu0->cpu0_ITLB TRANSLATION  ACCESS:          0 HIT:          0 MISS:          0 MSHR_MERGE:          0
cpu0->cpu0_ITLB PREFETCH REQUESTED:          0 ISSUED:          0 USEFUL:          0 USELESS:          0 LATE:          0
cpu0->cpu0_ITLB AVERAGE MISS LATENCY: - cycles
cpu0->cpu0_DTLB TOTAL        ACCESS:   11275011 HIT:   11232560 MISS:      42451 MSHR_MERGE:      26386
cpu0->cpu0_DTLB LOAD         ACCESS:   11275011 HIT:   11232560 MISS:      42451 MSHR_MERGE:      26386
cpu0->cpu0_DTLB RFO          ACCESS:          0 HIT:          0 MISS:          0 MSHR_MERGE:          0
cpu0->cpu0_DTLB PREFETCH     ACCESS:          0 HIT:          0 MISS:          0 MSHR_MERGE:          0
cpu0->cpu0_DTLB WRITE        ACCESS:          0 HIT:          0 MISS:          0 MSHR_MERGE:          0
cpu0->cpu0_DTLB TRANSLATION  ACCESS:          0 HIT:          0 MISS:          0 MSHR_MERGE:          0
cpu0->cpu0_DTLB PREFETCH REQUESTED:          0 ISSUED:          0 USEFUL:          0 USELESS:          0 LATE:          0
cpu0->cpu0_DTLB AVERAGE MISS LATENCY: 240.7 cycles
cpu0->LLC TOTAL        ACCESS:     893577 HIT:       2572 MISS:     891005 MSHR_MERGE:          0
cpu0->LLC LOAD         ACCESS:     889182 HIT:       1298 MISS:     887884 MSHR_MERGE:          0
cpu0->LLC RFO          ACCESS:        452 HIT:          0 MISS:        452 MSHR_MERGE:          0
cpu0->LLC PREFETCH     ACCESS:          0 HIT:          0 MISS:          0 MSHR_MERGE:          0
cpu0->LLC WRITE        ACCESS:       1218 HIT:       1091 MISS:        127 MSHR_MERGE:          0
cpu0->LLC TRANSLATION  ACCESS:       2725 HIT:        183 MISS:       2542 MSHR_MERGE:          0
cpu0->LLC PREFETCH REQUESTED:          0 ISSUED:          0 USEFUL:          0 USELESS:          0 LATE:          0
cpu0->LLC AVERAGE MISS LATENCY: 141.5 cycles

DRAM Statistics

Channel 0 RQ ROW_BUFFER_HIT:     276456
  ROW_BUFFER_MISS:     614422
  AVG DBUS CONGESTED CYCLE: 25.09
Channel 0 WQ ROW_BUFFER_HIT:        403
  ROW_BUFFER_MISS:        770
  FULL:          0
Channel 0 REFRESHES ISSUED:      13652

[ROI Statistics]
[System Configuration]
num_cpus 1
cpu_freq 4000
fetch_width 6
decode_width 6
dispatch_width 6
execute_width 6
lq_width 2
sq_width 2
retire_width 6
scheduler_size 128
branch_mispredict_penalty 15
rob_size 352
lq_size 128
sq_size 72
ifetch_buffer_size 64
decode_buffer_size 32
dispatch_buffer_size 32
register_file_size 288
decode_latency 1
dispatch_latency 1
schedule_latency 1
execute_latency 1
page_size 4096
block_size 64
core_0_itlb_set 16
core_0_itlb_way 4
core_0_itlb_rq_size 16
core_0_itlb_wq_size 16
core_0_itlb_pq_size 0
core_0_itlb_mshr_size 8
core_0_itlb_hit_latency 1
core_0_itlb_fill_latency 1
core_0_itlb_max_tag_check 2
core_0_itlb_max_fill 2
core_0_dtlb_set 16
core_0_dtlb_way 4
core_0_dtlb_rq_size 16
core_0_dtlb_wq_size 16
core_0_dtlb_pq_size 0
core_0_dtlb_mshr_size 8
core_0_dtlb_hit_latency 1
core_0_dtlb_fill_latency 1
core_0_dtlb_max_tag_check 2
core_0_dtlb_max_fill 2
core_0_stlb_set 128
core_0_stlb_way 12
core_0_stlb_rq_size 32
core_0_stlb_wq_size 32
core_0_stlb_pq_size 0
core_0_stlb_mshr_size 16
core_0_stlb_hit_latency 4
core_0_stlb_fill_latency 4
core_0_stlb_max_tag_check 1
core_0_stlb_max_fill 1
core_0_l1i_set 64
core_0_l1i_way 8
core_0_l1i_rq_size 64
core_0_l1i_wq_size 64
core_0_l1i_pq_size 32
core_0_l1i_mshr_size 8
core_0_l1i_hit_latency 2
core_0_l1i_fill_latency 2
core_0_l1i_max_tag_check 2
core_0_l1i_max_fill 2
core_0_l1d_set 64
core_0_l1d_way 12
core_0_l1d_rq_size 64
core_0_l1d_wq_size 64
core_0_l1d_pq_size 8
core_0_l1d_mshr_size 16
core_0_l1d_hit_latency 2
core_0_l1d_fill_latency 3
core_0_l1d_max_tag_check 2
core_0_l1d_max_fill 2
core_0_l2c_set 1024
core_0_l2c_way 8
core_0_l2c_rq_size 32
core_0_l2c_wq_size 32
core_0_l2c_pq_size 16
core_0_l2c_mshr_size 32
core_0_l2c_hit_latency 5
core_0_l2c_fill_latency 5
core_0_l2c_max_tag_check 1
core_0_l2c_max_fill 1
llc_set 2048
llc_way 16
llc_rq_size 32
llc_wq_size 32
llc_pq_size 32
llc_mshr_size 64
llc_hit_latency 10
llc_fill_latency 10
llc_max_tag_check 1
llc_max_fill 1
dram_channels 1
dram_ranks 1
dram_bankgroups 8
dram_banks 4
dram_rows 65536
dram_columns 1024
dram_channel_width 8
dram_rq_size 64
dram_wq_size 64
dram_size 17179869184
core_0_itlb_prefetcher no
core_0_dtlb_prefetcher no
core_0_stlb_prefetcher no
core_0_l1i_prefetcher no
core_0_l1d_prefetcher no
core_0_l2c_prefetcher no
llc_prefetcher no
llc_replacement drrip

Core_0_instructions 50000003
Core_0_cycles 163823999
Core_0_IPC 0.305206
Core_0_branch_prediction_accuracy 99.9516
Core_0_branch_MPKI 0.124
Core_0_average_ROB_occupancy_at_mispredict 271.722

Core_0_ITLB_total_access 9569107
Core_0_ITLB_total_hit 9569107
Core_0_ITLB_total_miss 0
Core_0_ITLB_total_MPKI 0
Core_0_ITLB_total_miss_rate 0
Core_0_ITLB_demand_access 9569107
Core_0_ITLB_demand_hit 9569107
Core_0_ITLB_demand_miss 0
Core_0_ITLB_demand_MPKI 0
Core_0_ITLB_demand_miss_rate 0
Core_0_ITLB_load_access 9569107
Core_0_ITLB_load_hit 9569107
Core_0_ITLB_load_miss 0
Core_0_ITLB_load_MPKI 0
Core_0_ITLB_load_miss_rate 0
Core_0_ITLB_rfo_access 0
Core_0_ITLB_rfo_hit 0
Core_0_ITLB_rfo_miss 0
Core_0_ITLB_rfo_MPKI 0
Core_0_ITLB_rfo_miss_rate 0
Core_0_ITLB_prefetch_access 0
Core_0_ITLB_prefetch_hit 0
Core_0_ITLB_prefetch_miss 0
Core_0_ITLB_prefetch_MPKI 0
Core_0_ITLB_prefetch_miss_rate 0
Core_0_ITLB_writeback_access 0
Core_0_ITLB_writeback_hit 0
Core_0_ITLB_writeback_miss 0
Core_0_ITLB_writeback_MPKI 0
Core_0_ITLB_writeback_miss_rate 0
Core_0_ITLB_prefetch_requested 0
Core_0_ITLB_prefetch_issued 0
Core_0_ITLB_prefetch_useful 0
Core_0_ITLB_prefetch_useless 0
Core_0_ITLB_prefetch_late 0
Core_0_ITLB_prefetch_accuracy 0
Core_0_ITLB_prefetch_coverage 0

Core_0_DTLB_total_access 11275011
Core_0_DTLB_total_hit 11232560
Core_0_DTLB_total_miss 42451
Core_0_DTLB_total_MPKI 0.84902
Core_0_DTLB_total_miss_rate 0.00376505
Core_0_DTLB_demand_access 11275011
Core_0_DTLB_demand_hit 11232560
Core_0_DTLB_demand_miss 42451
Core_0_DTLB_demand_MPKI 0.84902
Core_0_DTLB_demand_miss_rate 0.00376505
Core_0_DTLB_load_access 11275011
Core_0_DTLB_load_hit 11232560
Core_0_DTLB_load_miss 42451
Core_0_DTLB_load_MPKI 0.84902
Core_0_DTLB_load_miss_rate 0.00376505
Core_0_DTLB_rfo_access 0
Core_0_DTLB_rfo_hit 0
Core_0_DTLB_rfo_miss 0
Core_0_DTLB_rfo_MPKI 0
Core_0_DTLB_rfo_miss_rate 0
Core_0_DTLB_prefetch_access 0
Core_0_DTLB_prefetch_hit 0
Core_0_DTLB_prefetch_miss 0
Core_0_DTLB_prefetch_MPKI 0
Core_0_DTLB_prefetch_miss_rate 0
Core_0_DTLB_writeback_access 0
Core_0_DTLB_writeback_hit 0
Core_0_DTLB_writeback_miss 0
Core_0_DTLB_writeback_MPKI 0
Core_0_DTLB_writeback_miss_rate 0
Core_0_DTLB_prefetch_requested 0
Core_0_DTLB_prefetch_issued 0
Core_0_DTLB_prefetch_useful 0
Core_0_DTLB_prefetch_useless 0
Core_0_DTLB_prefetch_late 0
Core_0_DTLB_prefetch_accuracy 0
Core_0_DTLB_prefetch_coverage 0

Core_0_STLB_total_access 16065
Core_0_STLB_total_hit 888
Core_0_STLB_total_miss 15177
Core_0_STLB_total_MPKI 0.30354
Core_0_STLB_total_miss_rate 0.944725
Core_0_STLB_demand_access 16065
Core_0_STLB_demand_hit 888
Core_0_STLB_demand_miss 15177
Core_0_STLB_demand_MPKI 0.30354
Core_0_STLB_demand_miss_rate 0.944725
Core_0_STLB_load_access 16065
Core_0_STLB_load_hit 888
Core_0_STLB_load_miss 15177
Core_0_STLB_load_MPKI 0.30354
Core_0_STLB_load_miss_rate 0.944725
Core_0_STLB_rfo_access 0
Core_0_STLB_rfo_hit 0
Core_0_STLB_rfo_miss 0
Core_0_STLB_rfo_MPKI 0
Core_0_STLB_rfo_miss_rate 0
Core_0_STLB_prefetch_access 0
Core_0_STLB_prefetch_hit 0
Core_0_STLB_prefetch_miss 0
Core_0_STLB_prefetch_MPKI 0
Core_0_STLB_prefetch_miss_rate 0
Core_0_STLB_writeback_access 0
Core_0_STLB_writeback_hit 0
Core_0_STLB_writeback_miss 0
Core_0_STLB_writeback_MPKI 0
Core_0_STLB_writeback_miss_rate 0
Core_0_STLB_prefetch_requested 0
Core_0_STLB_prefetch_issued 0
Core_0_STLB_prefetch_useful 0
Core_0_STLB_prefetch_useless 0
Core_0_STLB_prefetch_late 0
Core_0_STLB_prefetch_accuracy 0
Core_0_STLB_prefetch_coverage 0

Core_0_L1I_total_access 10507179
Core_0_L1I_total_hit 10507179
Core_0_L1I_total_miss 0
Core_0_L1I_total_MPKI 0
Core_0_L1I_total_miss_rate 0
Core_0_L1I_demand_access 10507179
Core_0_L1I_demand_hit 10507179
Core_0_L1I_demand_miss 0
Core_0_L1I_demand_MPKI 0
Core_0_L1I_demand_miss_rate 0
Core_0_L1I_load_access 10507179
Core_0_L1I_load_hit 10507179
Core_0_L1I_load_miss 0
Core_0_L1I_load_MPKI 0
Core_0_L1I_load_miss_rate 0
Core_0_L1I_rfo_access 0
Core_0_L1I_rfo_hit 0
Core_0_L1I_rfo_miss 0
Core_0_L1I_rfo_MPKI 0
Core_0_L1I_rfo_miss_rate 0
Core_0_L1I_prefetch_access 0
Core_0_L1I_prefetch_hit 0
Core_0_L1I_prefetch_miss 0
Core_0_L1I_prefetch_MPKI 0
Core_0_L1I_prefetch_miss_rate 0
Core_0_L1I_writeback_access 0
Core_0_L1I_writeback_hit 0
Core_0_L1I_writeback_miss 0
Core_0_L1I_writeback_MPKI 0
Core_0_L1I_writeback_miss_rate 0
Core_0_L1I_prefetch_requested 0
Core_0_L1I_prefetch_issued 0
Core_0_L1I_prefetch_useful 0
Core_0_L1I_prefetch_useless 0
Core_0_L1I_prefetch_late 0
Core_0_L1I_prefetch_accuracy 0
Core_0_L1I_prefetch_coverage 0

Core_0_L1D_total_access 11832179
Core_0_L1D_total_hit 9079216
Core_0_L1D_total_miss 2752963
Core_0_L1D_total_MPKI 55.0593
Core_0_L1D_total_miss_rate 0.232667
Core_0_L1D_demand_access 7516523
Core_0_L1D_demand_hit 4777701
Core_0_L1D_demand_miss 2738822
Core_0_L1D_demand_MPKI 54.7764
Core_0_L1D_demand_miss_rate 0.364374
Core_0_L1D_load_access 7516523
Core_0_L1D_load_hit 4777701
Core_0_L1D_load_miss 2738822
Core_0_L1D_load_MPKI 54.7764
Core_0_L1D_load_miss_rate 0.364374
Core_0_L1D_rfo_access 0
Core_0_L1D_rfo_hit 0
Core_0_L1D_rfo_miss 0
Core_0_L1D_rfo_MPKI 0
Core_0_L1D_rfo_miss_rate 0
Core_0_L1D_prefetch_access 0
Core_0_L1D_prefetch_hit 0
Core_0_L1D_prefetch_miss 0
Core_0_L1D_prefetch_MPKI 0
Core_0_L1D_prefetch_miss_rate 0
Core_0_L1D_writeback_access 4315656
Core_0_L1D_writeback_hit 4301515
Core_0_L1D_writeback_miss 14141
Core_0_L1D_writeback_MPKI 0.28282
Core_0_L1D_writeback_miss_rate 0.00327667
Core_0_L1D_prefetch_requested 0
Core_0_L1D_prefetch_issued 0
Core_0_L1D_prefetch_useful 0
Core_0_L1D_prefetch_useless 0
Core_0_L1D_prefetch_late 0
Core_0_L1D_prefetch_accuracy 0
Core_0_L1D_prefetch_coverage 0

Core_0_L2C_total_access 1211466
Core_0_L2C_total_hit 321831
Core_0_L2C_total_miss 889635
Core_0_L2C_total_MPKI 17.7927
Core_0_L2C_total_miss_rate 0.734346
Core_0_L2C_demand_access 1206575
Core_0_L2C_demand_hit 316941
Core_0_L2C_demand_miss 889634
Core_0_L2C_demand_MPKI 17.7927
Core_0_L2C_demand_miss_rate 0.737322
Core_0_L2C_load_access 1204415
Core_0_L2C_load_hit 315233
Core_0_L2C_load_miss 889182
Core_0_L2C_load_MPKI 17.7836
Core_0_L2C_load_miss_rate 0.738269
Core_0_L2C_rfo_access 2160
Core_0_L2C_rfo_hit 1708
Core_0_L2C_rfo_miss 452
Core_0_L2C_rfo_MPKI 0.00904
Core_0_L2C_rfo_miss_rate 0.209259
Core_0_L2C_prefetch_access 0
Core_0_L2C_prefetch_hit 0
Core_0_L2C_prefetch_miss 0
Core_0_L2C_prefetch_MPKI 0
Core_0_L2C_prefetch_miss_rate 0
Core_0_L2C_writeback_access 4891
Core_0_L2C_writeback_hit 4890
Core_0_L2C_writeback_miss 1
Core_0_L2C_writeback_MPKI 2e-05
Core_0_L2C_writeback_miss_rate 0.000204457
Core_0_L2C_prefetch_requested 0
Core_0_L2C_prefetch_issued 0
Core_0_L2C_prefetch_useful 0
Core_0_L2C_prefetch_useless 0
Core_0_L2C_prefetch_late 0
Core_0_L2C_prefetch_accuracy 0
Core_0_L2C_prefetch_coverage 0

Core_0_LLC_total_access 890852
Core_0_LLC_total_hit 2389
Core_0_LLC_total_miss 888463
Core_0_LLC_total_MPKI 17.7693
Core_0_LLC_total_miss_rate 0.997318
Core_0_LLC_demand_access 889634
Core_0_LLC_demand_hit 1298
Core_0_LLC_demand_miss 888336
Core_0_LLC_demand_MPKI 17.7667
Core_0_LLC_demand_miss_rate 0.998541
Core_0_LLC_load_access 889182
Core_0_LLC_load_hit 1298
Core_0_LLC_load_miss 887884
Core_0_LLC_load_MPKI 17.7577
Core_0_LLC_load_miss_rate 0.99854
Core_0_LLC_rfo_access 452
Core_0_LLC_rfo_hit 0
Core_0_LLC_rfo_miss 452
Core_0_LLC_rfo_MPKI 0.00904
Core_0_LLC_rfo_miss_rate 1
Core_0_LLC_prefetch_access 0
Core_0_LLC_prefetch_hit 0
Core_0_LLC_prefetch_miss 0
Core_0_LLC_prefetch_MPKI 0
Core_0_LLC_prefetch_miss_rate 0
Core_0_LLC_writeback_access 1218
Core_0_LLC_writeback_hit 1091
Core_0_LLC_writeback_miss 127
Core_0_LLC_writeback_MPKI 0.00254
Core_0_LLC_writeback_miss_rate 0.104269
Core_0_LLC_prefetch_requested 0
Core_0_LLC_prefetch_issued 0
Core_0_LLC_prefetch_useful 0
Core_0_LLC_prefetch_useless 0
Core_0_LLC_prefetch_late 0
Core_0_LLC_prefetch_accuracy 0
Core_0_LLC_prefetch_coverage 0

[DRAM Statistics]
Channel_0_RQ_row_buffer_hit 276456
Channel_0_RQ_row_buffer_miss 614422
Channel_0_WQ_row_buffer_hit 403
Channel_0_WQ_row_buffer_miss 770
Channel_0_WQ_full 0
Channel_0_dbus_congested 368369
DRAM_total_RQ_row_buffer_hit 276456
DRAM_total_RQ_row_buffer_miss 614422
DRAM_total_WQ_row_buffer_hit 403
DRAM_total_WQ_row_buffer_miss 770
DRAM_total_WQ_full 0
DRAM_total_dbus_congested 368369
DRAM_avg_congested_cycle 25.0873

======STLB miss causes ========
Core_0_STLB_miss_cause_breakdown
Core_0_STLB_cause_Demand_Data_miss 15177
Core_0_STLB_cause_Demand_Data_miss_rate 0.944725
Core_0_STLB_cause_Demand_Instruction_miss 0
Core_0_STLB_cause_Demand_Instruction_miss_rate 0
Core_0_STLB_cause_L1D_Prefetch_miss 0
Core_0_STLB_cause_L1D_Prefetch_miss_rate 0
Core_0_STLB_cause_L1I_Prefetch_miss 0
Core_0_STLB_cause_L1I_Prefetch_miss_rate 0
Core_0_STLB_cause_Other_miss 0
Core_0_STLB_cause_Other_miss_rate 0
Core_0_STLB_Demand_miss 15177
Core_0_STLB_Demand_miss_rate 0.944725
Core_0_STLB_L1D_Prefetch_miss 0
Core_0_STLB_L1D_Prefetch_miss_rate 0
Core_0_STLB_Other_miss 0
Core_0_STLB_Other_miss_rate 0
