[VMEM] WARNING: physical memory size is smaller than virtual memory size.

*** ChampSim Multicore Out-of-Order Simulator ***
Warmup Instructions: 20000000
Simulation Instructions: 50000000
Number of CPUs: 1
Page size: 4096
Core 0: /data0/tzh/champsim_traces/SPEC17/641.leela_s-862B.champsimtrace.xz
Off-chip DRAM Size: 16 GiB Channels: 1 Width: 64-bit Data Rate: 3205 MT/s
Warmup halting CPU 0 at instruction 20000005 cycle 4294491 for remainder of phase
Warmup finished CPU 0 instructions: 20000005 cycles: 4294491 cumulative IPC: 4.657 (Simulation time: 00 hr 00 min 54 sec)
Warmup complete CPU 0 instructions: 20000005 cycles: 4294491 cumulative IPC: 4.657 (Simulation time: 00 hr 00 min 54 sec)
Simulation finished CPU 0 instructions: 50000000 cycles: 37635870 cumulative IPC: 1.329 (Simulation time: 00 hr 04 min 57 sec)
Simulation complete CPU 0 instructions: 50000000 cycles: 37635870 cumulative IPC: 1.329 (Simulation time: 00 hr 04 min 57 sec)

ChampSim completed all CPUs

=== Simulation ===
CPU 0 runs /data0/tzh/champsim_traces/SPEC17/641.leela_s-862B.champsimtrace.xz

Region of Interest Statistics

CPU 0 cumulative IPC: 1.329 instructions: 50000000 cycles: 37635870
CPU 0 Branch Prediction Accuracy: 92.44% MPKI: 12.46 Average ROB Occupancy at Mispredict: 37.94
Branch type MPKI
BRANCH_DIRECT_JUMP: 0.07704
BRANCH_INDIRECT: 0.0006
BRANCH_CONDITIONAL: 12.35
BRANCH_DIRECT_CALL: 0.00018
BRANCH_INDIRECT_CALL: 0
BRANCH_RETURN: 0.03192

cpu0->cpu0_STLB TOTAL        ACCESS:      21415 HIT:      21345 MISS:         70 MSHR_MERGE:          0
cpu0->cpu0_STLB LOAD         ACCESS:      21415 HIT:      21345 MISS:         70 MSHR_MERGE:          0
cpu0->cpu0_STLB RFO          ACCESS:          0 HIT:          0 MISS:          0 MSHR_MERGE:          0
cpu0->cpu0_STLB PREFETCH     ACCESS:          0 HIT:          0 MISS:          0 MSHR_MERGE:          0
cpu0->cpu0_STLB WRITE        ACCESS:          0 HIT:          0 MISS:          0 MSHR_MERGE:          0
cpu0->cpu0_STLB TRANSLATION  ACCESS:          0 HIT:          0 MISS:          0 MSHR_MERGE:          0
cpu0->cpu0_STLB PREFETCH REQUESTED:          0 ISSUED:          0 USEFUL:          0 USELESS:          0 LATE:          0
cpu0->cpu0_STLB AVERAGE MISS LATENCY: 285.8 cycles
cpu0->cpu0_L2C TOTAL        ACCESS:     101713 HIT:      99766 MISS:       1947 MSHR_MERGE:          0
cpu0->cpu0_L2C LOAD         ACCESS:      77415 HIT:      75983 MISS:       1432 MSHR_MERGE:          0
cpu0->cpu0_L2C RFO          ACCESS:       8379 HIT:       7889 MISS:        490 MSHR_MERGE:          0
cpu0->cpu0_L2C PREFETCH     ACCESS:          0 HIT:          0 MISS:          0 MSHR_MERGE:          0
cpu0->cpu0_L2C WRITE        ACCESS:      15855 HIT:      15855 MISS:          0 MSHR_MERGE:          0
cpu0->cpu0_L2C TRANSLATION  ACCESS:         64 HIT:         39 MISS:         25 MSHR_MERGE:          0
cpu0->cpu0_L2C PREFETCH REQUESTED:          0 ISSUED:          0 USEFUL:          0 USELESS:          0 LATE:          0
cpu0->cpu0_L2C AVERAGE MISS LATENCY: 149.8 cycles
cpu0->cpu0_L1I TOTAL        ACCESS:    5370302 HIT:    5364861 MISS:       5441 MSHR_MERGE:       2488
cpu0->cpu0_L1I LOAD         ACCESS:    5370302 HIT:    5364861 MISS:       5441 MSHR_MERGE:       2488
cpu0->cpu0_L1I RFO          ACCESS:          0 HIT:          0 MISS:          0 MSHR_MERGE:          0
cpu0->cpu0_L1I PREFETCH     ACCESS:          0 HIT:          0 MISS:          0 MSHR_MERGE:          0
cpu0->cpu0_L1I WRITE        ACCESS:          0 HIT:          0 MISS:          0 MSHR_MERGE:          0
cpu0->cpu0_L1I TRANSLATION  ACCESS:          0 HIT:          0 MISS:          0 MSHR_MERGE:          0
cpu0->cpu0_L1I PREFETCH REQUESTED:          0 ISSUED:          0 USEFUL:          0 USELESS:          0 LATE:          0
cpu0->cpu0_L1I AVERAGE MISS LATENCY: 7.156 cycles
cpu0->cpu0_L1D TOTAL        ACCESS:   14468641 HIT:   14361358 MISS:     107283 MSHR_MERGE:      24378
cpu0->cpu0_L1D LOAD         ACCESS:    8693970 HIT:    8613879 MISS:      80091 MSHR_MERGE:       5629
cpu0->cpu0_L1D RFO          ACCESS:          0 HIT:          0 MISS:          0 MSHR_MERGE:          0
cpu0->cpu0_L1D PREFETCH     ACCESS:          0 HIT:          0 MISS:          0 MSHR_MERGE:          0
cpu0->cpu0_L1D WRITE        ACCESS:    5774531 HIT:    5747403 MISS:      27128 MSHR_MERGE:      18749
cpu0->cpu0_L1D TRANSLATION  ACCESS:        140 HIT:         76 MISS:         64 MSHR_MERGE:          0
cpu0->cpu0_L1D PREFETCH REQUESTED:          0 ISSUED:          0 USEFUL:          0 USELESS:          0 LATE:          0
cpu0->cpu0_L1D AVERAGE MISS LATENCY: 11.56 cycles
cpu0->cpu0_ITLB TOTAL        ACCESS:    4692840 HIT:    4692840 MISS:          0 MSHR_MERGE:          0
cpu0->cpu0_ITLB LOAD         ACCESS:    4692840 HIT:    4692840 MISS:          0 MSHR_MERGE:          0
cpu0->cpu0_ITLB RFO          ACCESS:          0 HIT:          0 MISS:          0 MSHR_MERGE:          0
cpu0->cpu0_ITLB PREFETCH     ACCESS:          0 HIT:          0 MISS:          0 MSHR_MERGE:          0
cpu0->cpu0_ITLB WRITE        ACCESS:          0 HIT:          0 MISS:          0 MSHR_MERGE:          0
cpu0->cpu0_ITLB TRANSLATION  ACCESS:          0 HIT:          0 MISS:          0 MSHR_MERGE:          0
cpu0->cpu0_ITLB PREFETCH REQUESTED:          0 ISSUED:          0 USEFUL:          0 USELESS:          0 LATE:          0
cpu0->cpu0_ITLB AVERAGE MISS LATENCY: - cycles
cpu0->cpu0_DTLB TOTAL        ACCESS:   13643869 HIT:   13620232 MISS:      23637 MSHR_MERGE:       2222
cpu0->cpu0_DTLB LOAD         ACCESS:   13643869 HIT:   13620232 MISS:      23637 MSHR_MERGE:       2222
cpu0->cpu0_DTLB RFO          ACCESS:          0 HIT:          0 MISS:          0 MSHR_MERGE:          0
cpu0->cpu0_DTLB PREFETCH     ACCESS:          0 HIT:          0 MISS:          0 MSHR_MERGE:          0
cpu0->cpu0_DTLB WRITE        ACCESS:          0 HIT:          0 MISS:          0 MSHR_MERGE:          0
cpu0->cpu0_DTLB TRANSLATION  ACCESS:          0 HIT:          0 MISS:          0 MSHR_MERGE:          0
cpu0->cpu0_DTLB PREFETCH REQUESTED:          0 ISSUED:          0 USEFUL:          0 USELESS:          0 LATE:          0
cpu0->cpu0_DTLB AVERAGE MISS LATENCY: 5.939 cycles
cpu0->LLC TOTAL        ACCESS:       2036 HIT:        391 MISS:       1645 MSHR_MERGE:          0
cpu0->LLC LOAD         ACCESS:       1432 HIT:        301 MISS:       1131 MSHR_MERGE:          0
cpu0->LLC RFO          ACCESS:        490 HIT:          1 MISS:        489 MSHR_MERGE:          0
cpu0->LLC PREFETCH     ACCESS:          0 HIT:          0 MISS:          0 MSHR_MERGE:          0
cpu0->LLC WRITE        ACCESS:         89 HIT:         89 MISS:          0 MSHR_MERGE:          0
cpu0->LLC TRANSLATION  ACCESS:         25 HIT:          0 MISS:         25 MSHR_MERGE:          0
cpu0->LLC PREFETCH REQUESTED:          0 ISSUED:          0 USEFUL:          0 USELESS:          0 LATE:          0
cpu0->LLC AVERAGE MISS LATENCY: 158.5 cycles

DRAM Statistics

Channel 0 RQ ROW_BUFFER_HIT:        110
  ROW_BUFFER_MISS:       1535
  AVG DBUS CONGESTED CYCLE: 2.838
Channel 0 WQ ROW_BUFFER_HIT:          0
  ROW_BUFFER_MISS:          0
  FULL:          0
Channel 0 REFRESHES ISSUED:       3137

[ROI Statistics]
[System Configuration]
num_cpus 1
cpu_freq 4000
fetch_width 6
decode_width 6
dispatch_width 6
execute_width 6
lq_width 2
sq_width 2
retire_width 6
scheduler_size 128
branch_mispredict_penalty 15
rob_size 352
lq_size 128
sq_size 72
ifetch_buffer_size 64
decode_buffer_size 32
dispatch_buffer_size 32
register_file_size 288
decode_latency 1
dispatch_latency 1
schedule_latency 1
execute_latency 1
page_size 4096
block_size 64
core_0_itlb_set 16
core_0_itlb_way 4
core_0_itlb_rq_size 16
core_0_itlb_wq_size 16
core_0_itlb_pq_size 0
core_0_itlb_mshr_size 8
core_0_itlb_hit_latency 1
core_0_itlb_fill_latency 1
core_0_itlb_max_tag_check 2
core_0_itlb_max_fill 2
core_0_dtlb_set 16
core_0_dtlb_way 4
core_0_dtlb_rq_size 16
core_0_dtlb_wq_size 16
core_0_dtlb_pq_size 0
core_0_dtlb_mshr_size 8
core_0_dtlb_hit_latency 1
core_0_dtlb_fill_latency 1
core_0_dtlb_max_tag_check 2
core_0_dtlb_max_fill 2
core_0_stlb_set 128
core_0_stlb_way 12
core_0_stlb_rq_size 32
core_0_stlb_wq_size 32
core_0_stlb_pq_size 0
core_0_stlb_mshr_size 16
core_0_stlb_hit_latency 4
core_0_stlb_fill_latency 4
core_0_stlb_max_tag_check 1
core_0_stlb_max_fill 1
core_0_l1i_set 64
core_0_l1i_way 8
core_0_l1i_rq_size 64
core_0_l1i_wq_size 64
core_0_l1i_pq_size 32
core_0_l1i_mshr_size 8
core_0_l1i_hit_latency 2
core_0_l1i_fill_latency 2
core_0_l1i_max_tag_check 2
core_0_l1i_max_fill 2
core_0_l1d_set 64
core_0_l1d_way 12
core_0_l1d_rq_size 64
core_0_l1d_wq_size 64
core_0_l1d_pq_size 8
core_0_l1d_mshr_size 16
core_0_l1d_hit_latency 2
core_0_l1d_fill_latency 3
core_0_l1d_max_tag_check 2
core_0_l1d_max_fill 2
core_0_l2c_set 1024
core_0_l2c_way 8
core_0_l2c_rq_size 32
core_0_l2c_wq_size 32
core_0_l2c_pq_size 16
core_0_l2c_mshr_size 32
core_0_l2c_hit_latency 5
core_0_l2c_fill_latency 5
core_0_l2c_max_tag_check 1
core_0_l2c_max_fill 1
llc_set 2048
llc_way 16
llc_rq_size 32
llc_wq_size 32
llc_pq_size 32
llc_mshr_size 64
llc_hit_latency 10
llc_fill_latency 10
llc_max_tag_check 1
llc_max_fill 1
dram_channels 1
dram_ranks 1
dram_bankgroups 8
dram_banks 4
dram_rows 65536
dram_columns 1024
dram_channel_width 8
dram_rq_size 64
dram_wq_size 64
dram_size 17179869184
core_0_itlb_prefetcher no
core_0_dtlb_prefetcher no
core_0_stlb_prefetcher no
core_0_l1i_prefetcher no
core_0_l1d_prefetcher no
core_0_l2c_prefetcher no
llc_prefetcher no
llc_replacement drrip

Core_0_instructions 50000000
Core_0_cycles 37635870
Core_0_IPC 1.32852
Core_0_branch_prediction_accuracy 92.4371
Core_0_branch_MPKI 12.4586
Core_0_average_ROB_occupancy_at_mispredict 37.9429

Core_0_ITLB_total_access 4692840
Core_0_ITLB_total_hit 4692840
Core_0_ITLB_total_miss 0
Core_0_ITLB_total_MPKI 0
Core_0_ITLB_total_miss_rate 0
Core_0_ITLB_demand_access 4692840
Core_0_ITLB_demand_hit 4692840
Core_0_ITLB_demand_miss 0
Core_0_ITLB_demand_MPKI 0
Core_0_ITLB_demand_miss_rate 0
Core_0_ITLB_load_access 4692840
Core_0_ITLB_load_hit 4692840
Core_0_ITLB_load_miss 0
Core_0_ITLB_load_MPKI 0
Core_0_ITLB_load_miss_rate 0
Core_0_ITLB_rfo_access 0
Core_0_ITLB_rfo_hit 0
Core_0_ITLB_rfo_miss 0
Core_0_ITLB_rfo_MPKI 0
Core_0_ITLB_rfo_miss_rate 0
Core_0_ITLB_prefetch_access 0
Core_0_ITLB_prefetch_hit 0
Core_0_ITLB_prefetch_miss 0
Core_0_ITLB_prefetch_MPKI 0
Core_0_ITLB_prefetch_miss_rate 0
Core_0_ITLB_writeback_access 0
Core_0_ITLB_writeback_hit 0
Core_0_ITLB_writeback_miss 0
Core_0_ITLB_writeback_MPKI 0
Core_0_ITLB_writeback_miss_rate 0
Core_0_ITLB_prefetch_requested 0
Core_0_ITLB_prefetch_issued 0
Core_0_ITLB_prefetch_useful 0
Core_0_ITLB_prefetch_useless 0
Core_0_ITLB_prefetch_late 0
Core_0_ITLB_prefetch_accuracy 0
Core_0_ITLB_prefetch_coverage 0

Core_0_DTLB_total_access 13643869
Core_0_DTLB_total_hit 13620232
Core_0_DTLB_total_miss 23637
Core_0_DTLB_total_MPKI 0.47274
Core_0_DTLB_total_miss_rate 0.00173243
Core_0_DTLB_demand_access 13643869
Core_0_DTLB_demand_hit 13620232
Core_0_DTLB_demand_miss 23637
Core_0_DTLB_demand_MPKI 0.47274
Core_0_DTLB_demand_miss_rate 0.00173243
Core_0_DTLB_load_access 13643869
Core_0_DTLB_load_hit 13620232
Core_0_DTLB_load_miss 23637
Core_0_DTLB_load_MPKI 0.47274
Core_0_DTLB_load_miss_rate 0.00173243
Core_0_DTLB_rfo_access 0
Core_0_DTLB_rfo_hit 0
Core_0_DTLB_rfo_miss 0
Core_0_DTLB_rfo_MPKI 0
Core_0_DTLB_rfo_miss_rate 0
Core_0_DTLB_prefetch_access 0
Core_0_DTLB_prefetch_hit 0
Core_0_DTLB_prefetch_miss 0
Core_0_DTLB_prefetch_MPKI 0
Core_0_DTLB_prefetch_miss_rate 0
Core_0_DTLB_writeback_access 0
Core_0_DTLB_writeback_hit 0
Core_0_DTLB_writeback_miss 0
Core_0_DTLB_writeback_MPKI 0
Core_0_DTLB_writeback_miss_rate 0
Core_0_DTLB_prefetch_requested 0
Core_0_DTLB_prefetch_issued 0
Core_0_DTLB_prefetch_useful 0
Core_0_DTLB_prefetch_useless 0
Core_0_DTLB_prefetch_late 0
Core_0_DTLB_prefetch_accuracy 0
Core_0_DTLB_prefetch_coverage 0

Core_0_STLB_total_access 21415
Core_0_STLB_total_hit 21345
Core_0_STLB_total_miss 70
Core_0_STLB_total_MPKI 0.0014
Core_0_STLB_total_miss_rate 0.00326874
Core_0_STLB_demand_access 21415
Core_0_STLB_demand_hit 21345
Core_0_STLB_demand_miss 70
Core_0_STLB_demand_MPKI 0.0014
Core_0_STLB_demand_miss_rate 0.00326874
Core_0_STLB_load_access 21415
Core_0_STLB_load_hit 21345
Core_0_STLB_load_miss 70
Core_0_STLB_load_MPKI 0.0014
Core_0_STLB_load_miss_rate 0.00326874
Core_0_STLB_rfo_access 0
Core_0_STLB_rfo_hit 0
Core_0_STLB_rfo_miss 0
Core_0_STLB_rfo_MPKI 0
Core_0_STLB_rfo_miss_rate 0
Core_0_STLB_prefetch_access 0
Core_0_STLB_prefetch_hit 0
Core_0_STLB_prefetch_miss 0
Core_0_STLB_prefetch_MPKI 0
Core_0_STLB_prefetch_miss_rate 0
Core_0_STLB_writeback_access 0
Core_0_STLB_writeback_hit 0
Core_0_STLB_writeback_miss 0
Core_0_STLB_writeback_MPKI 0
Core_0_STLB_writeback_miss_rate 0
Core_0_STLB_prefetch_requested 0
Core_0_STLB_prefetch_issued 0
Core_0_STLB_prefetch_useful 0
Core_0_STLB_prefetch_useless 0
Core_0_STLB_prefetch_late 0
Core_0_STLB_prefetch_accuracy 0
Core_0_STLB_prefetch_coverage 0

Core_0_L1I_total_access 5370302
Core_0_L1I_total_hit 5364861
Core_0_L1I_total_miss 5441
Core_0_L1I_total_MPKI 0.10882
Core_0_L1I_total_miss_rate 0.00101316
Core_0_L1I_demand_access 5370302
Core_0_L1I_demand_hit 5364861
Core_0_L1I_demand_miss 5441
Core_0_L1I_demand_MPKI 0.10882
Core_0_L1I_demand_miss_rate 0.00101316
Core_0_L1I_load_access 5370302
Core_0_L1I_load_hit 5364861
Core_0_L1I_load_miss 5441
Core_0_L1I_load_MPKI 0.10882
Core_0_L1I_load_miss_rate 0.00101316
Core_0_L1I_rfo_access 0
Core_0_L1I_rfo_hit 0
Core_0_L1I_rfo_miss 0
Core_0_L1I_rfo_MPKI 0
Core_0_L1I_rfo_miss_rate 0
Core_0_L1I_prefetch_access 0
Core_0_L1I_prefetch_hit 0
Core_0_L1I_prefetch_miss 0
Core_0_L1I_prefetch_MPKI 0
Core_0_L1I_prefetch_miss_rate 0
Core_0_L1I_writeback_access 0
Core_0_L1I_writeback_hit 0
Core_0_L1I_writeback_miss 0
Core_0_L1I_writeback_MPKI 0
Core_0_L1I_writeback_miss_rate 0
Core_0_L1I_prefetch_requested 0
Core_0_L1I_prefetch_issued 0
Core_0_L1I_prefetch_useful 0
Core_0_L1I_prefetch_useless 0
Core_0_L1I_prefetch_late 0
Core_0_L1I_prefetch_accuracy 0
Core_0_L1I_prefetch_coverage 0

Core_0_L1D_total_access 14468501
Core_0_L1D_total_hit 14361282
Core_0_L1D_total_miss 107219
Core_0_L1D_total_MPKI 2.14438
Core_0_L1D_total_miss_rate 0.00741051
Core_0_L1D_demand_access 8693970
Core_0_L1D_demand_hit 8613879
Core_0_L1D_demand_miss 80091
Core_0_L1D_demand_MPKI 1.60182
Core_0_L1D_demand_miss_rate 0.00921225
Core_0_L1D_load_access 8693970
Core_0_L1D_load_hit 8613879
Core_0_L1D_load_miss 80091
Core_0_L1D_load_MPKI 1.60182
Core_0_L1D_load_miss_rate 0.00921225
Core_0_L1D_rfo_access 0
Core_0_L1D_rfo_hit 0
Core_0_L1D_rfo_miss 0
Core_0_L1D_rfo_MPKI 0
Core_0_L1D_rfo_miss_rate 0
Core_0_L1D_prefetch_access 0
Core_0_L1D_prefetch_hit 0
Core_0_L1D_prefetch_miss 0
Core_0_L1D_prefetch_MPKI 0
Core_0_L1D_prefetch_miss_rate 0
Core_0_L1D_writeback_access 5774531
Core_0_L1D_writeback_hit 5747403
Core_0_L1D_writeback_miss 27128
Core_0_L1D_writeback_MPKI 0.54256
Core_0_L1D_writeback_miss_rate 0.00469787
Core_0_L1D_prefetch_requested 0
Core_0_L1D_prefetch_issued 0
Core_0_L1D_prefetch_useful 0
Core_0_L1D_prefetch_useless 0
Core_0_L1D_prefetch_late 0
Core_0_L1D_prefetch_accuracy 0
Core_0_L1D_prefetch_coverage 0

Core_0_L2C_total_access 101649
Core_0_L2C_total_hit 99727
Core_0_L2C_total_miss 1922
Core_0_L2C_total_MPKI 0.03844
Core_0_L2C_total_miss_rate 0.0189082
Core_0_L2C_demand_access 85794
Core_0_L2C_demand_hit 83872
Core_0_L2C_demand_miss 1922
Core_0_L2C_demand_MPKI 0.03844
Core_0_L2C_demand_miss_rate 0.0224025
Core_0_L2C_load_access 77415
Core_0_L2C_load_hit 75983
Core_0_L2C_load_miss 1432
Core_0_L2C_load_MPKI 0.02864
Core_0_L2C_load_miss_rate 0.0184977
Core_0_L2C_rfo_access 8379
Core_0_L2C_rfo_hit 7889
Core_0_L2C_rfo_miss 490
Core_0_L2C_rfo_MPKI 0.0098
Core_0_L2C_rfo_miss_rate 0.0584795
Core_0_L2C_prefetch_access 0
Core_0_L2C_prefetch_hit 0
Core_0_L2C_prefetch_miss 0
Core_0_L2C_prefetch_MPKI 0
Core_0_L2C_prefetch_miss_rate 0
Core_0_L2C_writeback_access 15855
Core_0_L2C_writeback_hit 15855
Core_0_L2C_writeback_miss 0
Core_0_L2C_writeback_MPKI 0
Core_0_L2C_writeback_miss_rate 0
Core_0_L2C_prefetch_requested 0
Core_0_L2C_prefetch_issued 0
Core_0_L2C_prefetch_useful 0
Core_0_L2C_prefetch_useless 0
Core_0_L2C_prefetch_late 0
Core_0_L2C_prefetch_accuracy 0
Core_0_L2C_prefetch_coverage 0

Core_0_LLC_total_access 2011
Core_0_LLC_total_hit 391
Core_0_LLC_total_miss 1620
Core_0_LLC_total_MPKI 0.0324
Core_0_LLC_total_miss_rate 0.805569
Core_0_LLC_demand_access 1922
Core_0_LLC_demand_hit 302
Core_0_LLC_demand_miss 1620
Core_0_LLC_demand_MPKI 0.0324
Core_0_LLC_demand_miss_rate 0.842872
Core_0_LLC_load_access 1432
Core_0_LLC_load_hit 301
Core_0_LLC_load_miss 1131
Core_0_LLC_load_MPKI 0.02262
Core_0_LLC_load_miss_rate 0.789804
Core_0_LLC_rfo_access 490
Core_0_LLC_rfo_hit 1
Core_0_LLC_rfo_miss 489
Core_0_LLC_rfo_MPKI 0.00978
Core_0_LLC_rfo_miss_rate 0.997959
Core_0_LLC_prefetch_access 0
Core_0_LLC_prefetch_hit 0
Core_0_LLC_prefetch_miss 0
Core_0_LLC_prefetch_MPKI 0
Core_0_LLC_prefetch_miss_rate 0
Core_0_LLC_writeback_access 89
Core_0_LLC_writeback_hit 89
Core_0_LLC_writeback_miss 0
Core_0_LLC_writeback_MPKI 0
Core_0_LLC_writeback_miss_rate 0
Core_0_LLC_prefetch_requested 0
Core_0_LLC_prefetch_issued 0
Core_0_LLC_prefetch_useful 0
Core_0_LLC_prefetch_useless 0
Core_0_LLC_prefetch_late 0
Core_0_LLC_prefetch_accuracy 0
Core_0_LLC_prefetch_coverage 0

[DRAM Statistics]
Channel_0_RQ_row_buffer_hit 110
Channel_0_RQ_row_buffer_miss 1535
Channel_0_WQ_row_buffer_hit 0
Channel_0_WQ_row_buffer_miss 0
Channel_0_WQ_full 0
Channel_0_dbus_congested 111
DRAM_total_RQ_row_buffer_hit 110
DRAM_total_RQ_row_buffer_miss 1535
DRAM_total_WQ_row_buffer_hit 0
DRAM_total_WQ_row_buffer_miss 0
DRAM_total_WQ_full 0
DRAM_total_dbus_congested 111
DRAM_avg_congested_cycle 2.83784

======STLB miss causes ========
Core_0_STLB_miss_cause_breakdown
Core_0_STLB_cause_Demand_Data_miss 70
Core_0_STLB_cause_Demand_Data_miss_rate 0.00326874
Core_0_STLB_cause_Demand_Instruction_miss 0
Core_0_STLB_cause_Demand_Instruction_miss_rate 0
Core_0_STLB_cause_L1D_Prefetch_miss 0
Core_0_STLB_cause_L1D_Prefetch_miss_rate 0
Core_0_STLB_cause_L1I_Prefetch_miss 0
Core_0_STLB_cause_L1I_Prefetch_miss_rate 0
Core_0_STLB_cause_Other_miss 0
Core_0_STLB_cause_Other_miss_rate 0
Core_0_STLB_Demand_miss 70
Core_0_STLB_Demand_miss_rate 0.00326874
Core_0_STLB_L1D_Prefetch_miss 0
Core_0_STLB_L1D_Prefetch_miss_rate 0
Core_0_STLB_Other_miss 0
Core_0_STLB_Other_miss_rate 0
