[VMEM] WARNING: physical memory size is smaller than virtual memory size.

*** ChampSim Multicore Out-of-Order Simulator ***
Warmup Instructions: 20000000
Simulation Instructions: 50000000
Number of CPUs: 1
Page size: 4096
Core 0: /data2/zcq/champsim_traces_gap/bc.kron-5154B.champsimtrace.xz
Off-chip DRAM Size: 16 GiB Channels: 1 Width: 64-bit Data Rate: 3205 MT/s
Warmup halting CPU 0 at instruction 20000000 cycle 7379836 for remainder of phase
Warmup finished CPU 0 instructions: 20000000 cycles: 7379836 cumulative IPC: 2.71 (Simulation time: 00 hr 01 min 08 sec)
Warmup complete CPU 0 instructions: 20000000 cycles: 7379836 cumulative IPC: 2.71 (Simulation time: 00 hr 01 min 08 sec)
Simulation finished CPU 0 instructions: 50000005 cycles: 56505169 cumulative IPC: 0.8849 (Simulation time: 00 hr 06 min 26 sec)
Simulation complete CPU 0 instructions: 50000005 cycles: 56505169 cumulative IPC: 0.8849 (Simulation time: 00 hr 06 min 26 sec)

ChampSim completed all CPUs

=== Simulation ===
CPU 0 runs /data2/zcq/champsim_traces_gap/bc.kron-5154B.champsimtrace.xz

Region of Interest Statistics

CPU 0 cumulative IPC: 0.8849 instructions: 50000005 cycles: 56505169
CPU 0 Branch Prediction Accuracy: 99.25% MPKI: 1.337 Average ROB Occupancy at Mispredict: 205.6
Branch type MPKI
BRANCH_DIRECT_JUMP: 0
BRANCH_INDIRECT: 0
BRANCH_CONDITIONAL: 1.337
BRANCH_DIRECT_CALL: 0
BRANCH_INDIRECT_CALL: 0
BRANCH_RETURN: 0

cpu0->cpu0_STLB TOTAL        ACCESS:     145195 HIT:       2319 MISS:     142876 MSHR_MERGE:          0
cpu0->cpu0_STLB LOAD         ACCESS:     145195 HIT:       2319 MISS:     142876 MSHR_MERGE:          0
cpu0->cpu0_STLB RFO          ACCESS:          0 HIT:          0 MISS:          0 MSHR_MERGE:          0
cpu0->cpu0_STLB PREFETCH     ACCESS:          0 HIT:          0 MISS:          0 MSHR_MERGE:          0
cpu0->cpu0_STLB WRITE        ACCESS:          0 HIT:          0 MISS:          0 MSHR_MERGE:          0
cpu0->cpu0_STLB TRANSLATION  ACCESS:          0 HIT:          0 MISS:          0 MSHR_MERGE:          0
cpu0->cpu0_STLB PREFETCH REQUESTED:          0 ISSUED:          0 USEFUL:          0 USELESS:          0 LATE:          0
cpu0->cpu0_STLB AVERAGE MISS LATENCY: 282.8 cycles
cpu0->cpu0_L2C TOTAL        ACCESS:     356547 HIT:      26481 MISS:     330066 MSHR_MERGE:          0
cpu0->cpu0_L2C LOAD         ACCESS:     206621 HIT:        575 MISS:     206046 MSHR_MERGE:          0
cpu0->cpu0_L2C RFO          ACCESS:       3512 HIT:          1 MISS:       3511 MSHR_MERGE:          0
cpu0->cpu0_L2C PREFETCH     ACCESS:          0 HIT:          0 MISS:          0 MSHR_MERGE:          0
cpu0->cpu0_L2C WRITE        ACCESS:       7146 HIT:       7146 MISS:          0 MSHR_MERGE:          0
cpu0->cpu0_L2C TRANSLATION  ACCESS:     139268 HIT:      18759 MISS:     120509 MSHR_MERGE:          0
cpu0->cpu0_L2C PREFETCH REQUESTED:          0 ISSUED:          0 USEFUL:          0 USELESS:          0 LATE:          0
cpu0->cpu0_L2C AVERAGE MISS LATENCY: 180.3 cycles
cpu0->cpu0_L1I TOTAL        ACCESS:    1753091 HIT:    1753091 MISS:          0 MSHR_MERGE:          0
cpu0->cpu0_L1I LOAD         ACCESS:    1753091 HIT:    1753091 MISS:          0 MSHR_MERGE:          0
cpu0->cpu0_L1I RFO          ACCESS:          0 HIT:          0 MISS:          0 MSHR_MERGE:          0
cpu0->cpu0_L1I PREFETCH     ACCESS:          0 HIT:          0 MISS:          0 MSHR_MERGE:          0
cpu0->cpu0_L1I WRITE        ACCESS:          0 HIT:          0 MISS:          0 MSHR_MERGE:          0
cpu0->cpu0_L1I TRANSLATION  ACCESS:          0 HIT:          0 MISS:          0 MSHR_MERGE:          0
cpu0->cpu0_L1I PREFETCH REQUESTED:          0 ISSUED:          0 USEFUL:          0 USELESS:          0 LATE:          0
cpu0->cpu0_L1I AVERAGE MISS LATENCY: - cycles
cpu0->cpu0_L1D TOTAL        ACCESS:    5207688 HIT:    4689123 MISS:     518565 MSHR_MERGE:     169164
cpu0->cpu0_L1D LOAD         ACCESS:    4807708 HIT:    4432792 MISS:     374916 MSHR_MERGE:     168295
cpu0->cpu0_L1D RFO          ACCESS:          0 HIT:          0 MISS:          0 MSHR_MERGE:          0
cpu0->cpu0_L1D PREFETCH     ACCESS:          0 HIT:          0 MISS:          0 MSHR_MERGE:          0
cpu0->cpu0_L1D WRITE        ACCESS:       7453 HIT:       3940 MISS:       3513 MSHR_MERGE:          1
cpu0->cpu0_L1D TRANSLATION  ACCESS:     392527 HIT:     252391 MISS:     140136 MSHR_MERGE:        868
cpu0->cpu0_L1D PREFETCH REQUESTED:          0 ISSUED:          0 USEFUL:          0 USELESS:          0 LATE:          0
cpu0->cpu0_L1D AVERAGE MISS LATENCY: 179.3 cycles
cpu0->cpu0_ITLB TOTAL        ACCESS:    1753091 HIT:    1753091 MISS:          0 MSHR_MERGE:          0
cpu0->cpu0_ITLB LOAD         ACCESS:    1753091 HIT:    1753091 MISS:          0 MSHR_MERGE:          0
cpu0->cpu0_ITLB RFO          ACCESS:          0 HIT:          0 MISS:          0 MSHR_MERGE:          0
cpu0->cpu0_ITLB PREFETCH     ACCESS:          0 HIT:          0 MISS:          0 MSHR_MERGE:          0
cpu0->cpu0_ITLB WRITE        ACCESS:          0 HIT:          0 MISS:          0 MSHR_MERGE:          0
cpu0->cpu0_ITLB TRANSLATION  ACCESS:          0 HIT:          0 MISS:          0 MSHR_MERGE:          0
cpu0->cpu0_ITLB PREFETCH REQUESTED:          0 ISSUED:          0 USEFUL:          0 USELESS:          0 LATE:          0
cpu0->cpu0_ITLB AVERAGE MISS LATENCY: - cycles
cpu0->cpu0_DTLB TOTAL        ACCESS:    4815103 HIT:    4642802 MISS:     172301 MSHR_MERGE:      27106
cpu0->cpu0_DTLB LOAD         ACCESS:    4815103 HIT:    4642802 MISS:     172301 MSHR_MERGE:      27106
cpu0->cpu0_DTLB RFO          ACCESS:          0 HIT:          0 MISS:          0 MSHR_MERGE:          0
cpu0->cpu0_DTLB PREFETCH     ACCESS:          0 HIT:          0 MISS:          0 MSHR_MERGE:          0
cpu0->cpu0_DTLB WRITE        ACCESS:          0 HIT:          0 MISS:          0 MSHR_MERGE:          0
cpu0->cpu0_DTLB TRANSLATION  ACCESS:          0 HIT:          0 MISS:          0 MSHR_MERGE:          0
cpu0->cpu0_DTLB PREFETCH REQUESTED:          0 ISSUED:          0 USEFUL:          0 USELESS:          0 LATE:          0
cpu0->cpu0_DTLB AVERAGE MISS LATENCY: 284.3 cycles
cpu0->LLC TOTAL        ACCESS:     337132 HIT:      46520 MISS:     290612 MSHR_MERGE:          0
cpu0->LLC LOAD         ACCESS:     206046 HIT:        270 MISS:     205776 MSHR_MERGE:          0
cpu0->LLC RFO          ACCESS:       3511 HIT:          1 MISS:       3510 MSHR_MERGE:          0
cpu0->LLC PREFETCH     ACCESS:          0 HIT:          0 MISS:          0 MSHR_MERGE:          0
cpu0->LLC WRITE        ACCESS:       7066 HIT:       6213 MISS:        853 MSHR_MERGE:          0
cpu0->LLC TRANSLATION  ACCESS:     120509 HIT:      40036 MISS:      80473 MSHR_MERGE:          0
cpu0->LLC PREFETCH REQUESTED:          0 ISSUED:          0 USEFUL:          0 USELESS:          0 LATE:          0
cpu0->LLC AVERAGE MISS LATENCY: 186.7 cycles

DRAM Statistics

Channel 0 RQ ROW_BUFFER_HIT:       1095
  ROW_BUFFER_MISS:     288664
  AVG DBUS CONGESTED CYCLE: 11.89
Channel 0 WQ ROW_BUFFER_HIT:       1968
  ROW_BUFFER_MISS:       4320
  FULL:          0
Channel 0 REFRESHES ISSUED:       4709

[ROI Statistics]
[System Configuration]
num_cpus 1
cpu_freq 4000
fetch_width 6
decode_width 6
dispatch_width 6
execute_width 6
lq_width 2
sq_width 2
retire_width 6
scheduler_size 128
branch_mispredict_penalty 15
rob_size 352
lq_size 128
sq_size 72
ifetch_buffer_size 64
decode_buffer_size 32
dispatch_buffer_size 32
register_file_size 288
decode_latency 1
dispatch_latency 1
schedule_latency 1
execute_latency 1
page_size 4096
block_size 64
core_0_itlb_set 16
core_0_itlb_way 4
core_0_itlb_rq_size 16
core_0_itlb_wq_size 16
core_0_itlb_pq_size 0
core_0_itlb_mshr_size 8
core_0_itlb_hit_latency 1
core_0_itlb_fill_latency 1
core_0_itlb_max_tag_check 2
core_0_itlb_max_fill 2
core_0_dtlb_set 16
core_0_dtlb_way 4
core_0_dtlb_rq_size 16
core_0_dtlb_wq_size 16
core_0_dtlb_pq_size 0
core_0_dtlb_mshr_size 8
core_0_dtlb_hit_latency 1
core_0_dtlb_fill_latency 1
core_0_dtlb_max_tag_check 2
core_0_dtlb_max_fill 2
core_0_stlb_set 128
core_0_stlb_way 12
core_0_stlb_rq_size 32
core_0_stlb_wq_size 32
core_0_stlb_pq_size 0
core_0_stlb_mshr_size 16
core_0_stlb_hit_latency 4
core_0_stlb_fill_latency 4
core_0_stlb_max_tag_check 1
core_0_stlb_max_fill 1
core_0_l1i_set 64
core_0_l1i_way 8
core_0_l1i_rq_size 64
core_0_l1i_wq_size 64
core_0_l1i_pq_size 32
core_0_l1i_mshr_size 8
core_0_l1i_hit_latency 2
core_0_l1i_fill_latency 2
core_0_l1i_max_tag_check 2
core_0_l1i_max_fill 2
core_0_l1d_set 64
core_0_l1d_way 12
core_0_l1d_rq_size 64
core_0_l1d_wq_size 64
core_0_l1d_pq_size 8
core_0_l1d_mshr_size 16
core_0_l1d_hit_latency 2
core_0_l1d_fill_latency 3
core_0_l1d_max_tag_check 2
core_0_l1d_max_fill 2
core_0_l2c_set 1024
core_0_l2c_way 8
core_0_l2c_rq_size 32
core_0_l2c_wq_size 32
core_0_l2c_pq_size 16
core_0_l2c_mshr_size 32
core_0_l2c_hit_latency 5
core_0_l2c_fill_latency 5
core_0_l2c_max_tag_check 1
core_0_l2c_max_fill 1
llc_set 2048
llc_way 16
llc_rq_size 32
llc_wq_size 32
llc_pq_size 32
llc_mshr_size 64
llc_hit_latency 10
llc_fill_latency 10
llc_max_tag_check 1
llc_max_fill 1
dram_channels 1
dram_ranks 1
dram_bankgroups 8
dram_banks 4
dram_rows 65536
dram_columns 1024
dram_channel_width 8
dram_rq_size 64
dram_wq_size 64
dram_size 17179869184
core_0_itlb_prefetcher no
core_0_dtlb_prefetcher no
core_0_stlb_prefetcher no
core_0_l1i_prefetcher no
core_0_l1d_prefetcher no
core_0_l2c_prefetcher no
llc_prefetcher no
llc_replacement drrip

Core_0_instructions 50000005
Core_0_cycles 56505169
Core_0_IPC 0.884875
Core_0_branch_prediction_accuracy 99.2541
Core_0_branch_MPKI 1.3368
Core_0_average_ROB_occupancy_at_mispredict 205.622

Core_0_ITLB_total_access 1753091
Core_0_ITLB_total_hit 1753091
Core_0_ITLB_total_miss 0
Core_0_ITLB_total_MPKI 0
Core_0_ITLB_total_miss_rate 0
Core_0_ITLB_demand_access 1753091
Core_0_ITLB_demand_hit 1753091
Core_0_ITLB_demand_miss 0
Core_0_ITLB_demand_MPKI 0
Core_0_ITLB_demand_miss_rate 0
Core_0_ITLB_load_access 1753091
Core_0_ITLB_load_hit 1753091
Core_0_ITLB_load_miss 0
Core_0_ITLB_load_MPKI 0
Core_0_ITLB_load_miss_rate 0
Core_0_ITLB_rfo_access 0
Core_0_ITLB_rfo_hit 0
Core_0_ITLB_rfo_miss 0
Core_0_ITLB_rfo_MPKI 0
Core_0_ITLB_rfo_miss_rate 0
Core_0_ITLB_prefetch_access 0
Core_0_ITLB_prefetch_hit 0
Core_0_ITLB_prefetch_miss 0
Core_0_ITLB_prefetch_MPKI 0
Core_0_ITLB_prefetch_miss_rate 0
Core_0_ITLB_writeback_access 0
Core_0_ITLB_writeback_hit 0
Core_0_ITLB_writeback_miss 0
Core_0_ITLB_writeback_MPKI 0
Core_0_ITLB_writeback_miss_rate 0
Core_0_ITLB_prefetch_requested 0
Core_0_ITLB_prefetch_issued 0
Core_0_ITLB_prefetch_useful 0
Core_0_ITLB_prefetch_useless 0
Core_0_ITLB_prefetch_late 0
Core_0_ITLB_prefetch_accuracy 0
Core_0_ITLB_prefetch_coverage 0

Core_0_DTLB_total_access 4815103
Core_0_DTLB_total_hit 4642802
Core_0_DTLB_total_miss 172301
Core_0_DTLB_total_MPKI 3.44602
Core_0_DTLB_total_miss_rate 0.0357835
Core_0_DTLB_demand_access 4815103
Core_0_DTLB_demand_hit 4642802
Core_0_DTLB_demand_miss 172301
Core_0_DTLB_demand_MPKI 3.44602
Core_0_DTLB_demand_miss_rate 0.0357835
Core_0_DTLB_load_access 4815103
Core_0_DTLB_load_hit 4642802
Core_0_DTLB_load_miss 172301
Core_0_DTLB_load_MPKI 3.44602
Core_0_DTLB_load_miss_rate 0.0357835
Core_0_DTLB_rfo_access 0
Core_0_DTLB_rfo_hit 0
Core_0_DTLB_rfo_miss 0
Core_0_DTLB_rfo_MPKI 0
Core_0_DTLB_rfo_miss_rate 0
Core_0_DTLB_prefetch_access 0
Core_0_DTLB_prefetch_hit 0
Core_0_DTLB_prefetch_miss 0
Core_0_DTLB_prefetch_MPKI 0
Core_0_DTLB_prefetch_miss_rate 0
Core_0_DTLB_writeback_access 0
Core_0_DTLB_writeback_hit 0
Core_0_DTLB_writeback_miss 0
Core_0_DTLB_writeback_MPKI 0
Core_0_DTLB_writeback_miss_rate 0
Core_0_DTLB_prefetch_requested 0
Core_0_DTLB_prefetch_issued 0
Core_0_DTLB_prefetch_useful 0
Core_0_DTLB_prefetch_useless 0
Core_0_DTLB_prefetch_late 0
Core_0_DTLB_prefetch_accuracy 0
Core_0_DTLB_prefetch_coverage 0

Core_0_STLB_total_access 145195
Core_0_STLB_total_hit 2319
Core_0_STLB_total_miss 142876
Core_0_STLB_total_MPKI 2.85752
Core_0_STLB_total_miss_rate 0.984028
Core_0_STLB_demand_access 145195
Core_0_STLB_demand_hit 2319
Core_0_STLB_demand_miss 142876
Core_0_STLB_demand_MPKI 2.85752
Core_0_STLB_demand_miss_rate 0.984028
Core_0_STLB_load_access 145195
Core_0_STLB_load_hit 2319
Core_0_STLB_load_miss 142876
Core_0_STLB_load_MPKI 2.85752
Core_0_STLB_load_miss_rate 0.984028
Core_0_STLB_rfo_access 0
Core_0_STLB_rfo_hit 0
Core_0_STLB_rfo_miss 0
Core_0_STLB_rfo_MPKI 0
Core_0_STLB_rfo_miss_rate 0
Core_0_STLB_prefetch_access 0
Core_0_STLB_prefetch_hit 0
Core_0_STLB_prefetch_miss 0
Core_0_STLB_prefetch_MPKI 0
Core_0_STLB_prefetch_miss_rate 0
Core_0_STLB_writeback_access 0
Core_0_STLB_writeback_hit 0
Core_0_STLB_writeback_miss 0
Core_0_STLB_writeback_MPKI 0
Core_0_STLB_writeback_miss_rate 0
Core_0_STLB_prefetch_requested 0
Core_0_STLB_prefetch_issued 0
Core_0_STLB_prefetch_useful 0
Core_0_STLB_prefetch_useless 0
Core_0_STLB_prefetch_late 0
Core_0_STLB_prefetch_accuracy 0
Core_0_STLB_prefetch_coverage 0

Core_0_L1I_total_access 1753091
Core_0_L1I_total_hit 1753091
Core_0_L1I_total_miss 0
Core_0_L1I_total_MPKI 0
Core_0_L1I_total_miss_rate 0
Core_0_L1I_demand_access 1753091
Core_0_L1I_demand_hit 1753091
Core_0_L1I_demand_miss 0
Core_0_L1I_demand_MPKI 0
Core_0_L1I_demand_miss_rate 0
Core_0_L1I_load_access 1753091
Core_0_L1I_load_hit 1753091
Core_0_L1I_load_miss 0
Core_0_L1I_load_MPKI 0
Core_0_L1I_load_miss_rate 0
Core_0_L1I_rfo_access 0
Core_0_L1I_rfo_hit 0
Core_0_L1I_rfo_miss 0
Core_0_L1I_rfo_MPKI 0
Core_0_L1I_rfo_miss_rate 0
Core_0_L1I_prefetch_access 0
Core_0_L1I_prefetch_hit 0
Core_0_L1I_prefetch_miss 0
Core_0_L1I_prefetch_MPKI 0
Core_0_L1I_prefetch_miss_rate 0
Core_0_L1I_writeback_access 0
Core_0_L1I_writeback_hit 0
Core_0_L1I_writeback_miss 0
Core_0_L1I_writeback_MPKI 0
Core_0_L1I_writeback_miss_rate 0
Core_0_L1I_prefetch_requested 0
Core_0_L1I_prefetch_issued 0
Core_0_L1I_prefetch_useful 0
Core_0_L1I_prefetch_useless 0
Core_0_L1I_prefetch_late 0
Core_0_L1I_prefetch_accuracy 0
Core_0_L1I_prefetch_coverage 0

Core_0_L1D_total_access 4815161
Core_0_L1D_total_hit 4436732
Core_0_L1D_total_miss 378429
Core_0_L1D_total_MPKI 7.56858
Core_0_L1D_total_miss_rate 0.0785911
Core_0_L1D_demand_access 4807708
Core_0_L1D_demand_hit 4432792
Core_0_L1D_demand_miss 374916
Core_0_L1D_demand_MPKI 7.49832
Core_0_L1D_demand_miss_rate 0.0779823
Core_0_L1D_load_access 4807708
Core_0_L1D_load_hit 4432792
Core_0_L1D_load_miss 374916
Core_0_L1D_load_MPKI 7.49832
Core_0_L1D_load_miss_rate 0.0779823
Core_0_L1D_rfo_access 0
Core_0_L1D_rfo_hit 0
Core_0_L1D_rfo_miss 0
Core_0_L1D_rfo_MPKI 0
Core_0_L1D_rfo_miss_rate 0
Core_0_L1D_prefetch_access 0
Core_0_L1D_prefetch_hit 0
Core_0_L1D_prefetch_miss 0
Core_0_L1D_prefetch_MPKI 0
Core_0_L1D_prefetch_miss_rate 0
Core_0_L1D_writeback_access 7453
Core_0_L1D_writeback_hit 3940
Core_0_L1D_writeback_miss 3513
Core_0_L1D_writeback_MPKI 0.07026
Core_0_L1D_writeback_miss_rate 0.471354
Core_0_L1D_prefetch_requested 0
Core_0_L1D_prefetch_issued 0
Core_0_L1D_prefetch_useful 0
Core_0_L1D_prefetch_useless 0
Core_0_L1D_prefetch_late 0
Core_0_L1D_prefetch_accuracy 0
Core_0_L1D_prefetch_coverage 0

Core_0_L2C_total_access 217279
Core_0_L2C_total_hit 7722
Core_0_L2C_total_miss 209557
Core_0_L2C_total_MPKI 4.19114
Core_0_L2C_total_miss_rate 0.96446
Core_0_L2C_demand_access 210133
Core_0_L2C_demand_hit 576
Core_0_L2C_demand_miss 209557
Core_0_L2C_demand_MPKI 4.19114
Core_0_L2C_demand_miss_rate 0.997259
Core_0_L2C_load_access 206621
Core_0_L2C_load_hit 575
Core_0_L2C_load_miss 206046
Core_0_L2C_load_MPKI 4.12092
Core_0_L2C_load_miss_rate 0.997217
Core_0_L2C_rfo_access 3512
Core_0_L2C_rfo_hit 1
Core_0_L2C_rfo_miss 3511
Core_0_L2C_rfo_MPKI 0.07022
Core_0_L2C_rfo_miss_rate 0.999715
Core_0_L2C_prefetch_access 0
Core_0_L2C_prefetch_hit 0
Core_0_L2C_prefetch_miss 0
Core_0_L2C_prefetch_MPKI 0
Core_0_L2C_prefetch_miss_rate 0
Core_0_L2C_writeback_access 7146
Core_0_L2C_writeback_hit 7146
Core_0_L2C_writeback_miss 0
Core_0_L2C_writeback_MPKI 0
Core_0_L2C_writeback_miss_rate 0
Core_0_L2C_prefetch_requested 0
Core_0_L2C_prefetch_issued 0
Core_0_L2C_prefetch_useful 0
Core_0_L2C_prefetch_useless 0
Core_0_L2C_prefetch_late 0
Core_0_L2C_prefetch_accuracy 0
Core_0_L2C_prefetch_coverage 0

Core_0_LLC_total_access 216623
Core_0_LLC_total_hit 6484
Core_0_LLC_total_miss 210139
Core_0_LLC_total_MPKI 4.20278
Core_0_LLC_total_miss_rate 0.970068
Core_0_LLC_demand_access 209557
Core_0_LLC_demand_hit 271
Core_0_LLC_demand_miss 209286
Core_0_LLC_demand_MPKI 4.18572
Core_0_LLC_demand_miss_rate 0.998707
Core_0_LLC_load_access 206046
Core_0_LLC_load_hit 270
Core_0_LLC_load_miss 205776
Core_0_LLC_load_MPKI 4.11552
Core_0_LLC_load_miss_rate 0.99869
Core_0_LLC_rfo_access 3511
Core_0_LLC_rfo_hit 1
Core_0_LLC_rfo_miss 3510
Core_0_LLC_rfo_MPKI 0.0702
Core_0_LLC_rfo_miss_rate 0.999715
Core_0_LLC_prefetch_access 0
Core_0_LLC_prefetch_hit 0
Core_0_LLC_prefetch_miss 0
Core_0_LLC_prefetch_MPKI 0
Core_0_LLC_prefetch_miss_rate 0
Core_0_LLC_writeback_access 7066
Core_0_LLC_writeback_hit 6213
Core_0_LLC_writeback_miss 853
Core_0_LLC_writeback_MPKI 0.01706
Core_0_LLC_writeback_miss_rate 0.120719
Core_0_LLC_prefetch_requested 0
Core_0_LLC_prefetch_issued 0
Core_0_LLC_prefetch_useful 0
Core_0_LLC_prefetch_useless 0
Core_0_LLC_prefetch_late 0
Core_0_LLC_prefetch_accuracy 0
Core_0_LLC_prefetch_coverage 0

[DRAM Statistics]
Channel_0_RQ_row_buffer_hit 1095
Channel_0_RQ_row_buffer_miss 288664
Channel_0_WQ_row_buffer_hit 1968
Channel_0_WQ_row_buffer_miss 4320
Channel_0_WQ_full 0
Channel_0_dbus_congested 217503
DRAM_total_RQ_row_buffer_hit 1095
DRAM_total_RQ_row_buffer_miss 288664
DRAM_total_WQ_row_buffer_hit 1968
DRAM_total_WQ_row_buffer_miss 4320
DRAM_total_WQ_full 0
DRAM_total_dbus_congested 217503
DRAM_avg_congested_cycle 11.8933

====== DRAM_RQ_TRAFFIC ========
DRAM_RQ_READ_TRAFFIC_BREAKDOWN:
data_demand_read.count = 209286
data_demand_read.share = 72.23%

inst_demand_read.count = 0
inst_demand_read.share = 0.00%

cache_inst_prefetch.count = 0
cache_inst_prefetch.share = 0.00%

cache_data_prefetch.count = 0
cache_data_prefetch.share = 0.00%

stlb_data_demand.count = 80473
stlb_data_demand.share = 27.77%

stlb_inst_demand.count = 0
stlb_inst_demand.share = 0.00%

stlb_l1i_pref.count = 0
stlb_l1i_pref.share = 0.00%

stlb_l1d_pref.count = 0
stlb_l1d_pref.share = 0.00%

DRAM_RQ_READ_TRAFFIC_SUMMARY:
cache_demand.count = 209286
cache_demand.share = 72.23%

cache_prefetch.count = 0
cache_prefetch.share = 0.00%

stlb_demand.count = 80473
stlb_demand.share = 27.77%

stlb_prefetch.count = 0
stlb_prefetch.share = 0.00%

DRAM_RQ_READ_TRAFFIC_DEBUG:
total_classified_read.count = 289759
unclassified_read.count = 0
total_read_with_other.count = 289759

classified_plus_unclassified_check.count = 289759
dram_rq_read_total_observed.count = 289759
dram_rq_read_total_observed.per_1K_instructions = 5.79518

STLB_MISS_PTW_DRAM_TOUCH_BREAKDOWN:
stlb_miss_total.count = 142876

stlb_miss_touch_dram.count = 80442
stlb_miss_touch_dram.share = 56.30%

stlb_miss_no_dram_touch.count = 62434
stlb_miss_no_dram_touch.share = 43.70%

STLB_MISS_PTW_DRAM_TOUCH_DEBUG:
stlb_miss_touch_plus_no_touch.count = 142876
stlb_miss_total_check.count = 142876

======STLB miss causes ========
Core_0_STLB_miss_cause_breakdown
Core_0_STLB_cause_Demand_Data_miss 142876
Core_0_STLB_cause_Demand_Data_miss_rate 0.984028
Core_0_STLB_cause_Demand_Instruction_miss 0
Core_0_STLB_cause_Demand_Instruction_miss_rate 0
Core_0_STLB_cause_L1D_Prefetch_miss 0
Core_0_STLB_cause_L1D_Prefetch_miss_rate 0
Core_0_STLB_cause_L1I_Prefetch_miss 0
Core_0_STLB_cause_L1I_Prefetch_miss_rate 0
Core_0_STLB_cause_Other_miss 0
Core_0_STLB_cause_Other_miss_rate 0
Core_0_STLB_Demand_miss 142876
Core_0_STLB_Demand_miss_rate 0.984028
Core_0_STLB_L1D_Prefetch_miss 0
Core_0_STLB_L1D_Prefetch_miss_rate 0
Core_0_STLB_Other_miss 0
Core_0_STLB_Other_miss_rate 0
