[VMEM] WARNING: physical memory size is smaller than virtual memory size.

*** ChampSim Multicore Out-of-Order Simulator ***
Warmup Instructions: 20000000
Simulation Instructions: 50000000
Number of CPUs: 1
Page size: 4096
Core 0: /data2/zcq/champsim_traces_gap/bc.road-131B.champsimtrace.xz
Off-chip DRAM Size: 16 GiB Channels: 1 Width: 64-bit Data Rate: 3205 MT/s
Warmup halting CPU 0 at instruction 20000003 cycle 5808978 for remainder of phase
Warmup finished CPU 0 instructions: 20000003 cycles: 5808978 cumulative IPC: 3.443 (Simulation time: 00 hr 01 min 08 sec)
Warmup complete CPU 0 instructions: 20000003 cycles: 5808978 cumulative IPC: 3.443 (Simulation time: 00 hr 01 min 08 sec)
Simulation finished CPU 0 instructions: 50000002 cycles: 317939727 cumulative IPC: 0.1573 (Simulation time: 00 hr 21 min 06 sec)
Simulation complete CPU 0 instructions: 50000002 cycles: 317939727 cumulative IPC: 0.1573 (Simulation time: 00 hr 21 min 06 sec)

ChampSim completed all CPUs

=== Simulation ===
CPU 0 runs /data2/zcq/champsim_traces_gap/bc.road-131B.champsimtrace.xz

Region of Interest Statistics

CPU 0 cumulative IPC: 0.1573 instructions: 50000002 cycles: 317939727
CPU 0 Branch Prediction Accuracy: 87.81% MPKI: 18.23 Average ROB Occupancy at Mispredict: 34.83
Branch type MPKI
BRANCH_DIRECT_JUMP: 0
BRANCH_INDIRECT: 0
BRANCH_CONDITIONAL: 18.23
BRANCH_DIRECT_CALL: 0
BRANCH_INDIRECT_CALL: 0
BRANCH_RETURN: 0

cpu0->cpu0_STLB TOTAL        ACCESS:     750507 HIT:     336711 MISS:     413796 MSHR_MERGE:          0
cpu0->cpu0_STLB LOAD         ACCESS:     750507 HIT:     336711 MISS:     413796 MSHR_MERGE:          0
cpu0->cpu0_STLB RFO          ACCESS:          0 HIT:          0 MISS:          0 MSHR_MERGE:          0
cpu0->cpu0_STLB PREFETCH     ACCESS:          0 HIT:          0 MISS:          0 MSHR_MERGE:          0
cpu0->cpu0_STLB WRITE        ACCESS:          0 HIT:          0 MISS:          0 MSHR_MERGE:          0
cpu0->cpu0_STLB TRANSLATION  ACCESS:          0 HIT:          0 MISS:          0 MSHR_MERGE:          0
cpu0->cpu0_STLB PREFETCH REQUESTED:          0 ISSUED:          0 USEFUL:          0 USELESS:          0 LATE:          0
cpu0->cpu0_STLB AVERAGE MISS LATENCY: 44.65 cycles
cpu0->cpu0_L2C TOTAL        ACCESS:    3885637 HIT:    1206321 MISS:    2679316 MSHR_MERGE:          0
cpu0->cpu0_L2C LOAD         ACCESS:    2505395 HIT:      57290 MISS:    2448105 MSHR_MERGE:          0
cpu0->cpu0_L2C RFO          ACCESS:      75824 HIT:       8087 MISS:      67737 MSHR_MERGE:          0
cpu0->cpu0_L2C PREFETCH     ACCESS:          0 HIT:          0 MISS:          0 MSHR_MERGE:          0
cpu0->cpu0_L2C WRITE        ACCESS:    1086978 HIT:    1086508 MISS:        470 MSHR_MERGE:          0
cpu0->cpu0_L2C TRANSLATION  ACCESS:     217440 HIT:      54436 MISS:     163004 MSHR_MERGE:          0
cpu0->cpu0_L2C PREFETCH REQUESTED:          0 ISSUED:          0 USEFUL:          0 USELESS:          0 LATE:          0
cpu0->cpu0_L2C AVERAGE MISS LATENCY: 125.1 cycles
cpu0->cpu0_L1I TOTAL        ACCESS:    2400723 HIT:    2400723 MISS:          0 MSHR_MERGE:          0
cpu0->cpu0_L1I LOAD         ACCESS:    2400723 HIT:    2400723 MISS:          0 MSHR_MERGE:          0
cpu0->cpu0_L1I RFO          ACCESS:          0 HIT:          0 MISS:          0 MSHR_MERGE:          0
cpu0->cpu0_L1I PREFETCH     ACCESS:          0 HIT:          0 MISS:          0 MSHR_MERGE:          0
cpu0->cpu0_L1I WRITE        ACCESS:          0 HIT:          0 MISS:          0 MSHR_MERGE:          0
cpu0->cpu0_L1I TRANSLATION  ACCESS:          0 HIT:          0 MISS:          0 MSHR_MERGE:          0
cpu0->cpu0_L1I PREFETCH REQUESTED:          0 ISSUED:          0 USEFUL:          0 USELESS:          0 LATE:          0
cpu0->cpu0_L1I AVERAGE MISS LATENCY: - cycles
cpu0->cpu0_L1D TOTAL        ACCESS:   24696159 HIT:   20327498 MISS:    4368661 MSHR_MERGE:    1569998
cpu0->cpu0_L1D LOAD         ACCESS:   18847435 HIT:   15858589 MISS:    2988846 MSHR_MERGE:     483447
cpu0->cpu0_L1D RFO          ACCESS:          0 HIT:          0 MISS:          0 MSHR_MERGE:          0
cpu0->cpu0_L1D PREFETCH     ACCESS:          0 HIT:          0 MISS:          0 MSHR_MERGE:          0
cpu0->cpu0_L1D WRITE        ACCESS:    4976787 HIT:    3815844 MISS:    1160943 MSHR_MERGE:    1085119
cpu0->cpu0_L1D TRANSLATION  ACCESS:     871937 HIT:     653065 MISS:     218872 MSHR_MERGE:       1432
cpu0->cpu0_L1D PREFETCH REQUESTED:          0 ISSUED:          0 USEFUL:          0 USELESS:          0 LATE:          0
cpu0->cpu0_L1D AVERAGE MISS LATENCY: 128.7 cycles
cpu0->cpu0_ITLB TOTAL        ACCESS:    2400050 HIT:    2400050 MISS:          0 MSHR_MERGE:          0
cpu0->cpu0_ITLB LOAD         ACCESS:    2400050 HIT:    2400050 MISS:          0 MSHR_MERGE:          0
cpu0->cpu0_ITLB RFO          ACCESS:          0 HIT:          0 MISS:          0 MSHR_MERGE:          0
cpu0->cpu0_ITLB PREFETCH     ACCESS:          0 HIT:          0 MISS:          0 MSHR_MERGE:          0
cpu0->cpu0_ITLB WRITE        ACCESS:          0 HIT:          0 MISS:          0 MSHR_MERGE:          0
cpu0->cpu0_ITLB TRANSLATION  ACCESS:          0 HIT:          0 MISS:          0 MSHR_MERGE:          0
cpu0->cpu0_ITLB PREFETCH REQUESTED:          0 ISSUED:          0 USEFUL:          0 USELESS:          0 LATE:          0
cpu0->cpu0_ITLB AVERAGE MISS LATENCY: - cycles
cpu0->cpu0_DTLB TOTAL        ACCESS:   23806814 HIT:   22854784 MISS:     952030 MSHR_MERGE:     201523
cpu0->cpu0_DTLB LOAD         ACCESS:   23806814 HIT:   22854784 MISS:     952030 MSHR_MERGE:     201523
cpu0->cpu0_DTLB RFO          ACCESS:          0 HIT:          0 MISS:          0 MSHR_MERGE:          0
cpu0->cpu0_DTLB PREFETCH     ACCESS:          0 HIT:          0 MISS:          0 MSHR_MERGE:          0
cpu0->cpu0_DTLB WRITE        ACCESS:          0 HIT:          0 MISS:          0 MSHR_MERGE:          0
cpu0->cpu0_DTLB TRANSLATION  ACCESS:          0 HIT:          0 MISS:          0 MSHR_MERGE:          0
cpu0->cpu0_DTLB PREFETCH REQUESTED:          0 ISSUED:          0 USEFUL:          0 USELESS:          0 LATE:          0
cpu0->cpu0_DTLB AVERAGE MISS LATENCY: 30.17 cycles
cpu0->LLC TOTAL        ACCESS:    3742405 HIT:    1897114 MISS:    1845291 MSHR_MERGE:          0
cpu0->LLC LOAD         ACCESS:    2448105 HIT:     979288 MISS:    1468817 MSHR_MERGE:          0
cpu0->LLC RFO          ACCESS:      67737 HIT:      29377 MISS:      38360 MSHR_MERGE:          0
cpu0->LLC PREFETCH     ACCESS:          0 HIT:          0 MISS:          0 MSHR_MERGE:          0
cpu0->LLC WRITE        ACCESS:    1063559 HIT:     769474 MISS:     294085 MSHR_MERGE:          0
cpu0->LLC TRANSLATION  ACCESS:     163004 HIT:     118975 MISS:      44029 MSHR_MERGE:          0
cpu0->LLC PREFETCH REQUESTED:          0 ISSUED:          0 USEFUL:          0 USELESS:          0 LATE:          0
cpu0->LLC AVERAGE MISS LATENCY: 160.4 cycles

DRAM Statistics

Channel 0 RQ ROW_BUFFER_HIT:       4819
  ROW_BUFFER_MISS:    1546056
  AVG DBUS CONGESTED CYCLE: 23.2
Channel 0 WQ ROW_BUFFER_HIT:     189946
  ROW_BUFFER_MISS:     213015
  FULL:          0
Channel 0 REFRESHES ISSUED:      26495

[ROI Statistics]
[System Configuration]
num_cpus 1
cpu_freq 4000
fetch_width 6
decode_width 6
dispatch_width 6
execute_width 6
lq_width 2
sq_width 2
retire_width 6
scheduler_size 128
branch_mispredict_penalty 15
rob_size 352
lq_size 128
sq_size 72
ifetch_buffer_size 64
decode_buffer_size 32
dispatch_buffer_size 32
register_file_size 288
decode_latency 1
dispatch_latency 1
schedule_latency 1
execute_latency 1
page_size 4096
block_size 64
core_0_itlb_set 16
core_0_itlb_way 4
core_0_itlb_rq_size 16
core_0_itlb_wq_size 16
core_0_itlb_pq_size 0
core_0_itlb_mshr_size 8
core_0_itlb_hit_latency 1
core_0_itlb_fill_latency 1
core_0_itlb_max_tag_check 2
core_0_itlb_max_fill 2
core_0_dtlb_set 16
core_0_dtlb_way 4
core_0_dtlb_rq_size 16
core_0_dtlb_wq_size 16
core_0_dtlb_pq_size 0
core_0_dtlb_mshr_size 8
core_0_dtlb_hit_latency 1
core_0_dtlb_fill_latency 1
core_0_dtlb_max_tag_check 2
core_0_dtlb_max_fill 2
core_0_stlb_set 128
core_0_stlb_way 12
core_0_stlb_rq_size 32
core_0_stlb_wq_size 32
core_0_stlb_pq_size 0
core_0_stlb_mshr_size 16
core_0_stlb_hit_latency 4
core_0_stlb_fill_latency 4
core_0_stlb_max_tag_check 1
core_0_stlb_max_fill 1
core_0_l1i_set 64
core_0_l1i_way 8
core_0_l1i_rq_size 64
core_0_l1i_wq_size 64
core_0_l1i_pq_size 32
core_0_l1i_mshr_size 8
core_0_l1i_hit_latency 2
core_0_l1i_fill_latency 2
core_0_l1i_max_tag_check 2
core_0_l1i_max_fill 2
core_0_l1d_set 64
core_0_l1d_way 12
core_0_l1d_rq_size 64
core_0_l1d_wq_size 64
core_0_l1d_pq_size 8
core_0_l1d_mshr_size 16
core_0_l1d_hit_latency 2
core_0_l1d_fill_latency 3
core_0_l1d_max_tag_check 2
core_0_l1d_max_fill 2
core_0_l2c_set 1024
core_0_l2c_way 8
core_0_l2c_rq_size 32
core_0_l2c_wq_size 32
core_0_l2c_pq_size 16
core_0_l2c_mshr_size 32
core_0_l2c_hit_latency 5
core_0_l2c_fill_latency 5
core_0_l2c_max_tag_check 1
core_0_l2c_max_fill 1
llc_set 2048
llc_way 16
llc_rq_size 32
llc_wq_size 32
llc_pq_size 32
llc_mshr_size 64
llc_hit_latency 10
llc_fill_latency 10
llc_max_tag_check 1
llc_max_fill 1
dram_channels 1
dram_ranks 1
dram_bankgroups 8
dram_banks 4
dram_rows 65536
dram_columns 1024
dram_channel_width 8
dram_rq_size 64
dram_wq_size 64
dram_size 17179869184
core_0_itlb_prefetcher no
core_0_dtlb_prefetcher no
core_0_stlb_prefetcher no
core_0_l1i_prefetcher no
core_0_l1d_prefetcher no
core_0_l2c_prefetcher no
llc_prefetcher no
llc_replacement drrip

Core_0_instructions 50000002
Core_0_cycles 317939727
Core_0_IPC 0.157263
Core_0_branch_prediction_accuracy 87.8138
Core_0_branch_MPKI 18.2312
Core_0_average_ROB_occupancy_at_mispredict 34.8267

Core_0_ITLB_total_access 2400050
Core_0_ITLB_total_hit 2400050
Core_0_ITLB_total_miss 0
Core_0_ITLB_total_MPKI 0
Core_0_ITLB_total_miss_rate 0
Core_0_ITLB_demand_access 2400050
Core_0_ITLB_demand_hit 2400050
Core_0_ITLB_demand_miss 0
Core_0_ITLB_demand_MPKI 0
Core_0_ITLB_demand_miss_rate 0
Core_0_ITLB_load_access 2400050
Core_0_ITLB_load_hit 2400050
Core_0_ITLB_load_miss 0
Core_0_ITLB_load_MPKI 0
Core_0_ITLB_load_miss_rate 0
Core_0_ITLB_rfo_access 0
Core_0_ITLB_rfo_hit 0
Core_0_ITLB_rfo_miss 0
Core_0_ITLB_rfo_MPKI 0
Core_0_ITLB_rfo_miss_rate 0
Core_0_ITLB_prefetch_access 0
Core_0_ITLB_prefetch_hit 0
Core_0_ITLB_prefetch_miss 0
Core_0_ITLB_prefetch_MPKI 0
Core_0_ITLB_prefetch_miss_rate 0
Core_0_ITLB_writeback_access 0
Core_0_ITLB_writeback_hit 0
Core_0_ITLB_writeback_miss 0
Core_0_ITLB_writeback_MPKI 0
Core_0_ITLB_writeback_miss_rate 0
Core_0_ITLB_prefetch_requested 0
Core_0_ITLB_prefetch_issued 0
Core_0_ITLB_prefetch_useful 0
Core_0_ITLB_prefetch_useless 0
Core_0_ITLB_prefetch_late 0
Core_0_ITLB_prefetch_accuracy 0
Core_0_ITLB_prefetch_coverage 0

Core_0_DTLB_total_access 23806814
Core_0_DTLB_total_hit 22854784
Core_0_DTLB_total_miss 952030
Core_0_DTLB_total_MPKI 19.0406
Core_0_DTLB_total_miss_rate 0.0399898
Core_0_DTLB_demand_access 23806814
Core_0_DTLB_demand_hit 22854784
Core_0_DTLB_demand_miss 952030
Core_0_DTLB_demand_MPKI 19.0406
Core_0_DTLB_demand_miss_rate 0.0399898
Core_0_DTLB_load_access 23806814
Core_0_DTLB_load_hit 22854784
Core_0_DTLB_load_miss 952030
Core_0_DTLB_load_MPKI 19.0406
Core_0_DTLB_load_miss_rate 0.0399898
Core_0_DTLB_rfo_access 0
Core_0_DTLB_rfo_hit 0
Core_0_DTLB_rfo_miss 0
Core_0_DTLB_rfo_MPKI 0
Core_0_DTLB_rfo_miss_rate 0
Core_0_DTLB_prefetch_access 0
Core_0_DTLB_prefetch_hit 0
Core_0_DTLB_prefetch_miss 0
Core_0_DTLB_prefetch_MPKI 0
Core_0_DTLB_prefetch_miss_rate 0
Core_0_DTLB_writeback_access 0
Core_0_DTLB_writeback_hit 0
Core_0_DTLB_writeback_miss 0
Core_0_DTLB_writeback_MPKI 0
Core_0_DTLB_writeback_miss_rate 0
Core_0_DTLB_prefetch_requested 0
Core_0_DTLB_prefetch_issued 0
Core_0_DTLB_prefetch_useful 0
Core_0_DTLB_prefetch_useless 0
Core_0_DTLB_prefetch_late 0
Core_0_DTLB_prefetch_accuracy 0
Core_0_DTLB_prefetch_coverage 0

Core_0_STLB_total_access 750507
Core_0_STLB_total_hit 336711
Core_0_STLB_total_miss 413796
Core_0_STLB_total_MPKI 8.27592
Core_0_STLB_total_miss_rate 0.551355
Core_0_STLB_demand_access 750507
Core_0_STLB_demand_hit 336711
Core_0_STLB_demand_miss 413796
Core_0_STLB_demand_MPKI 8.27592
Core_0_STLB_demand_miss_rate 0.551355
Core_0_STLB_load_access 750507
Core_0_STLB_load_hit 336711
Core_0_STLB_load_miss 413796
Core_0_STLB_load_MPKI 8.27592
Core_0_STLB_load_miss_rate 0.551355
Core_0_STLB_rfo_access 0
Core_0_STLB_rfo_hit 0
Core_0_STLB_rfo_miss 0
Core_0_STLB_rfo_MPKI 0
Core_0_STLB_rfo_miss_rate 0
Core_0_STLB_prefetch_access 0
Core_0_STLB_prefetch_hit 0
Core_0_STLB_prefetch_miss 0
Core_0_STLB_prefetch_MPKI 0
Core_0_STLB_prefetch_miss_rate 0
Core_0_STLB_writeback_access 0
Core_0_STLB_writeback_hit 0
Core_0_STLB_writeback_miss 0
Core_0_STLB_writeback_MPKI 0
Core_0_STLB_writeback_miss_rate 0
Core_0_STLB_prefetch_requested 0
Core_0_STLB_prefetch_issued 0
Core_0_STLB_prefetch_useful 0
Core_0_STLB_prefetch_useless 0
Core_0_STLB_prefetch_late 0
Core_0_STLB_prefetch_accuracy 0
Core_0_STLB_prefetch_coverage 0

Core_0_L1I_total_access 2400723
Core_0_L1I_total_hit 2400723
Core_0_L1I_total_miss 0
Core_0_L1I_total_MPKI 0
Core_0_L1I_total_miss_rate 0
Core_0_L1I_demand_access 2400723
Core_0_L1I_demand_hit 2400723
Core_0_L1I_demand_miss 0
Core_0_L1I_demand_MPKI 0
Core_0_L1I_demand_miss_rate 0
Core_0_L1I_load_access 2400723
Core_0_L1I_load_hit 2400723
Core_0_L1I_load_miss 0
Core_0_L1I_load_MPKI 0
Core_0_L1I_load_miss_rate 0
Core_0_L1I_rfo_access 0
Core_0_L1I_rfo_hit 0
Core_0_L1I_rfo_miss 0
Core_0_L1I_rfo_MPKI 0
Core_0_L1I_rfo_miss_rate 0
Core_0_L1I_prefetch_access 0
Core_0_L1I_prefetch_hit 0
Core_0_L1I_prefetch_miss 0
Core_0_L1I_prefetch_MPKI 0
Core_0_L1I_prefetch_miss_rate 0
Core_0_L1I_writeback_access 0
Core_0_L1I_writeback_hit 0
Core_0_L1I_writeback_miss 0
Core_0_L1I_writeback_MPKI 0
Core_0_L1I_writeback_miss_rate 0
Core_0_L1I_prefetch_requested 0
Core_0_L1I_prefetch_issued 0
Core_0_L1I_prefetch_useful 0
Core_0_L1I_prefetch_useless 0
Core_0_L1I_prefetch_late 0
Core_0_L1I_prefetch_accuracy 0
Core_0_L1I_prefetch_coverage 0

Core_0_L1D_total_access 23824222
Core_0_L1D_total_hit 19674433
Core_0_L1D_total_miss 4149789
Core_0_L1D_total_MPKI 82.9958
Core_0_L1D_total_miss_rate 0.174184
Core_0_L1D_demand_access 18847435
Core_0_L1D_demand_hit 15858589
Core_0_L1D_demand_miss 2988846
Core_0_L1D_demand_MPKI 59.7769
Core_0_L1D_demand_miss_rate 0.158581
Core_0_L1D_load_access 18847435
Core_0_L1D_load_hit 15858589
Core_0_L1D_load_miss 2988846
Core_0_L1D_load_MPKI 59.7769
Core_0_L1D_load_miss_rate 0.158581
Core_0_L1D_rfo_access 0
Core_0_L1D_rfo_hit 0
Core_0_L1D_rfo_miss 0
Core_0_L1D_rfo_MPKI 0
Core_0_L1D_rfo_miss_rate 0
Core_0_L1D_prefetch_access 0
Core_0_L1D_prefetch_hit 0
Core_0_L1D_prefetch_miss 0
Core_0_L1D_prefetch_MPKI 0
Core_0_L1D_prefetch_miss_rate 0
Core_0_L1D_writeback_access 4976787
Core_0_L1D_writeback_hit 3815844
Core_0_L1D_writeback_miss 1160943
Core_0_L1D_writeback_MPKI 23.2189
Core_0_L1D_writeback_miss_rate 0.233272
Core_0_L1D_prefetch_requested 0
Core_0_L1D_prefetch_issued 0
Core_0_L1D_prefetch_useful 0
Core_0_L1D_prefetch_useless 0
Core_0_L1D_prefetch_late 0
Core_0_L1D_prefetch_accuracy 0
Core_0_L1D_prefetch_coverage 0

Core_0_L2C_total_access 3668197
Core_0_L2C_total_hit 1151885
Core_0_L2C_total_miss 2516312
Core_0_L2C_total_MPKI 50.3262
Core_0_L2C_total_miss_rate 0.685981
Core_0_L2C_demand_access 2581219
Core_0_L2C_demand_hit 65377
Core_0_L2C_demand_miss 2515842
Core_0_L2C_demand_MPKI 50.3168
Core_0_L2C_demand_miss_rate 0.974672
Core_0_L2C_load_access 2505395
Core_0_L2C_load_hit 57290
Core_0_L2C_load_miss 2448105
Core_0_L2C_load_MPKI 48.9621
Core_0_L2C_load_miss_rate 0.977133
Core_0_L2C_rfo_access 75824
Core_0_L2C_rfo_hit 8087
Core_0_L2C_rfo_miss 67737
Core_0_L2C_rfo_MPKI 1.35474
Core_0_L2C_rfo_miss_rate 0.893345
Core_0_L2C_prefetch_access 0
Core_0_L2C_prefetch_hit 0
Core_0_L2C_prefetch_miss 0
Core_0_L2C_prefetch_MPKI 0
Core_0_L2C_prefetch_miss_rate 0
Core_0_L2C_writeback_access 1086978
Core_0_L2C_writeback_hit 1086508
Core_0_L2C_writeback_miss 470
Core_0_L2C_writeback_MPKI 0.0094
Core_0_L2C_writeback_miss_rate 0.000432391
Core_0_L2C_prefetch_requested 0
Core_0_L2C_prefetch_issued 0
Core_0_L2C_prefetch_useful 0
Core_0_L2C_prefetch_useless 0
Core_0_L2C_prefetch_late 0
Core_0_L2C_prefetch_accuracy 0
Core_0_L2C_prefetch_coverage 0

Core_0_LLC_total_access 3579401
Core_0_LLC_total_hit 1778139
Core_0_LLC_total_miss 1801262
Core_0_LLC_total_MPKI 36.0252
Core_0_LLC_total_miss_rate 0.50323
Core_0_LLC_demand_access 2515842
Core_0_LLC_demand_hit 1008665
Core_0_LLC_demand_miss 1507177
Core_0_LLC_demand_MPKI 30.1435
Core_0_LLC_demand_miss_rate 0.599075
Core_0_LLC_load_access 2448105
Core_0_LLC_load_hit 979288
Core_0_LLC_load_miss 1468817
Core_0_LLC_load_MPKI 29.3763
Core_0_LLC_load_miss_rate 0.599981
Core_0_LLC_rfo_access 67737
Core_0_LLC_rfo_hit 29377
Core_0_LLC_rfo_miss 38360
Core_0_LLC_rfo_MPKI 0.7672
Core_0_LLC_rfo_miss_rate 0.566308
Core_0_LLC_prefetch_access 0
Core_0_LLC_prefetch_hit 0
Core_0_LLC_prefetch_miss 0
Core_0_LLC_prefetch_MPKI 0
Core_0_LLC_prefetch_miss_rate 0
Core_0_LLC_writeback_access 1063559
Core_0_LLC_writeback_hit 769474
Core_0_LLC_writeback_miss 294085
Core_0_LLC_writeback_MPKI 5.8817
Core_0_LLC_writeback_miss_rate 0.27651
Core_0_LLC_prefetch_requested 0
Core_0_LLC_prefetch_issued 0
Core_0_LLC_prefetch_useful 0
Core_0_LLC_prefetch_useless 0
Core_0_LLC_prefetch_late 0
Core_0_LLC_prefetch_accuracy 0
Core_0_LLC_prefetch_coverage 0

[DRAM Statistics]
Channel_0_RQ_row_buffer_hit 4819
Channel_0_RQ_row_buffer_miss 1546056
Channel_0_WQ_row_buffer_hit 189946
Channel_0_WQ_row_buffer_miss 213015
Channel_0_WQ_full 0
Channel_0_dbus_congested 7817882
DRAM_total_RQ_row_buffer_hit 4819
DRAM_total_RQ_row_buffer_miss 1546056
DRAM_total_WQ_row_buffer_hit 189946
DRAM_total_WQ_row_buffer_miss 213015
DRAM_total_WQ_full 0
DRAM_total_dbus_congested 7817882
DRAM_avg_congested_cycle 23.2012

====== DRAM_RQ_TRAFFIC ========
DRAM_RQ_READ_TRAFFIC_BREAKDOWN:
data_demand_read.count = 1507177
data_demand_read.share = 97.16%

inst_demand_read.count = 0
inst_demand_read.share = 0.00%

cache_inst_prefetch.count = 0
cache_inst_prefetch.share = 0.00%

cache_data_prefetch.count = 0
cache_data_prefetch.share = 0.00%

stlb_data_demand.count = 44029
stlb_data_demand.share = 2.84%

stlb_inst_demand.count = 0
stlb_inst_demand.share = 0.00%

stlb_l1i_pref.count = 0
stlb_l1i_pref.share = 0.00%

stlb_l1d_pref.count = 0
stlb_l1d_pref.share = 0.00%

DRAM_RQ_READ_TRAFFIC_SUMMARY:
cache_demand.count = 1507177
cache_demand.share = 97.16%

cache_prefetch.count = 0
cache_prefetch.share = 0.00%

stlb_demand.count = 44029
stlb_demand.share = 2.84%

stlb_prefetch.count = 0
stlb_prefetch.share = 0.00%

DRAM_RQ_READ_TRAFFIC_DEBUG:
total_classified_read.count = 1551206
unclassified_read.count = 0
total_read_with_other.count = 1551206

classified_plus_unclassified_check.count = 1551206
dram_rq_read_total_observed.count = 1551206
dram_rq_read_total_observed.per_1K_instructions = 31.0241

STLB_MISS_PTW_DRAM_TOUCH_BREAKDOWN:
stlb_miss_total.count = 413796

stlb_miss_touch_dram.count = 43945
stlb_miss_touch_dram.share = 10.62%

stlb_miss_no_dram_touch.count = 369851
stlb_miss_no_dram_touch.share = 89.38%

STLB_MISS_PTW_DRAM_TOUCH_DEBUG:
stlb_miss_touch_plus_no_touch.count = 413796
stlb_miss_total_check.count = 413796

======STLB miss causes ========
Core_0_STLB_miss_cause_breakdown
Core_0_STLB_cause_Demand_Data_miss 413796
Core_0_STLB_cause_Demand_Data_miss_rate 0.551355
Core_0_STLB_cause_Demand_Instruction_miss 0
Core_0_STLB_cause_Demand_Instruction_miss_rate 0
Core_0_STLB_cause_L1D_Prefetch_miss 0
Core_0_STLB_cause_L1D_Prefetch_miss_rate 0
Core_0_STLB_cause_L1I_Prefetch_miss 0
Core_0_STLB_cause_L1I_Prefetch_miss_rate 0
Core_0_STLB_cause_Other_miss 0
Core_0_STLB_cause_Other_miss_rate 0
Core_0_STLB_Demand_miss 413796
Core_0_STLB_Demand_miss_rate 0.551355
Core_0_STLB_L1D_Prefetch_miss 0
Core_0_STLB_L1D_Prefetch_miss_rate 0
Core_0_STLB_Other_miss 0
Core_0_STLB_Other_miss_rate 0
