[VMEM] WARNING: physical memory size is smaller than virtual memory size.

*** ChampSim Multicore Out-of-Order Simulator ***
Warmup Instructions: 20000000
Simulation Instructions: 50000000
Number of CPUs: 1
Page size: 4096
Core 0: /data2/zcq/champsim_traces_gap/bc.road-95B.champsimtrace.xz
Off-chip DRAM Size: 16 GiB Channels: 1 Width: 64-bit Data Rate: 3205 MT/s
Warmup halting CPU 0 at instruction 20000004 cycle 5598732 for remainder of phase
Warmup finished CPU 0 instructions: 20000004 cycles: 5598732 cumulative IPC: 3.572 (Simulation time: 00 hr 01 min 06 sec)
Warmup complete CPU 0 instructions: 20000004 cycles: 5598732 cumulative IPC: 3.572 (Simulation time: 00 hr 01 min 06 sec)
Simulation finished CPU 0 instructions: 50000003 cycles: 227978025 cumulative IPC: 0.2193 (Simulation time: 00 hr 16 min 05 sec)
Simulation complete CPU 0 instructions: 50000003 cycles: 227978025 cumulative IPC: 0.2193 (Simulation time: 00 hr 16 min 05 sec)

ChampSim completed all CPUs

=== Simulation ===
CPU 0 runs /data2/zcq/champsim_traces_gap/bc.road-95B.champsimtrace.xz

Region of Interest Statistics

CPU 0 cumulative IPC: 0.2193 instructions: 50000003 cycles: 227978025
CPU 0 Branch Prediction Accuracy: 87.89% MPKI: 18.14 Average ROB Occupancy at Mispredict: 35.84
Branch type MPKI
BRANCH_DIRECT_JUMP: 0
BRANCH_INDIRECT: 0
BRANCH_CONDITIONAL: 18.14
BRANCH_DIRECT_CALL: 0
BRANCH_INDIRECT_CALL: 0
BRANCH_RETURN: 0

cpu0->cpu0_STLB TOTAL        ACCESS:     749221 HIT:     381302 MISS:     367919 MSHR_MERGE:          0
cpu0->cpu0_STLB LOAD         ACCESS:     749221 HIT:     381302 MISS:     367919 MSHR_MERGE:          0
cpu0->cpu0_STLB RFO          ACCESS:          0 HIT:          0 MISS:          0 MSHR_MERGE:          0
cpu0->cpu0_STLB PREFETCH     ACCESS:          0 HIT:          0 MISS:          0 MSHR_MERGE:          0
cpu0->cpu0_STLB WRITE        ACCESS:          0 HIT:          0 MISS:          0 MSHR_MERGE:          0
cpu0->cpu0_STLB TRANSLATION  ACCESS:          0 HIT:          0 MISS:          0 MSHR_MERGE:          0
cpu0->cpu0_STLB PREFETCH REQUESTED:          0 ISSUED:          0 USEFUL:          0 USELESS:          0 LATE:          0
cpu0->cpu0_STLB AVERAGE MISS LATENCY: 26.01 cycles
cpu0->cpu0_L2C TOTAL        ACCESS:    3761147 HIT:    1207522 MISS:    2553625 MSHR_MERGE:          0
cpu0->cpu0_L2C LOAD         ACCESS:    2437831 HIT:      76049 MISS:    2361782 MSHR_MERGE:          0
cpu0->cpu0_L2C RFO          ACCESS:      77899 HIT:      18675 MISS:      59224 MSHR_MERGE:          0
cpu0->cpu0_L2C PREFETCH     ACCESS:          0 HIT:          0 MISS:          0 MSHR_MERGE:          0
cpu0->cpu0_L2C WRITE        ACCESS:    1058848 HIT:    1058370 MISS:        478 MSHR_MERGE:          0
cpu0->cpu0_L2C TRANSLATION  ACCESS:     186569 HIT:      54428 MISS:     132141 MSHR_MERGE:          0
cpu0->cpu0_L2C PREFETCH REQUESTED:          0 ISSUED:          0 USEFUL:          0 USELESS:          0 LATE:          0
cpu0->cpu0_L2C AVERAGE MISS LATENCY: 82.17 cycles
cpu0->cpu0_L1I TOTAL        ACCESS:    2374092 HIT:    2374092 MISS:          0 MSHR_MERGE:          0
cpu0->cpu0_L1I LOAD         ACCESS:    2374092 HIT:    2374092 MISS:          0 MSHR_MERGE:          0
cpu0->cpu0_L1I RFO          ACCESS:          0 HIT:          0 MISS:          0 MSHR_MERGE:          0
cpu0->cpu0_L1I PREFETCH     ACCESS:          0 HIT:          0 MISS:          0 MSHR_MERGE:          0
cpu0->cpu0_L1I WRITE        ACCESS:          0 HIT:          0 MISS:          0 MSHR_MERGE:          0
cpu0->cpu0_L1I TRANSLATION  ACCESS:          0 HIT:          0 MISS:          0 MSHR_MERGE:          0
cpu0->cpu0_L1I PREFETCH REQUESTED:          0 ISSUED:          0 USEFUL:          0 USELESS:          0 LATE:          0
cpu0->cpu0_L1I AVERAGE MISS LATENCY: - cycles
cpu0->cpu0_L1D TOTAL        ACCESS:   24126081 HIT:   19802299 MISS:    4323782 MSHR_MERGE:    1621458
cpu0->cpu0_L1D LOAD         ACCESS:   18423467 HIT:   15459959 MISS:    2963508 MSHR_MERGE:     525653
cpu0->cpu0_L1D RFO          ACCESS:          0 HIT:          0 MISS:          0 MSHR_MERGE:          0
cpu0->cpu0_L1D PREFETCH     ACCESS:          0 HIT:          0 MISS:          0 MSHR_MERGE:          0
cpu0->cpu0_L1D WRITE        ACCESS:    4946103 HIT:    3773261 MISS:    1172842 MSHR_MERGE:    1094942
cpu0->cpu0_L1D TRANSLATION  ACCESS:     756511 HIT:     569079 MISS:     187432 MSHR_MERGE:        863
cpu0->cpu0_L1D PREFETCH REQUESTED:          0 ISSUED:          0 USEFUL:          0 USELESS:          0 LATE:          0
cpu0->cpu0_L1D AVERAGE MISS LATENCY: 86.61 cycles
cpu0->cpu0_ITLB TOTAL        ACCESS:    2372883 HIT:    2372883 MISS:          0 MSHR_MERGE:          0
cpu0->cpu0_ITLB LOAD         ACCESS:    2372883 HIT:    2372883 MISS:          0 MSHR_MERGE:          0
cpu0->cpu0_ITLB RFO          ACCESS:          0 HIT:          0 MISS:          0 MSHR_MERGE:          0
cpu0->cpu0_ITLB PREFETCH     ACCESS:          0 HIT:          0 MISS:          0 MSHR_MERGE:          0
cpu0->cpu0_ITLB WRITE        ACCESS:          0 HIT:          0 MISS:          0 MSHR_MERGE:          0
cpu0->cpu0_ITLB TRANSLATION  ACCESS:          0 HIT:          0 MISS:          0 MSHR_MERGE:          0
cpu0->cpu0_ITLB PREFETCH REQUESTED:          0 ISSUED:          0 USEFUL:          0 USELESS:          0 LATE:          0
cpu0->cpu0_ITLB AVERAGE MISS LATENCY: - cycles
cpu0->cpu0_DTLB TOTAL        ACCESS:   23068346 HIT:   22102083 MISS:     966263 MSHR_MERGE:     217042
cpu0->cpu0_DTLB LOAD         ACCESS:   23068346 HIT:   22102083 MISS:     966263 MSHR_MERGE:     217042
cpu0->cpu0_DTLB RFO          ACCESS:          0 HIT:          0 MISS:          0 MSHR_MERGE:          0
cpu0->cpu0_DTLB PREFETCH     ACCESS:          0 HIT:          0 MISS:          0 MSHR_MERGE:          0
cpu0->cpu0_DTLB WRITE        ACCESS:          0 HIT:          0 MISS:          0 MSHR_MERGE:          0
cpu0->cpu0_DTLB TRANSLATION  ACCESS:          0 HIT:          0 MISS:          0 MSHR_MERGE:          0
cpu0->cpu0_DTLB PREFETCH REQUESTED:          0 ISSUED:          0 USEFUL:          0 USELESS:          0 LATE:          0
cpu0->cpu0_DTLB AVERAGE MISS LATENCY: 18.26 cycles
cpu0->LLC TOTAL        ACCESS:    3583412 HIT:    2645338 MISS:     938074 MSHR_MERGE:          0
cpu0->LLC LOAD         ACCESS:    2361782 HIT:    1490999 MISS:     870783 MSHR_MERGE:          0
cpu0->LLC RFO          ACCESS:      59224 HIT:      21531 MISS:      37693 MSHR_MERGE:          0
cpu0->LLC PREFETCH     ACCESS:          0 HIT:          0 MISS:          0 MSHR_MERGE:          0
cpu0->LLC WRITE        ACCESS:    1030265 HIT:    1005719 MISS:      24546 MSHR_MERGE:          0
cpu0->LLC TRANSLATION  ACCESS:     132141 HIT:     127089 MISS:       5052 MSHR_MERGE:          0
cpu0->LLC PREFETCH REQUESTED:          0 ISSUED:          0 USEFUL:          0 USELESS:          0 LATE:          0
cpu0->LLC AVERAGE MISS LATENCY: 182.1 cycles

DRAM Statistics

Channel 0 RQ ROW_BUFFER_HIT:       2809
  ROW_BUFFER_MISS:     910461
  AVG DBUS CONGESTED CYCLE: 22.35
Channel 0 WQ ROW_BUFFER_HIT:     101342
  ROW_BUFFER_MISS:     213832
  FULL:          0
Channel 0 REFRESHES ISSUED:      18998

[ROI Statistics]
[System Configuration]
num_cpus 1
cpu_freq 4000
fetch_width 6
decode_width 6
dispatch_width 6
execute_width 6
lq_width 2
sq_width 2
retire_width 6
scheduler_size 128
branch_mispredict_penalty 15
rob_size 352
lq_size 128
sq_size 72
ifetch_buffer_size 64
decode_buffer_size 32
dispatch_buffer_size 32
register_file_size 288
decode_latency 1
dispatch_latency 1
schedule_latency 1
execute_latency 1
page_size 4096
block_size 64
core_0_itlb_set 16
core_0_itlb_way 4
core_0_itlb_rq_size 16
core_0_itlb_wq_size 16
core_0_itlb_pq_size 0
core_0_itlb_mshr_size 8
core_0_itlb_hit_latency 1
core_0_itlb_fill_latency 1
core_0_itlb_max_tag_check 2
core_0_itlb_max_fill 2
core_0_dtlb_set 16
core_0_dtlb_way 4
core_0_dtlb_rq_size 16
core_0_dtlb_wq_size 16
core_0_dtlb_pq_size 0
core_0_dtlb_mshr_size 8
core_0_dtlb_hit_latency 1
core_0_dtlb_fill_latency 1
core_0_dtlb_max_tag_check 2
core_0_dtlb_max_fill 2
core_0_stlb_set 128
core_0_stlb_way 12
core_0_stlb_rq_size 32
core_0_stlb_wq_size 32
core_0_stlb_pq_size 0
core_0_stlb_mshr_size 16
core_0_stlb_hit_latency 4
core_0_stlb_fill_latency 4
core_0_stlb_max_tag_check 1
core_0_stlb_max_fill 1
core_0_l1i_set 64
core_0_l1i_way 8
core_0_l1i_rq_size 64
core_0_l1i_wq_size 64
core_0_l1i_pq_size 32
core_0_l1i_mshr_size 8
core_0_l1i_hit_latency 2
core_0_l1i_fill_latency 2
core_0_l1i_max_tag_check 2
core_0_l1i_max_fill 2
core_0_l1d_set 64
core_0_l1d_way 12
core_0_l1d_rq_size 64
core_0_l1d_wq_size 64
core_0_l1d_pq_size 8
core_0_l1d_mshr_size 16
core_0_l1d_hit_latency 2
core_0_l1d_fill_latency 3
core_0_l1d_max_tag_check 2
core_0_l1d_max_fill 2
core_0_l2c_set 1024
core_0_l2c_way 8
core_0_l2c_rq_size 32
core_0_l2c_wq_size 32
core_0_l2c_pq_size 16
core_0_l2c_mshr_size 32
core_0_l2c_hit_latency 5
core_0_l2c_fill_latency 5
core_0_l2c_max_tag_check 1
core_0_l2c_max_fill 1
llc_set 2048
llc_way 16
llc_rq_size 32
llc_wq_size 32
llc_pq_size 32
llc_mshr_size 64
llc_hit_latency 10
llc_fill_latency 10
llc_max_tag_check 1
llc_max_fill 1
dram_channels 1
dram_ranks 1
dram_bankgroups 8
dram_banks 4
dram_rows 65536
dram_columns 1024
dram_channel_width 8
dram_rq_size 64
dram_wq_size 64
dram_size 17179869184
core_0_itlb_prefetcher no
core_0_dtlb_prefetcher no
core_0_stlb_prefetcher no
core_0_l1i_prefetcher no
core_0_l1d_prefetcher no
core_0_l2c_prefetcher no
llc_prefetcher no
llc_replacement drrip

Core_0_instructions 50000003
Core_0_cycles 227978025
Core_0_IPC 0.219319
Core_0_branch_prediction_accuracy 87.893
Core_0_branch_MPKI 18.1374
Core_0_average_ROB_occupancy_at_mispredict 35.8411

Core_0_ITLB_total_access 2372883
Core_0_ITLB_total_hit 2372883
Core_0_ITLB_total_miss 0
Core_0_ITLB_total_MPKI 0
Core_0_ITLB_total_miss_rate 0
Core_0_ITLB_demand_access 2372883
Core_0_ITLB_demand_hit 2372883
Core_0_ITLB_demand_miss 0
Core_0_ITLB_demand_MPKI 0
Core_0_ITLB_demand_miss_rate 0
Core_0_ITLB_load_access 2372883
Core_0_ITLB_load_hit 2372883
Core_0_ITLB_load_miss 0
Core_0_ITLB_load_MPKI 0
Core_0_ITLB_load_miss_rate 0
Core_0_ITLB_rfo_access 0
Core_0_ITLB_rfo_hit 0
Core_0_ITLB_rfo_miss 0
Core_0_ITLB_rfo_MPKI 0
Core_0_ITLB_rfo_miss_rate 0
Core_0_ITLB_prefetch_access 0
Core_0_ITLB_prefetch_hit 0
Core_0_ITLB_prefetch_miss 0
Core_0_ITLB_prefetch_MPKI 0
Core_0_ITLB_prefetch_miss_rate 0
Core_0_ITLB_writeback_access 0
Core_0_ITLB_writeback_hit 0
Core_0_ITLB_writeback_miss 0
Core_0_ITLB_writeback_MPKI 0
Core_0_ITLB_writeback_miss_rate 0
Core_0_ITLB_prefetch_requested 0
Core_0_ITLB_prefetch_issued 0
Core_0_ITLB_prefetch_useful 0
Core_0_ITLB_prefetch_useless 0
Core_0_ITLB_prefetch_late 0
Core_0_ITLB_prefetch_accuracy 0
Core_0_ITLB_prefetch_coverage 0

Core_0_DTLB_total_access 23068346
Core_0_DTLB_total_hit 22102083
Core_0_DTLB_total_miss 966263
Core_0_DTLB_total_MPKI 19.3253
Core_0_DTLB_total_miss_rate 0.041887
Core_0_DTLB_demand_access 23068346
Core_0_DTLB_demand_hit 22102083
Core_0_DTLB_demand_miss 966263
Core_0_DTLB_demand_MPKI 19.3253
Core_0_DTLB_demand_miss_rate 0.041887
Core_0_DTLB_load_access 23068346
Core_0_DTLB_load_hit 22102083
Core_0_DTLB_load_miss 966263
Core_0_DTLB_load_MPKI 19.3253
Core_0_DTLB_load_miss_rate 0.041887
Core_0_DTLB_rfo_access 0
Core_0_DTLB_rfo_hit 0
Core_0_DTLB_rfo_miss 0
Core_0_DTLB_rfo_MPKI 0
Core_0_DTLB_rfo_miss_rate 0
Core_0_DTLB_prefetch_access 0
Core_0_DTLB_prefetch_hit 0
Core_0_DTLB_prefetch_miss 0
Core_0_DTLB_prefetch_MPKI 0
Core_0_DTLB_prefetch_miss_rate 0
Core_0_DTLB_writeback_access 0
Core_0_DTLB_writeback_hit 0
Core_0_DTLB_writeback_miss 0
Core_0_DTLB_writeback_MPKI 0
Core_0_DTLB_writeback_miss_rate 0
Core_0_DTLB_prefetch_requested 0
Core_0_DTLB_prefetch_issued 0
Core_0_DTLB_prefetch_useful 0
Core_0_DTLB_prefetch_useless 0
Core_0_DTLB_prefetch_late 0
Core_0_DTLB_prefetch_accuracy 0
Core_0_DTLB_prefetch_coverage 0

Core_0_STLB_total_access 749221
Core_0_STLB_total_hit 381302
Core_0_STLB_total_miss 367919
Core_0_STLB_total_MPKI 7.35838
Core_0_STLB_total_miss_rate 0.491069
Core_0_STLB_demand_access 749221
Core_0_STLB_demand_hit 381302
Core_0_STLB_demand_miss 367919
Core_0_STLB_demand_MPKI 7.35838
Core_0_STLB_demand_miss_rate 0.491069
Core_0_STLB_load_access 749221
Core_0_STLB_load_hit 381302
Core_0_STLB_load_miss 367919
Core_0_STLB_load_MPKI 7.35838
Core_0_STLB_load_miss_rate 0.491069
Core_0_STLB_rfo_access 0
Core_0_STLB_rfo_hit 0
Core_0_STLB_rfo_miss 0
Core_0_STLB_rfo_MPKI 0
Core_0_STLB_rfo_miss_rate 0
Core_0_STLB_prefetch_access 0
Core_0_STLB_prefetch_hit 0
Core_0_STLB_prefetch_miss 0
Core_0_STLB_prefetch_MPKI 0
Core_0_STLB_prefetch_miss_rate 0
Core_0_STLB_writeback_access 0
Core_0_STLB_writeback_hit 0
Core_0_STLB_writeback_miss 0
Core_0_STLB_writeback_MPKI 0
Core_0_STLB_writeback_miss_rate 0
Core_0_STLB_prefetch_requested 0
Core_0_STLB_prefetch_issued 0
Core_0_STLB_prefetch_useful 0
Core_0_STLB_prefetch_useless 0
Core_0_STLB_prefetch_late 0
Core_0_STLB_prefetch_accuracy 0
Core_0_STLB_prefetch_coverage 0

Core_0_L1I_total_access 2374092
Core_0_L1I_total_hit 2374092
Core_0_L1I_total_miss 0
Core_0_L1I_total_MPKI 0
Core_0_L1I_total_miss_rate 0
Core_0_L1I_demand_access 2374092
Core_0_L1I_demand_hit 2374092
Core_0_L1I_demand_miss 0
Core_0_L1I_demand_MPKI 0
Core_0_L1I_demand_miss_rate 0
Core_0_L1I_load_access 2374092
Core_0_L1I_load_hit 2374092
Core_0_L1I_load_miss 0
Core_0_L1I_load_MPKI 0
Core_0_L1I_load_miss_rate 0
Core_0_L1I_rfo_access 0
Core_0_L1I_rfo_hit 0
Core_0_L1I_rfo_miss 0
Core_0_L1I_rfo_MPKI 0
Core_0_L1I_rfo_miss_rate 0
Core_0_L1I_prefetch_access 0
Core_0_L1I_prefetch_hit 0
Core_0_L1I_prefetch_miss 0
Core_0_L1I_prefetch_MPKI 0
Core_0_L1I_prefetch_miss_rate 0
Core_0_L1I_writeback_access 0
Core_0_L1I_writeback_hit 0
Core_0_L1I_writeback_miss 0
Core_0_L1I_writeback_MPKI 0
Core_0_L1I_writeback_miss_rate 0
Core_0_L1I_prefetch_requested 0
Core_0_L1I_prefetch_issued 0
Core_0_L1I_prefetch_useful 0
Core_0_L1I_prefetch_useless 0
Core_0_L1I_prefetch_late 0
Core_0_L1I_prefetch_accuracy 0
Core_0_L1I_prefetch_coverage 0

Core_0_L1D_total_access 23369570
Core_0_L1D_total_hit 19233220
Core_0_L1D_total_miss 4136350
Core_0_L1D_total_MPKI 82.727
Core_0_L1D_total_miss_rate 0.176997
Core_0_L1D_demand_access 18423467
Core_0_L1D_demand_hit 15459959
Core_0_L1D_demand_miss 2963508
Core_0_L1D_demand_MPKI 59.2702
Core_0_L1D_demand_miss_rate 0.160855
Core_0_L1D_load_access 18423467
Core_0_L1D_load_hit 15459959
Core_0_L1D_load_miss 2963508
Core_0_L1D_load_MPKI 59.2702
Core_0_L1D_load_miss_rate 0.160855
Core_0_L1D_rfo_access 0
Core_0_L1D_rfo_hit 0
Core_0_L1D_rfo_miss 0
Core_0_L1D_rfo_MPKI 0
Core_0_L1D_rfo_miss_rate 0
Core_0_L1D_prefetch_access 0
Core_0_L1D_prefetch_hit 0
Core_0_L1D_prefetch_miss 0
Core_0_L1D_prefetch_MPKI 0
Core_0_L1D_prefetch_miss_rate 0
Core_0_L1D_writeback_access 4946103
Core_0_L1D_writeback_hit 3773261
Core_0_L1D_writeback_miss 1172842
Core_0_L1D_writeback_MPKI 23.4568
Core_0_L1D_writeback_miss_rate 0.237124
Core_0_L1D_prefetch_requested 0
Core_0_L1D_prefetch_issued 0
Core_0_L1D_prefetch_useful 0
Core_0_L1D_prefetch_useless 0
Core_0_L1D_prefetch_late 0
Core_0_L1D_prefetch_accuracy 0
Core_0_L1D_prefetch_coverage 0

Core_0_L2C_total_access 3574578
Core_0_L2C_total_hit 1153094
Core_0_L2C_total_miss 2421484
Core_0_L2C_total_MPKI 48.4297
Core_0_L2C_total_miss_rate 0.677418
Core_0_L2C_demand_access 2515730
Core_0_L2C_demand_hit 94724
Core_0_L2C_demand_miss 2421006
Core_0_L2C_demand_MPKI 48.4201
Core_0_L2C_demand_miss_rate 0.962347
Core_0_L2C_load_access 2437831
Core_0_L2C_load_hit 76049
Core_0_L2C_load_miss 2361782
Core_0_L2C_load_MPKI 47.2356
Core_0_L2C_load_miss_rate 0.968805
Core_0_L2C_rfo_access 77899
Core_0_L2C_rfo_hit 18675
Core_0_L2C_rfo_miss 59224
Core_0_L2C_rfo_MPKI 1.18448
Core_0_L2C_rfo_miss_rate 0.760266
Core_0_L2C_prefetch_access 0
Core_0_L2C_prefetch_hit 0
Core_0_L2C_prefetch_miss 0
Core_0_L2C_prefetch_MPKI 0
Core_0_L2C_prefetch_miss_rate 0
Core_0_L2C_writeback_access 1058848
Core_0_L2C_writeback_hit 1058370
Core_0_L2C_writeback_miss 478
Core_0_L2C_writeback_MPKI 0.00956
Core_0_L2C_writeback_miss_rate 0.000451434
Core_0_L2C_prefetch_requested 0
Core_0_L2C_prefetch_issued 0
Core_0_L2C_prefetch_useful 0
Core_0_L2C_prefetch_useless 0
Core_0_L2C_prefetch_late 0
Core_0_L2C_prefetch_accuracy 0
Core_0_L2C_prefetch_coverage 0

Core_0_LLC_total_access 3451271
Core_0_LLC_total_hit 2518249
Core_0_LLC_total_miss 933022
Core_0_LLC_total_MPKI 18.6604
Core_0_LLC_total_miss_rate 0.270342
Core_0_LLC_demand_access 2421006
Core_0_LLC_demand_hit 1512530
Core_0_LLC_demand_miss 908476
Core_0_LLC_demand_MPKI 18.1695
Core_0_LLC_demand_miss_rate 0.375247
Core_0_LLC_load_access 2361782
Core_0_LLC_load_hit 1490999
Core_0_LLC_load_miss 870783
Core_0_LLC_load_MPKI 17.4157
Core_0_LLC_load_miss_rate 0.368697
Core_0_LLC_rfo_access 59224
Core_0_LLC_rfo_hit 21531
Core_0_LLC_rfo_miss 37693
Core_0_LLC_rfo_MPKI 0.75386
Core_0_LLC_rfo_miss_rate 0.636448
Core_0_LLC_prefetch_access 0
Core_0_LLC_prefetch_hit 0
Core_0_LLC_prefetch_miss 0
Core_0_LLC_prefetch_MPKI 0
Core_0_LLC_prefetch_miss_rate 0
Core_0_LLC_writeback_access 1030265
Core_0_LLC_writeback_hit 1005719
Core_0_LLC_writeback_miss 24546
Core_0_LLC_writeback_MPKI 0.49092
Core_0_LLC_writeback_miss_rate 0.0238249
Core_0_LLC_prefetch_requested 0
Core_0_LLC_prefetch_issued 0
Core_0_LLC_prefetch_useful 0
Core_0_LLC_prefetch_useless 0
Core_0_LLC_prefetch_late 0
Core_0_LLC_prefetch_accuracy 0
Core_0_LLC_prefetch_coverage 0

[DRAM Statistics]
Channel_0_RQ_row_buffer_hit 2809
Channel_0_RQ_row_buffer_miss 910461
Channel_0_WQ_row_buffer_hit 101342
Channel_0_WQ_row_buffer_miss 213832
Channel_0_WQ_full 0
Channel_0_dbus_congested 4287016
DRAM_total_RQ_row_buffer_hit 2809
DRAM_total_RQ_row_buffer_miss 910461
DRAM_total_WQ_row_buffer_hit 101342
DRAM_total_WQ_row_buffer_miss 213832
DRAM_total_WQ_full 0
DRAM_total_dbus_congested 4287016
DRAM_avg_congested_cycle 22.3469

====== DRAM_RQ_TRAFFIC ========
DRAM_RQ_READ_TRAFFIC_BREAKDOWN:
data_demand_read.count = 908476
data_demand_read.share = 99.45%

inst_demand_read.count = 0
inst_demand_read.share = 0.00%

cache_inst_prefetch.count = 0
cache_inst_prefetch.share = 0.00%

cache_data_prefetch.count = 0
cache_data_prefetch.share = 0.00%

stlb_data_demand.count = 5052
stlb_data_demand.share = 0.55%

stlb_inst_demand.count = 0
stlb_inst_demand.share = 0.00%

stlb_l1i_pref.count = 0
stlb_l1i_pref.share = 0.00%

stlb_l1d_pref.count = 0
stlb_l1d_pref.share = 0.00%

DRAM_RQ_READ_TRAFFIC_SUMMARY:
cache_demand.count = 908476
cache_demand.share = 99.45%

cache_prefetch.count = 0
cache_prefetch.share = 0.00%

stlb_demand.count = 5052
stlb_demand.share = 0.55%

stlb_prefetch.count = 0
stlb_prefetch.share = 0.00%

DRAM_RQ_READ_TRAFFIC_DEBUG:
total_classified_read.count = 913528
unclassified_read.count = 0
total_read_with_other.count = 913528

classified_plus_unclassified_check.count = 913528
dram_rq_read_total_observed.count = 913528
dram_rq_read_total_observed.per_1K_instructions = 18.2706

STLB_MISS_PTW_DRAM_TOUCH_BREAKDOWN:
stlb_miss_total.count = 367919

stlb_miss_touch_dram.count = 5027
stlb_miss_touch_dram.share = 1.37%

stlb_miss_no_dram_touch.count = 362892
stlb_miss_no_dram_touch.share = 98.63%

STLB_MISS_PTW_DRAM_TOUCH_DEBUG:
stlb_miss_touch_plus_no_touch.count = 367919
stlb_miss_total_check.count = 367919

======STLB miss causes ========
Core_0_STLB_miss_cause_breakdown
Core_0_STLB_cause_Demand_Data_miss 367919
Core_0_STLB_cause_Demand_Data_miss_rate 0.491069
Core_0_STLB_cause_Demand_Instruction_miss 0
Core_0_STLB_cause_Demand_Instruction_miss_rate 0
Core_0_STLB_cause_L1D_Prefetch_miss 0
Core_0_STLB_cause_L1D_Prefetch_miss_rate 0
Core_0_STLB_cause_L1I_Prefetch_miss 0
Core_0_STLB_cause_L1I_Prefetch_miss_rate 0
Core_0_STLB_cause_Other_miss 0
Core_0_STLB_cause_Other_miss_rate 0
Core_0_STLB_Demand_miss 367919
Core_0_STLB_Demand_miss_rate 0.491069
Core_0_STLB_L1D_Prefetch_miss 0
Core_0_STLB_L1D_Prefetch_miss_rate 0
Core_0_STLB_Other_miss 0
Core_0_STLB_Other_miss_rate 0
