[VMEM] WARNING: physical memory size is smaller than virtual memory size.

*** ChampSim Multicore Out-of-Order Simulator ***
Warmup Instructions: 20000000
Simulation Instructions: 50000000
Number of CPUs: 1
Page size: 4096
Core 0: /data2/zcq/champsim_traces_gap/bc.urand-3004B.champsimtrace.xz
Off-chip DRAM Size: 16 GiB Channels: 1 Width: 64-bit Data Rate: 3205 MT/s
Warmup halting CPU 0 at instruction 20000002 cycle 12507850 for remainder of phase
Warmup finished CPU 0 instructions: 20000002 cycles: 12507850 cumulative IPC: 1.599 (Simulation time: 00 hr 01 min 50 sec)
Warmup complete CPU 0 instructions: 20000002 cycles: 12507850 cumulative IPC: 1.599 (Simulation time: 00 hr 01 min 50 sec)
Simulation finished CPU 0 instructions: 50000005 cycles: 168379045 cumulative IPC: 0.2969 (Simulation time: 00 hr 17 min 20 sec)
Simulation complete CPU 0 instructions: 50000005 cycles: 168379045 cumulative IPC: 0.2969 (Simulation time: 00 hr 17 min 20 sec)

ChampSim completed all CPUs

=== Simulation ===
CPU 0 runs /data2/zcq/champsim_traces_gap/bc.urand-3004B.champsimtrace.xz

Region of Interest Statistics

CPU 0 cumulative IPC: 0.2969 instructions: 50000005 cycles: 168379045
CPU 0 Branch Prediction Accuracy: 98.46% MPKI: 2.751 Average ROB Occupancy at Mispredict: 319.9
Branch type MPKI
BRANCH_DIRECT_JUMP: 0
BRANCH_INDIRECT: 0
BRANCH_CONDITIONAL: 2.751
BRANCH_DIRECT_CALL: 0
BRANCH_INDIRECT_CALL: 0
BRANCH_RETURN: 0

cpu0->cpu0_STLB TOTAL        ACCESS:     550345 HIT:       9651 MISS:     540694 MSHR_MERGE:          0
cpu0->cpu0_STLB LOAD         ACCESS:     550345 HIT:       9651 MISS:     540694 MSHR_MERGE:          0
cpu0->cpu0_STLB RFO          ACCESS:          0 HIT:          0 MISS:          0 MSHR_MERGE:          0
cpu0->cpu0_STLB PREFETCH     ACCESS:          0 HIT:          0 MISS:          0 MSHR_MERGE:          0
cpu0->cpu0_STLB WRITE        ACCESS:          0 HIT:          0 MISS:          0 MSHR_MERGE:          0
cpu0->cpu0_STLB TRANSLATION  ACCESS:          0 HIT:          0 MISS:          0 MSHR_MERGE:          0
cpu0->cpu0_STLB PREFETCH REQUESTED:          0 ISSUED:          0 USEFUL:          0 USELESS:          0 LATE:          0
cpu0->cpu0_STLB AVERAGE MISS LATENCY: 304.1 cycles
cpu0->cpu0_L2C TOTAL        ACCESS:    1488072 HIT:     392862 MISS:    1095210 MSHR_MERGE:          0
cpu0->cpu0_L2C LOAD         ACCESS:     450546 HIT:       8889 MISS:     441657 MSHR_MERGE:          0
cpu0->cpu0_L2C RFO          ACCESS:     133104 HIT:         18 MISS:     133086 MSHR_MERGE:          0
cpu0->cpu0_L2C PREFETCH     ACCESS:          0 HIT:          0 MISS:          0 MSHR_MERGE:          0
cpu0->cpu0_L2C WRITE        ACCESS:     267934 HIT:     267930 MISS:          4 MSHR_MERGE:          0
cpu0->cpu0_L2C TRANSLATION  ACCESS:     636488 HIT:     116025 MISS:     520463 MSHR_MERGE:          0
cpu0->cpu0_L2C PREFETCH REQUESTED:          0 ISSUED:          0 USEFUL:          0 USELESS:          0 LATE:          0
cpu0->cpu0_L2C AVERAGE MISS LATENCY: 196.8 cycles
cpu0->cpu0_L1I TOTAL        ACCESS:     291100 HIT:     291100 MISS:          0 MSHR_MERGE:          0
cpu0->cpu0_L1I LOAD         ACCESS:     291100 HIT:     291100 MISS:          0 MSHR_MERGE:          0
cpu0->cpu0_L1I RFO          ACCESS:          0 HIT:          0 MISS:          0 MSHR_MERGE:          0
cpu0->cpu0_L1I PREFETCH     ACCESS:          0 HIT:          0 MISS:          0 MSHR_MERGE:          0
cpu0->cpu0_L1I WRITE        ACCESS:          0 HIT:          0 MISS:          0 MSHR_MERGE:          0
cpu0->cpu0_L1I TRANSLATION  ACCESS:          0 HIT:          0 MISS:          0 MSHR_MERGE:          0
cpu0->cpu0_L1I PREFETCH REQUESTED:          0 ISSUED:          0 USEFUL:          0 USELESS:          0 LATE:          0
cpu0->cpu0_L1I AVERAGE MISS LATENCY: - cycles
cpu0->cpu0_L1D TOTAL        ACCESS:    6798559 HIT:    3310652 MISS:    3487907 MSHR_MERGE:    2267769
cpu0->cpu0_L1D LOAD         ACCESS:    4912383 HIT:    2194191 MISS:    2718192 MSHR_MERGE:    2267646
cpu0->cpu0_L1D RFO          ACCESS:          0 HIT:          0 MISS:          0 MSHR_MERGE:          0
cpu0->cpu0_L1D PREFETCH     ACCESS:          0 HIT:          0 MISS:          0 MSHR_MERGE:          0
cpu0->cpu0_L1D WRITE        ACCESS:     280771 HIT:     147667 MISS:     133104 MSHR_MERGE:          0
cpu0->cpu0_L1D TRANSLATION  ACCESS:    1605405 HIT:     968794 MISS:     636611 MSHR_MERGE:        123
cpu0->cpu0_L1D PREFETCH REQUESTED:          0 ISSUED:          0 USEFUL:          0 USELESS:          0 LATE:          0
cpu0->cpu0_L1D AVERAGE MISS LATENCY: 185.6 cycles
cpu0->cpu0_ITLB TOTAL        ACCESS:     291099 HIT:     291099 MISS:          0 MSHR_MERGE:          0
cpu0->cpu0_ITLB LOAD         ACCESS:     291099 HIT:     291099 MISS:          0 MSHR_MERGE:          0
cpu0->cpu0_ITLB RFO          ACCESS:          0 HIT:          0 MISS:          0 MSHR_MERGE:          0
cpu0->cpu0_ITLB PREFETCH     ACCESS:          0 HIT:          0 MISS:          0 MSHR_MERGE:          0
cpu0->cpu0_ITLB WRITE        ACCESS:          0 HIT:          0 MISS:          0 MSHR_MERGE:          0
cpu0->cpu0_ITLB TRANSLATION  ACCESS:          0 HIT:          0 MISS:          0 MSHR_MERGE:          0
cpu0->cpu0_ITLB PREFETCH REQUESTED:          0 ISSUED:          0 USEFUL:          0 USELESS:          0 LATE:          0
cpu0->cpu0_ITLB AVERAGE MISS LATENCY: - cycles
cpu0->cpu0_DTLB TOTAL        ACCESS:    5192022 HIT:    2521851 MISS:    2670171 MSHR_MERGE:    2119826
cpu0->cpu0_DTLB LOAD         ACCESS:    5192022 HIT:    2521851 MISS:    2670171 MSHR_MERGE:    2119826
cpu0->cpu0_DTLB RFO          ACCESS:          0 HIT:          0 MISS:          0 MSHR_MERGE:          0
cpu0->cpu0_DTLB PREFETCH     ACCESS:          0 HIT:          0 MISS:          0 MSHR_MERGE:          0
cpu0->cpu0_DTLB WRITE        ACCESS:          0 HIT:          0 MISS:          0 MSHR_MERGE:          0
cpu0->cpu0_DTLB TRANSLATION  ACCESS:          0 HIT:          0 MISS:          0 MSHR_MERGE:          0
cpu0->cpu0_DTLB PREFETCH REQUESTED:          0 ISSUED:          0 USEFUL:          0 USELESS:          0 LATE:          0
cpu0->cpu0_DTLB AVERAGE MISS LATENCY: 304.9 cycles
cpu0->LLC TOTAL        ACCESS:    1361422 HIT:     316917 MISS:    1044505 MSHR_MERGE:          0
cpu0->LLC LOAD         ACCESS:     441657 HIT:        131 MISS:     441526 MSHR_MERGE:          0
cpu0->LLC RFO          ACCESS:     133086 HIT:         67 MISS:     133019 MSHR_MERGE:          0
cpu0->LLC PREFETCH     ACCESS:          0 HIT:          0 MISS:          0 MSHR_MERGE:          0
cpu0->LLC WRITE        ACCESS:     266216 HIT:     234507 MISS:      31709 MSHR_MERGE:          0
cpu0->LLC TRANSLATION  ACCESS:     520463 HIT:      82212 MISS:     438251 MSHR_MERGE:          0
cpu0->LLC PREFETCH REQUESTED:          0 ISSUED:          0 USEFUL:          0 USELESS:          0 LATE:          0
cpu0->LLC AVERAGE MISS LATENCY: 190 cycles

DRAM Statistics

Channel 0 RQ ROW_BUFFER_HIT:        110
  ROW_BUFFER_MISS:    1012686
  AVG DBUS CONGESTED CYCLE: 19.23
Channel 0 WQ ROW_BUFFER_HIT:     104721
  ROW_BUFFER_MISS:     161261
  FULL:          0
Channel 0 REFRESHES ISSUED:      14031

[ROI Statistics]
[System Configuration]
num_cpus 1
cpu_freq 4000
fetch_width 6
decode_width 6
dispatch_width 6
execute_width 6
lq_width 2
sq_width 2
retire_width 6
scheduler_size 128
branch_mispredict_penalty 15
rob_size 352
lq_size 128
sq_size 72
ifetch_buffer_size 64
decode_buffer_size 32
dispatch_buffer_size 32
register_file_size 288
decode_latency 1
dispatch_latency 1
schedule_latency 1
execute_latency 1
page_size 4096
block_size 64
core_0_itlb_set 16
core_0_itlb_way 4
core_0_itlb_rq_size 16
core_0_itlb_wq_size 16
core_0_itlb_pq_size 0
core_0_itlb_mshr_size 8
core_0_itlb_hit_latency 1
core_0_itlb_fill_latency 1
core_0_itlb_max_tag_check 2
core_0_itlb_max_fill 2
core_0_dtlb_set 16
core_0_dtlb_way 4
core_0_dtlb_rq_size 16
core_0_dtlb_wq_size 16
core_0_dtlb_pq_size 0
core_0_dtlb_mshr_size 8
core_0_dtlb_hit_latency 1
core_0_dtlb_fill_latency 1
core_0_dtlb_max_tag_check 2
core_0_dtlb_max_fill 2
core_0_stlb_set 128
core_0_stlb_way 12
core_0_stlb_rq_size 32
core_0_stlb_wq_size 32
core_0_stlb_pq_size 0
core_0_stlb_mshr_size 16
core_0_stlb_hit_latency 4
core_0_stlb_fill_latency 4
core_0_stlb_max_tag_check 1
core_0_stlb_max_fill 1
core_0_l1i_set 64
core_0_l1i_way 8
core_0_l1i_rq_size 64
core_0_l1i_wq_size 64
core_0_l1i_pq_size 32
core_0_l1i_mshr_size 8
core_0_l1i_hit_latency 2
core_0_l1i_fill_latency 2
core_0_l1i_max_tag_check 2
core_0_l1i_max_fill 2
core_0_l1d_set 64
core_0_l1d_way 12
core_0_l1d_rq_size 64
core_0_l1d_wq_size 64
core_0_l1d_pq_size 8
core_0_l1d_mshr_size 16
core_0_l1d_hit_latency 2
core_0_l1d_fill_latency 3
core_0_l1d_max_tag_check 2
core_0_l1d_max_fill 2
core_0_l2c_set 1024
core_0_l2c_way 8
core_0_l2c_rq_size 32
core_0_l2c_wq_size 32
core_0_l2c_pq_size 16
core_0_l2c_mshr_size 32
core_0_l2c_hit_latency 5
core_0_l2c_fill_latency 5
core_0_l2c_max_tag_check 1
core_0_l2c_max_fill 1
llc_set 2048
llc_way 16
llc_rq_size 32
llc_wq_size 32
llc_pq_size 32
llc_mshr_size 64
llc_hit_latency 10
llc_fill_latency 10
llc_max_tag_check 1
llc_max_fill 1
dram_channels 1
dram_ranks 1
dram_bankgroups 8
dram_banks 4
dram_rows 65536
dram_columns 1024
dram_channel_width 8
dram_rq_size 64
dram_wq_size 64
dram_size 17179869184
core_0_itlb_prefetcher no
core_0_dtlb_prefetcher no
core_0_stlb_prefetcher no
core_0_l1i_prefetcher no
core_0_l1d_prefetcher no
core_0_l2c_prefetcher no
llc_prefetcher no
llc_replacement drrip

Core_0_instructions 50000005
Core_0_cycles 168379045
Core_0_IPC 0.296949
Core_0_branch_prediction_accuracy 98.4617
Core_0_branch_MPKI 2.75062
Core_0_average_ROB_occupancy_at_mispredict 319.887

Core_0_ITLB_total_access 291099
Core_0_ITLB_total_hit 291099
Core_0_ITLB_total_miss 0
Core_0_ITLB_total_MPKI 0
Core_0_ITLB_total_miss_rate 0
Core_0_ITLB_demand_access 291099
Core_0_ITLB_demand_hit 291099
Core_0_ITLB_demand_miss 0
Core_0_ITLB_demand_MPKI 0
Core_0_ITLB_demand_miss_rate 0
Core_0_ITLB_load_access 291099
Core_0_ITLB_load_hit 291099
Core_0_ITLB_load_miss 0
Core_0_ITLB_load_MPKI 0
Core_0_ITLB_load_miss_rate 0
Core_0_ITLB_rfo_access 0
Core_0_ITLB_rfo_hit 0
Core_0_ITLB_rfo_miss 0
Core_0_ITLB_rfo_MPKI 0
Core_0_ITLB_rfo_miss_rate 0
Core_0_ITLB_prefetch_access 0
Core_0_ITLB_prefetch_hit 0
Core_0_ITLB_prefetch_miss 0
Core_0_ITLB_prefetch_MPKI 0
Core_0_ITLB_prefetch_miss_rate 0
Core_0_ITLB_writeback_access 0
Core_0_ITLB_writeback_hit 0
Core_0_ITLB_writeback_miss 0
Core_0_ITLB_writeback_MPKI 0
Core_0_ITLB_writeback_miss_rate 0
Core_0_ITLB_prefetch_requested 0
Core_0_ITLB_prefetch_issued 0
Core_0_ITLB_prefetch_useful 0
Core_0_ITLB_prefetch_useless 0
Core_0_ITLB_prefetch_late 0
Core_0_ITLB_prefetch_accuracy 0
Core_0_ITLB_prefetch_coverage 0

Core_0_DTLB_total_access 5192022
Core_0_DTLB_total_hit 2521851
Core_0_DTLB_total_miss 2670171
Core_0_DTLB_total_MPKI 53.4034
Core_0_DTLB_total_miss_rate 0.514283
Core_0_DTLB_demand_access 5192022
Core_0_DTLB_demand_hit 2521851
Core_0_DTLB_demand_miss 2670171
Core_0_DTLB_demand_MPKI 53.4034
Core_0_DTLB_demand_miss_rate 0.514283
Core_0_DTLB_load_access 5192022
Core_0_DTLB_load_hit 2521851
Core_0_DTLB_load_miss 2670171
Core_0_DTLB_load_MPKI 53.4034
Core_0_DTLB_load_miss_rate 0.514283
Core_0_DTLB_rfo_access 0
Core_0_DTLB_rfo_hit 0
Core_0_DTLB_rfo_miss 0
Core_0_DTLB_rfo_MPKI 0
Core_0_DTLB_rfo_miss_rate 0
Core_0_DTLB_prefetch_access 0
Core_0_DTLB_prefetch_hit 0
Core_0_DTLB_prefetch_miss 0
Core_0_DTLB_prefetch_MPKI 0
Core_0_DTLB_prefetch_miss_rate 0
Core_0_DTLB_writeback_access 0
Core_0_DTLB_writeback_hit 0
Core_0_DTLB_writeback_miss 0
Core_0_DTLB_writeback_MPKI 0
Core_0_DTLB_writeback_miss_rate 0
Core_0_DTLB_prefetch_requested 0
Core_0_DTLB_prefetch_issued 0
Core_0_DTLB_prefetch_useful 0
Core_0_DTLB_prefetch_useless 0
Core_0_DTLB_prefetch_late 0
Core_0_DTLB_prefetch_accuracy 0
Core_0_DTLB_prefetch_coverage 0

Core_0_STLB_total_access 550345
Core_0_STLB_total_hit 9651
Core_0_STLB_total_miss 540694
Core_0_STLB_total_MPKI 10.8139
Core_0_STLB_total_miss_rate 0.982464
Core_0_STLB_demand_access 550345
Core_0_STLB_demand_hit 9651
Core_0_STLB_demand_miss 540694
Core_0_STLB_demand_MPKI 10.8139
Core_0_STLB_demand_miss_rate 0.982464
Core_0_STLB_load_access 550345
Core_0_STLB_load_hit 9651
Core_0_STLB_load_miss 540694
Core_0_STLB_load_MPKI 10.8139
Core_0_STLB_load_miss_rate 0.982464
Core_0_STLB_rfo_access 0
Core_0_STLB_rfo_hit 0
Core_0_STLB_rfo_miss 0
Core_0_STLB_rfo_MPKI 0
Core_0_STLB_rfo_miss_rate 0
Core_0_STLB_prefetch_access 0
Core_0_STLB_prefetch_hit 0
Core_0_STLB_prefetch_miss 0
Core_0_STLB_prefetch_MPKI 0
Core_0_STLB_prefetch_miss_rate 0
Core_0_STLB_writeback_access 0
Core_0_STLB_writeback_hit 0
Core_0_STLB_writeback_miss 0
Core_0_STLB_writeback_MPKI 0
Core_0_STLB_writeback_miss_rate 0
Core_0_STLB_prefetch_requested 0
Core_0_STLB_prefetch_issued 0
Core_0_STLB_prefetch_useful 0
Core_0_STLB_prefetch_useless 0
Core_0_STLB_prefetch_late 0
Core_0_STLB_prefetch_accuracy 0
Core_0_STLB_prefetch_coverage 0

Core_0_L1I_total_access 291100
Core_0_L1I_total_hit 291100
Core_0_L1I_total_miss 0
Core_0_L1I_total_MPKI 0
Core_0_L1I_total_miss_rate 0
Core_0_L1I_demand_access 291100
Core_0_L1I_demand_hit 291100
Core_0_L1I_demand_miss 0
Core_0_L1I_demand_MPKI 0
Core_0_L1I_demand_miss_rate 0
Core_0_L1I_load_access 291100
Core_0_L1I_load_hit 291100
Core_0_L1I_load_miss 0
Core_0_L1I_load_MPKI 0
Core_0_L1I_load_miss_rate 0
Core_0_L1I_rfo_access 0
Core_0_L1I_rfo_hit 0
Core_0_L1I_rfo_miss 0
Core_0_L1I_rfo_MPKI 0
Core_0_L1I_rfo_miss_rate 0
Core_0_L1I_prefetch_access 0
Core_0_L1I_prefetch_hit 0
Core_0_L1I_prefetch_miss 0
Core_0_L1I_prefetch_MPKI 0
Core_0_L1I_prefetch_miss_rate 0
Core_0_L1I_writeback_access 0
Core_0_L1I_writeback_hit 0
Core_0_L1I_writeback_miss 0
Core_0_L1I_writeback_MPKI 0
Core_0_L1I_writeback_miss_rate 0
Core_0_L1I_prefetch_requested 0
Core_0_L1I_prefetch_issued 0
Core_0_L1I_prefetch_useful 0
Core_0_L1I_prefetch_useless 0
Core_0_L1I_prefetch_late 0
Core_0_L1I_prefetch_accuracy 0
Core_0_L1I_prefetch_coverage 0

Core_0_L1D_total_access 5193154
Core_0_L1D_total_hit 2341858
Core_0_L1D_total_miss 2851296
Core_0_L1D_total_MPKI 57.0259
Core_0_L1D_total_miss_rate 0.549049
Core_0_L1D_demand_access 4912383
Core_0_L1D_demand_hit 2194191
Core_0_L1D_demand_miss 2718192
Core_0_L1D_demand_MPKI 54.3638
Core_0_L1D_demand_miss_rate 0.553335
Core_0_L1D_load_access 4912383
Core_0_L1D_load_hit 2194191
Core_0_L1D_load_miss 2718192
Core_0_L1D_load_MPKI 54.3638
Core_0_L1D_load_miss_rate 0.553335
Core_0_L1D_rfo_access 0
Core_0_L1D_rfo_hit 0
Core_0_L1D_rfo_miss 0
Core_0_L1D_rfo_MPKI 0
Core_0_L1D_rfo_miss_rate 0
Core_0_L1D_prefetch_access 0
Core_0_L1D_prefetch_hit 0
Core_0_L1D_prefetch_miss 0
Core_0_L1D_prefetch_MPKI 0
Core_0_L1D_prefetch_miss_rate 0
Core_0_L1D_writeback_access 280771
Core_0_L1D_writeback_hit 147667
Core_0_L1D_writeback_miss 133104
Core_0_L1D_writeback_MPKI 2.66208
Core_0_L1D_writeback_miss_rate 0.474066
Core_0_L1D_prefetch_requested 0
Core_0_L1D_prefetch_issued 0
Core_0_L1D_prefetch_useful 0
Core_0_L1D_prefetch_useless 0
Core_0_L1D_prefetch_late 0
Core_0_L1D_prefetch_accuracy 0
Core_0_L1D_prefetch_coverage 0

Core_0_L2C_total_access 851584
Core_0_L2C_total_hit 276837
Core_0_L2C_total_miss 574747
Core_0_L2C_total_MPKI 11.4949
Core_0_L2C_total_miss_rate 0.674915
Core_0_L2C_demand_access 583650
Core_0_L2C_demand_hit 8907
Core_0_L2C_demand_miss 574743
Core_0_L2C_demand_MPKI 11.4949
Core_0_L2C_demand_miss_rate 0.984739
Core_0_L2C_load_access 450546
Core_0_L2C_load_hit 8889
Core_0_L2C_load_miss 441657
Core_0_L2C_load_MPKI 8.83314
Core_0_L2C_load_miss_rate 0.980271
Core_0_L2C_rfo_access 133104
Core_0_L2C_rfo_hit 18
Core_0_L2C_rfo_miss 133086
Core_0_L2C_rfo_MPKI 2.66172
Core_0_L2C_rfo_miss_rate 0.999865
Core_0_L2C_prefetch_access 0
Core_0_L2C_prefetch_hit 0
Core_0_L2C_prefetch_miss 0
Core_0_L2C_prefetch_MPKI 0
Core_0_L2C_prefetch_miss_rate 0
Core_0_L2C_writeback_access 267934
Core_0_L2C_writeback_hit 267930
Core_0_L2C_writeback_miss 4
Core_0_L2C_writeback_MPKI 8e-05
Core_0_L2C_writeback_miss_rate 1.4929e-05
Core_0_L2C_prefetch_requested 0
Core_0_L2C_prefetch_issued 0
Core_0_L2C_prefetch_useful 0
Core_0_L2C_prefetch_useless 0
Core_0_L2C_prefetch_late 0
Core_0_L2C_prefetch_accuracy 0
Core_0_L2C_prefetch_coverage 0

Core_0_LLC_total_access 840959
Core_0_LLC_total_hit 234705
Core_0_LLC_total_miss 606254
Core_0_LLC_total_MPKI 12.1251
Core_0_LLC_total_miss_rate 0.720908
Core_0_LLC_demand_access 574743
Core_0_LLC_demand_hit 198
Core_0_LLC_demand_miss 574545
Core_0_LLC_demand_MPKI 11.4909
Core_0_LLC_demand_miss_rate 0.999655
Core_0_LLC_load_access 441657
Core_0_LLC_load_hit 131
Core_0_LLC_load_miss 441526
Core_0_LLC_load_MPKI 8.83052
Core_0_LLC_load_miss_rate 0.999703
Core_0_LLC_rfo_access 133086
Core_0_LLC_rfo_hit 67
Core_0_LLC_rfo_miss 133019
Core_0_LLC_rfo_MPKI 2.66038
Core_0_LLC_rfo_miss_rate 0.999497
Core_0_LLC_prefetch_access 0
Core_0_LLC_prefetch_hit 0
Core_0_LLC_prefetch_miss 0
Core_0_LLC_prefetch_MPKI 0
Core_0_LLC_prefetch_miss_rate 0
Core_0_LLC_writeback_access 266216
Core_0_LLC_writeback_hit 234507
Core_0_LLC_writeback_miss 31709
Core_0_LLC_writeback_MPKI 0.63418
Core_0_LLC_writeback_miss_rate 0.11911
Core_0_LLC_prefetch_requested 0
Core_0_LLC_prefetch_issued 0
Core_0_LLC_prefetch_useful 0
Core_0_LLC_prefetch_useless 0
Core_0_LLC_prefetch_late 0
Core_0_LLC_prefetch_accuracy 0
Core_0_LLC_prefetch_coverage 0

[DRAM Statistics]
Channel_0_RQ_row_buffer_hit 110
Channel_0_RQ_row_buffer_miss 1012686
Channel_0_WQ_row_buffer_hit 104721
Channel_0_WQ_row_buffer_miss 161261
Channel_0_WQ_full 0
Channel_0_dbus_congested 3756813
DRAM_total_RQ_row_buffer_hit 110
DRAM_total_RQ_row_buffer_miss 1012686
DRAM_total_WQ_row_buffer_hit 104721
DRAM_total_WQ_row_buffer_miss 161261
DRAM_total_WQ_full 0
DRAM_total_dbus_congested 3756813
DRAM_avg_congested_cycle 19.226

====== DRAM_RQ_TRAFFIC ========
DRAM_RQ_READ_TRAFFIC_BREAKDOWN:
data_demand_read.count = 574545
data_demand_read.share = 56.73%

inst_demand_read.count = 0
inst_demand_read.share = 0.00%

cache_inst_prefetch.count = 0
cache_inst_prefetch.share = 0.00%

cache_data_prefetch.count = 0
cache_data_prefetch.share = 0.00%

stlb_data_demand.count = 438251
stlb_data_demand.share = 43.27%

stlb_inst_demand.count = 0
stlb_inst_demand.share = 0.00%

stlb_l1i_pref.count = 0
stlb_l1i_pref.share = 0.00%

stlb_l1d_pref.count = 0
stlb_l1d_pref.share = 0.00%

DRAM_RQ_READ_TRAFFIC_SUMMARY:
cache_demand.count = 574545
cache_demand.share = 56.73%

cache_prefetch.count = 0
cache_prefetch.share = 0.00%

stlb_demand.count = 438251
stlb_demand.share = 43.27%

stlb_prefetch.count = 0
stlb_prefetch.share = 0.00%

DRAM_RQ_READ_TRAFFIC_DEBUG:
total_classified_read.count = 1012796
unclassified_read.count = 0
total_read_with_other.count = 1012796

classified_plus_unclassified_check.count = 1012796
dram_rq_read_total_observed.count = 1012796
dram_rq_read_total_observed.per_1K_instructions = 20.2559

STLB_MISS_PTW_DRAM_TOUCH_BREAKDOWN:
stlb_miss_total.count = 540694

stlb_miss_touch_dram.count = 435499
stlb_miss_touch_dram.share = 80.54%

stlb_miss_no_dram_touch.count = 105195
stlb_miss_no_dram_touch.share = 19.46%

STLB_MISS_PTW_DRAM_TOUCH_DEBUG:
stlb_miss_touch_plus_no_touch.count = 540694
stlb_miss_total_check.count = 540694

======STLB miss causes ========
Core_0_STLB_miss_cause_breakdown
Core_0_STLB_cause_Demand_Data_miss 540694
Core_0_STLB_cause_Demand_Data_miss_rate 0.982464
Core_0_STLB_cause_Demand_Instruction_miss 0
Core_0_STLB_cause_Demand_Instruction_miss_rate 0
Core_0_STLB_cause_L1D_Prefetch_miss 0
Core_0_STLB_cause_L1D_Prefetch_miss_rate 0
Core_0_STLB_cause_L1I_Prefetch_miss 0
Core_0_STLB_cause_L1I_Prefetch_miss_rate 0
Core_0_STLB_cause_Other_miss 0
Core_0_STLB_cause_Other_miss_rate 0
Core_0_STLB_Demand_miss 540694
Core_0_STLB_Demand_miss_rate 0.982464
Core_0_STLB_L1D_Prefetch_miss 0
Core_0_STLB_L1D_Prefetch_miss_rate 0
Core_0_STLB_Other_miss 0
Core_0_STLB_Other_miss_rate 0
