[VMEM] WARNING: physical memory size is smaller than virtual memory size.

*** ChampSim Multicore Out-of-Order Simulator ***
Warmup Instructions: 20000000
Simulation Instructions: 50000000
Number of CPUs: 1
Page size: 4096
Core 0: /data2/zcq/champsim_traces_gap/bc.web-704B.champsimtrace.xz
Off-chip DRAM Size: 16 GiB Channels: 1 Width: 64-bit Data Rate: 3205 MT/s
Warmup halting CPU 0 at instruction 20000001 cycle 5895975 for remainder of phase
Warmup finished CPU 0 instructions: 20000001 cycles: 5895975 cumulative IPC: 3.392 (Simulation time: 00 hr 00 min 47 sec)
Warmup complete CPU 0 instructions: 20000001 cycles: 5895975 cumulative IPC: 3.392 (Simulation time: 00 hr 00 min 47 sec)
Simulation finished CPU 0 instructions: 50000000 cycles: 45057560 cumulative IPC: 1.11 (Simulation time: 00 hr 05 min 41 sec)
Simulation complete CPU 0 instructions: 50000000 cycles: 45057560 cumulative IPC: 1.11 (Simulation time: 00 hr 05 min 41 sec)

ChampSim completed all CPUs

=== Simulation ===
CPU 0 runs /data2/zcq/champsim_traces_gap/bc.web-704B.champsimtrace.xz

Region of Interest Statistics

CPU 0 cumulative IPC: 1.11 instructions: 50000000 cycles: 45057560
CPU 0 Branch Prediction Accuracy: 97.64% MPKI: 3.976 Average ROB Occupancy at Mispredict: 122.7
Branch type MPKI
BRANCH_DIRECT_JUMP: 0
BRANCH_INDIRECT: 0
BRANCH_CONDITIONAL: 3.976
BRANCH_DIRECT_CALL: 0
BRANCH_INDIRECT_CALL: 0
BRANCH_RETURN: 0

cpu0->cpu0_STLB TOTAL        ACCESS:      91918 HIT:      71558 MISS:      20360 MSHR_MERGE:          0
cpu0->cpu0_STLB LOAD         ACCESS:      91918 HIT:      71558 MISS:      20360 MSHR_MERGE:          0
cpu0->cpu0_STLB RFO          ACCESS:          0 HIT:          0 MISS:          0 MSHR_MERGE:          0
cpu0->cpu0_STLB PREFETCH     ACCESS:          0 HIT:          0 MISS:          0 MSHR_MERGE:          0
cpu0->cpu0_STLB WRITE        ACCESS:          0 HIT:          0 MISS:          0 MSHR_MERGE:          0
cpu0->cpu0_STLB TRANSLATION  ACCESS:          0 HIT:          0 MISS:          0 MSHR_MERGE:          0
cpu0->cpu0_STLB PREFETCH REQUESTED:          0 ISSUED:          0 USEFUL:          0 USELESS:          0 LATE:          0
cpu0->cpu0_STLB AVERAGE MISS LATENCY: 288.7 cycles
cpu0->cpu0_L2C TOTAL        ACCESS:     389238 HIT:     148684 MISS:     240554 MSHR_MERGE:          0
cpu0->cpu0_L2C LOAD         ACCESS:     265443 HIT:      52817 MISS:     212626 MSHR_MERGE:          0
cpu0->cpu0_L2C RFO          ACCESS:      29367 HIT:      11883 MISS:      17484 MSHR_MERGE:          0
cpu0->cpu0_L2C PREFETCH     ACCESS:          0 HIT:          0 MISS:          0 MSHR_MERGE:          0
cpu0->cpu0_L2C WRITE        ACCESS:      78980 HIT:      78957 MISS:         23 MSHR_MERGE:          0
cpu0->cpu0_L2C TRANSLATION  ACCESS:      15448 HIT:       5027 MISS:      10421 MSHR_MERGE:          0
cpu0->cpu0_L2C PREFETCH REQUESTED:          0 ISSUED:          0 USEFUL:          0 USELESS:          0 LATE:          0
cpu0->cpu0_L2C AVERAGE MISS LATENCY: 197.2 cycles
cpu0->cpu0_L1I TOTAL        ACCESS:    1129214 HIT:    1129214 MISS:          0 MSHR_MERGE:          0
cpu0->cpu0_L1I LOAD         ACCESS:    1129214 HIT:    1129214 MISS:          0 MSHR_MERGE:          0
cpu0->cpu0_L1I RFO          ACCESS:          0 HIT:          0 MISS:          0 MSHR_MERGE:          0
cpu0->cpu0_L1I PREFETCH     ACCESS:          0 HIT:          0 MISS:          0 MSHR_MERGE:          0
cpu0->cpu0_L1I WRITE        ACCESS:          0 HIT:          0 MISS:          0 MSHR_MERGE:          0
cpu0->cpu0_L1I TRANSLATION  ACCESS:          0 HIT:          0 MISS:          0 MSHR_MERGE:          0
cpu0->cpu0_L1I PREFETCH REQUESTED:          0 ISSUED:          0 USEFUL:          0 USELESS:          0 LATE:          0
cpu0->cpu0_L1I AVERAGE MISS LATENCY: - cycles
cpu0->cpu0_L1D TOTAL        ACCESS:    6088193 HIT:    5308312 MISS:     779881 MSHR_MERGE:     469618
cpu0->cpu0_L1D LOAD         ACCESS:    5699564 HIT:    4968125 MISS:     731439 MSHR_MERGE:     465992
cpu0->cpu0_L1D RFO          ACCESS:          0 HIT:          0 MISS:          0 MSHR_MERGE:          0
cpu0->cpu0_L1D PREFETCH     ACCESS:          0 HIT:          0 MISS:          0 MSHR_MERGE:          0
cpu0->cpu0_L1D WRITE        ACCESS:     342120 HIT:     309257 MISS:      32863 MSHR_MERGE:       3495
cpu0->cpu0_L1D TRANSLATION  ACCESS:      46509 HIT:      30930 MISS:      15579 MSHR_MERGE:        131
cpu0->cpu0_L1D PREFETCH REQUESTED:          0 ISSUED:          0 USEFUL:          0 USELESS:          0 LATE:          0
cpu0->cpu0_L1D AVERAGE MISS LATENCY: 161.7 cycles
cpu0->cpu0_ITLB TOTAL        ACCESS:    1088572 HIT:    1088572 MISS:          0 MSHR_MERGE:          0
cpu0->cpu0_ITLB LOAD         ACCESS:    1088572 HIT:    1088572 MISS:          0 MSHR_MERGE:          0
cpu0->cpu0_ITLB RFO          ACCESS:          0 HIT:          0 MISS:          0 MSHR_MERGE:          0
cpu0->cpu0_ITLB PREFETCH     ACCESS:          0 HIT:          0 MISS:          0 MSHR_MERGE:          0
cpu0->cpu0_ITLB WRITE        ACCESS:          0 HIT:          0 MISS:          0 MSHR_MERGE:          0
cpu0->cpu0_ITLB TRANSLATION  ACCESS:          0 HIT:          0 MISS:          0 MSHR_MERGE:          0
cpu0->cpu0_ITLB PREFETCH REQUESTED:          0 ISSUED:          0 USEFUL:          0 USELESS:          0 LATE:          0
cpu0->cpu0_ITLB AVERAGE MISS LATENCY: - cycles
cpu0->cpu0_DTLB TOTAL        ACCESS:    6022346 HIT:    5848068 MISS:     174278 MSHR_MERGE:      82360
cpu0->cpu0_DTLB LOAD         ACCESS:    6022346 HIT:    5848068 MISS:     174278 MSHR_MERGE:      82360
cpu0->cpu0_DTLB RFO          ACCESS:          0 HIT:          0 MISS:          0 MSHR_MERGE:          0
cpu0->cpu0_DTLB PREFETCH     ACCESS:          0 HIT:          0 MISS:          0 MSHR_MERGE:          0
cpu0->cpu0_DTLB WRITE        ACCESS:          0 HIT:          0 MISS:          0 MSHR_MERGE:          0
cpu0->cpu0_DTLB TRANSLATION  ACCESS:          0 HIT:          0 MISS:          0 MSHR_MERGE:          0
cpu0->cpu0_DTLB PREFETCH REQUESTED:          0 ISSUED:          0 USEFUL:          0 USELESS:          0 LATE:          0
cpu0->cpu0_DTLB AVERAGE MISS LATENCY: 69.26 cycles
cpu0->LLC TOTAL        ACCESS:     295801 HIT:      65275 MISS:     230526 MSHR_MERGE:          0
cpu0->LLC LOAD         ACCESS:     212626 HIT:      10996 MISS:     201630 MSHR_MERGE:          0
cpu0->LLC RFO          ACCESS:      17484 HIT:       2814 MISS:      14670 MSHR_MERGE:          0
cpu0->LLC PREFETCH     ACCESS:          0 HIT:          0 MISS:          0 MSHR_MERGE:          0
cpu0->LLC WRITE        ACCESS:      55270 HIT:      49353 MISS:       5917 MSHR_MERGE:          0
cpu0->LLC TRANSLATION  ACCESS:      10421 HIT:       2112 MISS:       8309 MSHR_MERGE:          0
cpu0->LLC PREFETCH REQUESTED:          0 ISSUED:          0 USEFUL:          0 USELESS:          0 LATE:          0
cpu0->LLC AVERAGE MISS LATENCY: 189.4 cycles

DRAM Statistics

Channel 0 RQ ROW_BUFFER_HIT:       1621
  ROW_BUFFER_MISS:     222988
  AVG DBUS CONGESTED CYCLE: 18.34
Channel 0 WQ ROW_BUFFER_HIT:      14190
  ROW_BUFFER_MISS:      34020
  FULL:          0
Channel 0 REFRESHES ISSUED:       3755

[ROI Statistics]
[System Configuration]
num_cpus 1
cpu_freq 4000
fetch_width 6
decode_width 6
dispatch_width 6
execute_width 6
lq_width 2
sq_width 2
retire_width 6
scheduler_size 128
branch_mispredict_penalty 15
rob_size 352
lq_size 128
sq_size 72
ifetch_buffer_size 64
decode_buffer_size 32
dispatch_buffer_size 32
register_file_size 288
decode_latency 1
dispatch_latency 1
schedule_latency 1
execute_latency 1
page_size 4096
block_size 64
core_0_itlb_set 16
core_0_itlb_way 4
core_0_itlb_rq_size 16
core_0_itlb_wq_size 16
core_0_itlb_pq_size 0
core_0_itlb_mshr_size 8
core_0_itlb_hit_latency 1
core_0_itlb_fill_latency 1
core_0_itlb_max_tag_check 2
core_0_itlb_max_fill 2
core_0_dtlb_set 16
core_0_dtlb_way 4
core_0_dtlb_rq_size 16
core_0_dtlb_wq_size 16
core_0_dtlb_pq_size 0
core_0_dtlb_mshr_size 8
core_0_dtlb_hit_latency 1
core_0_dtlb_fill_latency 1
core_0_dtlb_max_tag_check 2
core_0_dtlb_max_fill 2
core_0_stlb_set 128
core_0_stlb_way 12
core_0_stlb_rq_size 32
core_0_stlb_wq_size 32
core_0_stlb_pq_size 0
core_0_stlb_mshr_size 16
core_0_stlb_hit_latency 4
core_0_stlb_fill_latency 4
core_0_stlb_max_tag_check 1
core_0_stlb_max_fill 1
core_0_l1i_set 64
core_0_l1i_way 8
core_0_l1i_rq_size 64
core_0_l1i_wq_size 64
core_0_l1i_pq_size 32
core_0_l1i_mshr_size 8
core_0_l1i_hit_latency 2
core_0_l1i_fill_latency 2
core_0_l1i_max_tag_check 2
core_0_l1i_max_fill 2
core_0_l1d_set 64
core_0_l1d_way 12
core_0_l1d_rq_size 64
core_0_l1d_wq_size 64
core_0_l1d_pq_size 8
core_0_l1d_mshr_size 16
core_0_l1d_hit_latency 2
core_0_l1d_fill_latency 3
core_0_l1d_max_tag_check 2
core_0_l1d_max_fill 2
core_0_l2c_set 1024
core_0_l2c_way 8
core_0_l2c_rq_size 32
core_0_l2c_wq_size 32
core_0_l2c_pq_size 16
core_0_l2c_mshr_size 32
core_0_l2c_hit_latency 5
core_0_l2c_fill_latency 5
core_0_l2c_max_tag_check 1
core_0_l2c_max_fill 1
llc_set 2048
llc_way 16
llc_rq_size 32
llc_wq_size 32
llc_pq_size 32
llc_mshr_size 64
llc_hit_latency 10
llc_fill_latency 10
llc_max_tag_check 1
llc_max_fill 1
dram_channels 1
dram_ranks 1
dram_bankgroups 8
dram_banks 4
dram_rows 65536
dram_columns 1024
dram_channel_width 8
dram_rq_size 64
dram_wq_size 64
dram_size 17179869184
core_0_itlb_prefetcher no
core_0_dtlb_prefetcher no
core_0_stlb_prefetcher no
core_0_l1i_prefetcher no
core_0_l1d_prefetcher no
core_0_l2c_prefetcher no
llc_prefetcher no
llc_replacement drrip

Core_0_instructions 50000000
Core_0_cycles 45057560
Core_0_IPC 1.10969
Core_0_branch_prediction_accuracy 97.6439
Core_0_branch_MPKI 3.9759
Core_0_average_ROB_occupancy_at_mispredict 122.71

Core_0_ITLB_total_access 1088572
Core_0_ITLB_total_hit 1088572
Core_0_ITLB_total_miss 0
Core_0_ITLB_total_MPKI 0
Core_0_ITLB_total_miss_rate 0
Core_0_ITLB_demand_access 1088572
Core_0_ITLB_demand_hit 1088572
Core_0_ITLB_demand_miss 0
Core_0_ITLB_demand_MPKI 0
Core_0_ITLB_demand_miss_rate 0
Core_0_ITLB_load_access 1088572
Core_0_ITLB_load_hit 1088572
Core_0_ITLB_load_miss 0
Core_0_ITLB_load_MPKI 0
Core_0_ITLB_load_miss_rate 0
Core_0_ITLB_rfo_access 0
Core_0_ITLB_rfo_hit 0
Core_0_ITLB_rfo_miss 0
Core_0_ITLB_rfo_MPKI 0
Core_0_ITLB_rfo_miss_rate 0
Core_0_ITLB_prefetch_access 0
Core_0_ITLB_prefetch_hit 0
Core_0_ITLB_prefetch_miss 0
Core_0_ITLB_prefetch_MPKI 0
Core_0_ITLB_prefetch_miss_rate 0
Core_0_ITLB_writeback_access 0
Core_0_ITLB_writeback_hit 0
Core_0_ITLB_writeback_miss 0
Core_0_ITLB_writeback_MPKI 0
Core_0_ITLB_writeback_miss_rate 0
Core_0_ITLB_prefetch_requested 0
Core_0_ITLB_prefetch_issued 0
Core_0_ITLB_prefetch_useful 0
Core_0_ITLB_prefetch_useless 0
Core_0_ITLB_prefetch_late 0
Core_0_ITLB_prefetch_accuracy 0
Core_0_ITLB_prefetch_coverage 0

Core_0_DTLB_total_access 6022346
Core_0_DTLB_total_hit 5848068
Core_0_DTLB_total_miss 174278
Core_0_DTLB_total_MPKI 3.48556
Core_0_DTLB_total_miss_rate 0.0289386
Core_0_DTLB_demand_access 6022346
Core_0_DTLB_demand_hit 5848068
Core_0_DTLB_demand_miss 174278
Core_0_DTLB_demand_MPKI 3.48556
Core_0_DTLB_demand_miss_rate 0.0289386
Core_0_DTLB_load_access 6022346
Core_0_DTLB_load_hit 5848068
Core_0_DTLB_load_miss 174278
Core_0_DTLB_load_MPKI 3.48556
Core_0_DTLB_load_miss_rate 0.0289386
Core_0_DTLB_rfo_access 0
Core_0_DTLB_rfo_hit 0
Core_0_DTLB_rfo_miss 0
Core_0_DTLB_rfo_MPKI 0
Core_0_DTLB_rfo_miss_rate 0
Core_0_DTLB_prefetch_access 0
Core_0_DTLB_prefetch_hit 0
Core_0_DTLB_prefetch_miss 0
Core_0_DTLB_prefetch_MPKI 0
Core_0_DTLB_prefetch_miss_rate 0
Core_0_DTLB_writeback_access 0
Core_0_DTLB_writeback_hit 0
Core_0_DTLB_writeback_miss 0
Core_0_DTLB_writeback_MPKI 0
Core_0_DTLB_writeback_miss_rate 0
Core_0_DTLB_prefetch_requested 0
Core_0_DTLB_prefetch_issued 0
Core_0_DTLB_prefetch_useful 0
Core_0_DTLB_prefetch_useless 0
Core_0_DTLB_prefetch_late 0
Core_0_DTLB_prefetch_accuracy 0
Core_0_DTLB_prefetch_coverage 0

Core_0_STLB_total_access 91918
Core_0_STLB_total_hit 71558
Core_0_STLB_total_miss 20360
Core_0_STLB_total_MPKI 0.4072
Core_0_STLB_total_miss_rate 0.221502
Core_0_STLB_demand_access 91918
Core_0_STLB_demand_hit 71558
Core_0_STLB_demand_miss 20360
Core_0_STLB_demand_MPKI 0.4072
Core_0_STLB_demand_miss_rate 0.221502
Core_0_STLB_load_access 91918
Core_0_STLB_load_hit 71558
Core_0_STLB_load_miss 20360
Core_0_STLB_load_MPKI 0.4072
Core_0_STLB_load_miss_rate 0.221502
Core_0_STLB_rfo_access 0
Core_0_STLB_rfo_hit 0
Core_0_STLB_rfo_miss 0
Core_0_STLB_rfo_MPKI 0
Core_0_STLB_rfo_miss_rate 0
Core_0_STLB_prefetch_access 0
Core_0_STLB_prefetch_hit 0
Core_0_STLB_prefetch_miss 0
Core_0_STLB_prefetch_MPKI 0
Core_0_STLB_prefetch_miss_rate 0
Core_0_STLB_writeback_access 0
Core_0_STLB_writeback_hit 0
Core_0_STLB_writeback_miss 0
Core_0_STLB_writeback_MPKI 0
Core_0_STLB_writeback_miss_rate 0
Core_0_STLB_prefetch_requested 0
Core_0_STLB_prefetch_issued 0
Core_0_STLB_prefetch_useful 0
Core_0_STLB_prefetch_useless 0
Core_0_STLB_prefetch_late 0
Core_0_STLB_prefetch_accuracy 0
Core_0_STLB_prefetch_coverage 0

Core_0_L1I_total_access 1129214
Core_0_L1I_total_hit 1129214
Core_0_L1I_total_miss 0
Core_0_L1I_total_MPKI 0
Core_0_L1I_total_miss_rate 0
Core_0_L1I_demand_access 1129214
Core_0_L1I_demand_hit 1129214
Core_0_L1I_demand_miss 0
Core_0_L1I_demand_MPKI 0
Core_0_L1I_demand_miss_rate 0
Core_0_L1I_load_access 1129214
Core_0_L1I_load_hit 1129214
Core_0_L1I_load_miss 0
Core_0_L1I_load_MPKI 0
Core_0_L1I_load_miss_rate 0
Core_0_L1I_rfo_access 0
Core_0_L1I_rfo_hit 0
Core_0_L1I_rfo_miss 0
Core_0_L1I_rfo_MPKI 0
Core_0_L1I_rfo_miss_rate 0
Core_0_L1I_prefetch_access 0
Core_0_L1I_prefetch_hit 0
Core_0_L1I_prefetch_miss 0
Core_0_L1I_prefetch_MPKI 0
Core_0_L1I_prefetch_miss_rate 0
Core_0_L1I_writeback_access 0
Core_0_L1I_writeback_hit 0
Core_0_L1I_writeback_miss 0
Core_0_L1I_writeback_MPKI 0
Core_0_L1I_writeback_miss_rate 0
Core_0_L1I_prefetch_requested 0
Core_0_L1I_prefetch_issued 0
Core_0_L1I_prefetch_useful 0
Core_0_L1I_prefetch_useless 0
Core_0_L1I_prefetch_late 0
Core_0_L1I_prefetch_accuracy 0
Core_0_L1I_prefetch_coverage 0

Core_0_L1D_total_access 6041684
Core_0_L1D_total_hit 5277382
Core_0_L1D_total_miss 764302
Core_0_L1D_total_MPKI 15.286
Core_0_L1D_total_miss_rate 0.126505
Core_0_L1D_demand_access 5699564
Core_0_L1D_demand_hit 4968125
Core_0_L1D_demand_miss 731439
Core_0_L1D_demand_MPKI 14.6288
Core_0_L1D_demand_miss_rate 0.128332
Core_0_L1D_load_access 5699564
Core_0_L1D_load_hit 4968125
Core_0_L1D_load_miss 731439
Core_0_L1D_load_MPKI 14.6288
Core_0_L1D_load_miss_rate 0.128332
Core_0_L1D_rfo_access 0
Core_0_L1D_rfo_hit 0
Core_0_L1D_rfo_miss 0
Core_0_L1D_rfo_MPKI 0
Core_0_L1D_rfo_miss_rate 0
Core_0_L1D_prefetch_access 0
Core_0_L1D_prefetch_hit 0
Core_0_L1D_prefetch_miss 0
Core_0_L1D_prefetch_MPKI 0
Core_0_L1D_prefetch_miss_rate 0
Core_0_L1D_writeback_access 342120
Core_0_L1D_writeback_hit 309257
Core_0_L1D_writeback_miss 32863
Core_0_L1D_writeback_MPKI 0.65726
Core_0_L1D_writeback_miss_rate 0.0960569
Core_0_L1D_prefetch_requested 0
Core_0_L1D_prefetch_issued 0
Core_0_L1D_prefetch_useful 0
Core_0_L1D_prefetch_useless 0
Core_0_L1D_prefetch_late 0
Core_0_L1D_prefetch_accuracy 0
Core_0_L1D_prefetch_coverage 0

Core_0_L2C_total_access 373790
Core_0_L2C_total_hit 143657
Core_0_L2C_total_miss 230133
Core_0_L2C_total_MPKI 4.60266
Core_0_L2C_total_miss_rate 0.615675
Core_0_L2C_demand_access 294810
Core_0_L2C_demand_hit 64700
Core_0_L2C_demand_miss 230110
Core_0_L2C_demand_MPKI 4.6022
Core_0_L2C_demand_miss_rate 0.780537
Core_0_L2C_load_access 265443
Core_0_L2C_load_hit 52817
Core_0_L2C_load_miss 212626
Core_0_L2C_load_MPKI 4.25252
Core_0_L2C_load_miss_rate 0.801023
Core_0_L2C_rfo_access 29367
Core_0_L2C_rfo_hit 11883
Core_0_L2C_rfo_miss 17484
Core_0_L2C_rfo_MPKI 0.34968
Core_0_L2C_rfo_miss_rate 0.595362
Core_0_L2C_prefetch_access 0
Core_0_L2C_prefetch_hit 0
Core_0_L2C_prefetch_miss 0
Core_0_L2C_prefetch_MPKI 0
Core_0_L2C_prefetch_miss_rate 0
Core_0_L2C_writeback_access 78980
Core_0_L2C_writeback_hit 78957
Core_0_L2C_writeback_miss 23
Core_0_L2C_writeback_MPKI 0.00046
Core_0_L2C_writeback_miss_rate 0.000291213
Core_0_L2C_prefetch_requested 0
Core_0_L2C_prefetch_issued 0
Core_0_L2C_prefetch_useful 0
Core_0_L2C_prefetch_useless 0
Core_0_L2C_prefetch_late 0
Core_0_L2C_prefetch_accuracy 0
Core_0_L2C_prefetch_coverage 0

Core_0_LLC_total_access 285380
Core_0_LLC_total_hit 63163
Core_0_LLC_total_miss 222217
Core_0_LLC_total_MPKI 4.44434
Core_0_LLC_total_miss_rate 0.778671
Core_0_LLC_demand_access 230110
Core_0_LLC_demand_hit 13810
Core_0_LLC_demand_miss 216300
Core_0_LLC_demand_MPKI 4.326
Core_0_LLC_demand_miss_rate 0.939985
Core_0_LLC_load_access 212626
Core_0_LLC_load_hit 10996
Core_0_LLC_load_miss 201630
Core_0_LLC_load_MPKI 4.0326
Core_0_LLC_load_miss_rate 0.948285
Core_0_LLC_rfo_access 17484
Core_0_LLC_rfo_hit 2814
Core_0_LLC_rfo_miss 14670
Core_0_LLC_rfo_MPKI 0.2934
Core_0_LLC_rfo_miss_rate 0.839053
Core_0_LLC_prefetch_access 0
Core_0_LLC_prefetch_hit 0
Core_0_LLC_prefetch_miss 0
Core_0_LLC_prefetch_MPKI 0
Core_0_LLC_prefetch_miss_rate 0
Core_0_LLC_writeback_access 55270
Core_0_LLC_writeback_hit 49353
Core_0_LLC_writeback_miss 5917
Core_0_LLC_writeback_MPKI 0.11834
Core_0_LLC_writeback_miss_rate 0.107056
Core_0_LLC_prefetch_requested 0
Core_0_LLC_prefetch_issued 0
Core_0_LLC_prefetch_useful 0
Core_0_LLC_prefetch_useless 0
Core_0_LLC_prefetch_late 0
Core_0_LLC_prefetch_accuracy 0
Core_0_LLC_prefetch_coverage 0

[DRAM Statistics]
Channel_0_RQ_row_buffer_hit 1621
Channel_0_RQ_row_buffer_miss 222988
Channel_0_WQ_row_buffer_hit 14190
Channel_0_WQ_row_buffer_miss 34020
Channel_0_WQ_full 0
Channel_0_dbus_congested 720311
DRAM_total_RQ_row_buffer_hit 1621
DRAM_total_RQ_row_buffer_miss 222988
DRAM_total_WQ_row_buffer_hit 14190
DRAM_total_WQ_row_buffer_miss 34020
DRAM_total_WQ_full 0
DRAM_total_dbus_congested 720311
DRAM_avg_congested_cycle 18.3375

====== DRAM_RQ_TRAFFIC ========
DRAM_RQ_READ_TRAFFIC_BREAKDOWN:
data_demand_read.count = 216300
data_demand_read.share = 96.30%

inst_demand_read.count = 0
inst_demand_read.share = 0.00%

cache_inst_prefetch.count = 0
cache_inst_prefetch.share = 0.00%

cache_data_prefetch.count = 0
cache_data_prefetch.share = 0.00%

stlb_data_demand.count = 8309
stlb_data_demand.share = 3.70%

stlb_inst_demand.count = 0
stlb_inst_demand.share = 0.00%

stlb_l1i_pref.count = 0
stlb_l1i_pref.share = 0.00%

stlb_l1d_pref.count = 0
stlb_l1d_pref.share = 0.00%

DRAM_RQ_READ_TRAFFIC_SUMMARY:
cache_demand.count = 216300
cache_demand.share = 96.30%

cache_prefetch.count = 0
cache_prefetch.share = 0.00%

stlb_demand.count = 8309
stlb_demand.share = 3.70%

stlb_prefetch.count = 0
stlb_prefetch.share = 0.00%

DRAM_RQ_READ_TRAFFIC_DEBUG:
total_classified_read.count = 224609
unclassified_read.count = 0
total_read_with_other.count = 224609

classified_plus_unclassified_check.count = 224609
dram_rq_read_total_observed.count = 224609
dram_rq_read_total_observed.per_1K_instructions = 4.49218

STLB_MISS_PTW_DRAM_TOUCH_BREAKDOWN:
stlb_miss_total.count = 20360

stlb_miss_touch_dram.count = 8007
stlb_miss_touch_dram.share = 39.33%

stlb_miss_no_dram_touch.count = 12353
stlb_miss_no_dram_touch.share = 60.67%

STLB_MISS_PTW_DRAM_TOUCH_DEBUG:
stlb_miss_touch_plus_no_touch.count = 20360
stlb_miss_total_check.count = 20360

======STLB miss causes ========
Core_0_STLB_miss_cause_breakdown
Core_0_STLB_cause_Demand_Data_miss 20360
Core_0_STLB_cause_Demand_Data_miss_rate 0.221502
Core_0_STLB_cause_Demand_Instruction_miss 0
Core_0_STLB_cause_Demand_Instruction_miss_rate 0
Core_0_STLB_cause_L1D_Prefetch_miss 0
Core_0_STLB_cause_L1D_Prefetch_miss_rate 0
Core_0_STLB_cause_L1I_Prefetch_miss 0
Core_0_STLB_cause_L1I_Prefetch_miss_rate 0
Core_0_STLB_cause_Other_miss 0
Core_0_STLB_cause_Other_miss_rate 0
Core_0_STLB_Demand_miss 20360
Core_0_STLB_Demand_miss_rate 0.221502
Core_0_STLB_L1D_Prefetch_miss 0
Core_0_STLB_L1D_Prefetch_miss_rate 0
Core_0_STLB_Other_miss 0
Core_0_STLB_Other_miss_rate 0
