[VMEM] WARNING: physical memory size is smaller than virtual memory size.

*** ChampSim Multicore Out-of-Order Simulator ***
Warmup Instructions: 20000000
Simulation Instructions: 50000000
Number of CPUs: 1
Page size: 4096
Core 0: /data2/zcq/champsim_traces_gap/bfs.urand-36B.champsimtrace.xz
Off-chip DRAM Size: 16 GiB Channels: 1 Width: 64-bit Data Rate: 3205 MT/s
Warmup halting CPU 0 at instruction 20000000 cycle 6241386 for remainder of phase
Warmup finished CPU 0 instructions: 20000000 cycles: 6241386 cumulative IPC: 3.204 (Simulation time: 00 hr 01 min 25 sec)
Warmup complete CPU 0 instructions: 20000000 cycles: 6241386 cumulative IPC: 3.204 (Simulation time: 00 hr 01 min 25 sec)
Simulation finished CPU 0 instructions: 50000001 cycles: 388714619 cumulative IPC: 0.1286 (Simulation time: 00 hr 26 min 08 sec)
Simulation complete CPU 0 instructions: 50000001 cycles: 388714619 cumulative IPC: 0.1286 (Simulation time: 00 hr 26 min 08 sec)

ChampSim completed all CPUs

=== Simulation ===
CPU 0 runs /data2/zcq/champsim_traces_gap/bfs.urand-36B.champsimtrace.xz

Region of Interest Statistics

CPU 0 cumulative IPC: 0.1286 instructions: 50000001 cycles: 388714619
CPU 0 Branch Prediction Accuracy: 89.28% MPKI: 19.61 Average ROB Occupancy at Mispredict: 28.55
Branch type MPKI
BRANCH_DIRECT_JUMP: 0
BRANCH_INDIRECT: 0
BRANCH_CONDITIONAL: 19.61
BRANCH_DIRECT_CALL: 0
BRANCH_INDIRECT_CALL: 0
BRANCH_RETURN: 0

cpu0->cpu0_STLB TOTAL        ACCESS:    3456695 HIT:    2878621 MISS:     578074 MSHR_MERGE:          0
cpu0->cpu0_STLB LOAD         ACCESS:    3456695 HIT:    2878621 MISS:     578074 MSHR_MERGE:          0
cpu0->cpu0_STLB RFO          ACCESS:          0 HIT:          0 MISS:          0 MSHR_MERGE:          0
cpu0->cpu0_STLB PREFETCH     ACCESS:          0 HIT:          0 MISS:          0 MSHR_MERGE:          0
cpu0->cpu0_STLB WRITE        ACCESS:          0 HIT:          0 MISS:          0 MSHR_MERGE:          0
cpu0->cpu0_STLB TRANSLATION  ACCESS:          0 HIT:          0 MISS:          0 MSHR_MERGE:          0
cpu0->cpu0_STLB PREFETCH REQUESTED:          0 ISSUED:          0 USEFUL:          0 USELESS:          0 LATE:          0
cpu0->cpu0_STLB AVERAGE MISS LATENCY: 36.53 cycles
cpu0->cpu0_L2C TOTAL        ACCESS:    5194110 HIT:     677578 MISS:    4516532 MSHR_MERGE:          0
cpu0->cpu0_L2C LOAD         ACCESS:    4690875 HIT:     251571 MISS:    4439304 MSHR_MERGE:          0
cpu0->cpu0_L2C RFO          ACCESS:        957 HIT:        878 MISS:         79 MSHR_MERGE:          0
cpu0->cpu0_L2C PREFETCH     ACCESS:          0 HIT:          0 MISS:          0 MSHR_MERGE:          0
cpu0->cpu0_L2C WRITE        ACCESS:      65048 HIT:      65002 MISS:         46 MSHR_MERGE:          0
cpu0->cpu0_L2C TRANSLATION  ACCESS:     437230 HIT:     360127 MISS:      77103 MSHR_MERGE:          0
cpu0->cpu0_L2C PREFETCH REQUESTED:          0 ISSUED:          0 USEFUL:          0 USELESS:          0 LATE:          0
cpu0->cpu0_L2C AVERAGE MISS LATENCY: 159.1 cycles
cpu0->cpu0_L1I TOTAL        ACCESS:         17 HIT:         17 MISS:          0 MSHR_MERGE:          0
cpu0->cpu0_L1I LOAD         ACCESS:         17 HIT:         17 MISS:          0 MSHR_MERGE:          0
cpu0->cpu0_L1I RFO          ACCESS:          0 HIT:          0 MISS:          0 MSHR_MERGE:          0
cpu0->cpu0_L1I PREFETCH     ACCESS:          0 HIT:          0 MISS:          0 MSHR_MERGE:          0
cpu0->cpu0_L1I WRITE        ACCESS:          0 HIT:          0 MISS:          0 MSHR_MERGE:          0
cpu0->cpu0_L1I TRANSLATION  ACCESS:          0 HIT:          0 MISS:          0 MSHR_MERGE:          0
cpu0->cpu0_L1I PREFETCH REQUESTED:          0 ISSUED:          0 USEFUL:          0 USELESS:          0 LATE:          0
cpu0->cpu0_L1I AVERAGE MISS LATENCY: - cycles
cpu0->cpu0_L1D TOTAL        ACCESS:   16286233 HIT:    8530199 MISS:    7756034 MSHR_MERGE:    2626972
cpu0->cpu0_L1D LOAD         ACCESS:   12840131 HIT:    5526811 MISS:    7313320 MSHR_MERGE:    2622445
cpu0->cpu0_L1D RFO          ACCESS:          0 HIT:          0 MISS:          0 MSHR_MERGE:          0
cpu0->cpu0_L1D PREFETCH     ACCESS:          0 HIT:          0 MISS:          0 MSHR_MERGE:          0
cpu0->cpu0_L1D WRITE        ACCESS:    2295678 HIT:    2293764 MISS:       1914 MSHR_MERGE:        957
cpu0->cpu0_L1D TRANSLATION  ACCESS:    1150424 HIT:     709624 MISS:     440800 MSHR_MERGE:       3570
cpu0->cpu0_L1D PREFETCH REQUESTED:          0 ISSUED:          0 USEFUL:          0 USELESS:          0 LATE:          0
cpu0->cpu0_L1D AVERAGE MISS LATENCY: 149 cycles
cpu0->cpu0_ITLB TOTAL        ACCESS:         17 HIT:         17 MISS:          0 MSHR_MERGE:          0
cpu0->cpu0_ITLB LOAD         ACCESS:         17 HIT:         17 MISS:          0 MSHR_MERGE:          0
cpu0->cpu0_ITLB RFO          ACCESS:          0 HIT:          0 MISS:          0 MSHR_MERGE:          0
cpu0->cpu0_ITLB PREFETCH     ACCESS:          0 HIT:          0 MISS:          0 MSHR_MERGE:          0
cpu0->cpu0_ITLB WRITE        ACCESS:          0 HIT:          0 MISS:          0 MSHR_MERGE:          0
cpu0->cpu0_ITLB TRANSLATION  ACCESS:          0 HIT:          0 MISS:          0 MSHR_MERGE:          0
cpu0->cpu0_ITLB PREFETCH REQUESTED:          0 ISSUED:          0 USEFUL:          0 USELESS:          0 LATE:          0
cpu0->cpu0_ITLB AVERAGE MISS LATENCY: - cycles
cpu0->cpu0_DTLB TOTAL        ACCESS:   15134638 HIT:   11542075 MISS:    3592563 MSHR_MERGE:     135869
cpu0->cpu0_DTLB LOAD         ACCESS:   15134638 HIT:   11542075 MISS:    3592563 MSHR_MERGE:     135869
cpu0->cpu0_DTLB RFO          ACCESS:          0 HIT:          0 MISS:          0 MSHR_MERGE:          0
cpu0->cpu0_DTLB PREFETCH     ACCESS:          0 HIT:          0 MISS:          0 MSHR_MERGE:          0
cpu0->cpu0_DTLB WRITE        ACCESS:          0 HIT:          0 MISS:          0 MSHR_MERGE:          0
cpu0->cpu0_DTLB TRANSLATION  ACCESS:          0 HIT:          0 MISS:          0 MSHR_MERGE:          0
cpu0->cpu0_DTLB PREFETCH REQUESTED:          0 ISSUED:          0 USEFUL:          0 USELESS:          0 LATE:          0
cpu0->cpu0_DTLB AVERAGE MISS LATENCY: 11.48 cycles
cpu0->LLC TOTAL        ACCESS:    4579853 HIT:    1401184 MISS:    3178669 MSHR_MERGE:          0
cpu0->LLC LOAD         ACCESS:    4439304 HIT:    1319285 MISS:    3120019 MSHR_MERGE:          0
cpu0->LLC RFO          ACCESS:         79 HIT:         79 MISS:          0 MSHR_MERGE:          0
cpu0->LLC PREFETCH     ACCESS:          0 HIT:          0 MISS:          0 MSHR_MERGE:          0
cpu0->LLC WRITE        ACCESS:      63367 HIT:      12058 MISS:      51309 MSHR_MERGE:          0
cpu0->LLC TRANSLATION  ACCESS:      77103 HIT:      69762 MISS:       7341 MSHR_MERGE:          0
cpu0->LLC PREFETCH REQUESTED:          0 ISSUED:          0 USEFUL:          0 USELESS:          0 LATE:          0
cpu0->LLC AVERAGE MISS LATENCY: 203.9 cycles

DRAM Statistics

Channel 0 RQ ROW_BUFFER_HIT:      36657
  ROW_BUFFER_MISS:    3090702
  AVG DBUS CONGESTED CYCLE: 17.56
Channel 0 WQ ROW_BUFFER_HIT:      23008
  ROW_BUFFER_MISS:      40488
  FULL:          0
Channel 0 REFRESHES ISSUED:      32393

[ROI Statistics]
[System Configuration]
num_cpus 1
cpu_freq 4000
fetch_width 6
decode_width 6
dispatch_width 6
execute_width 6
lq_width 2
sq_width 2
retire_width 6
scheduler_size 128
branch_mispredict_penalty 15
rob_size 352
lq_size 128
sq_size 72
ifetch_buffer_size 64
decode_buffer_size 32
dispatch_buffer_size 32
register_file_size 288
decode_latency 1
dispatch_latency 1
schedule_latency 1
execute_latency 1
page_size 4096
block_size 64
core_0_itlb_set 16
core_0_itlb_way 4
core_0_itlb_rq_size 16
core_0_itlb_wq_size 16
core_0_itlb_pq_size 0
core_0_itlb_mshr_size 8
core_0_itlb_hit_latency 1
core_0_itlb_fill_latency 1
core_0_itlb_max_tag_check 2
core_0_itlb_max_fill 2
core_0_dtlb_set 16
core_0_dtlb_way 4
core_0_dtlb_rq_size 16
core_0_dtlb_wq_size 16
core_0_dtlb_pq_size 0
core_0_dtlb_mshr_size 8
core_0_dtlb_hit_latency 1
core_0_dtlb_fill_latency 1
core_0_dtlb_max_tag_check 2
core_0_dtlb_max_fill 2
core_0_stlb_set 128
core_0_stlb_way 12
core_0_stlb_rq_size 32
core_0_stlb_wq_size 32
core_0_stlb_pq_size 0
core_0_stlb_mshr_size 16
core_0_stlb_hit_latency 4
core_0_stlb_fill_latency 4
core_0_stlb_max_tag_check 1
core_0_stlb_max_fill 1
core_0_l1i_set 64
core_0_l1i_way 8
core_0_l1i_rq_size 64
core_0_l1i_wq_size 64
core_0_l1i_pq_size 32
core_0_l1i_mshr_size 8
core_0_l1i_hit_latency 2
core_0_l1i_fill_latency 2
core_0_l1i_max_tag_check 2
core_0_l1i_max_fill 2
core_0_l1d_set 64
core_0_l1d_way 12
core_0_l1d_rq_size 64
core_0_l1d_wq_size 64
core_0_l1d_pq_size 8
core_0_l1d_mshr_size 16
core_0_l1d_hit_latency 2
core_0_l1d_fill_latency 3
core_0_l1d_max_tag_check 2
core_0_l1d_max_fill 2
core_0_l2c_set 1024
core_0_l2c_way 8
core_0_l2c_rq_size 32
core_0_l2c_wq_size 32
core_0_l2c_pq_size 16
core_0_l2c_mshr_size 32
core_0_l2c_hit_latency 5
core_0_l2c_fill_latency 5
core_0_l2c_max_tag_check 1
core_0_l2c_max_fill 1
llc_set 2048
llc_way 16
llc_rq_size 32
llc_wq_size 32
llc_pq_size 32
llc_mshr_size 64
llc_hit_latency 10
llc_fill_latency 10
llc_max_tag_check 1
llc_max_fill 1
dram_channels 1
dram_ranks 1
dram_bankgroups 8
dram_banks 4
dram_rows 65536
dram_columns 1024
dram_channel_width 8
dram_rq_size 64
dram_wq_size 64
dram_size 17179869184
core_0_itlb_prefetcher no
core_0_dtlb_prefetcher no
core_0_stlb_prefetcher no
core_0_l1i_prefetcher no
core_0_l1d_prefetcher no
core_0_l2c_prefetcher no
llc_prefetcher no
llc_replacement drrip

Core_0_instructions 50000001
Core_0_cycles 388714619
Core_0_IPC 0.128629
Core_0_branch_prediction_accuracy 89.2786
Core_0_branch_MPKI 19.6122
Core_0_average_ROB_occupancy_at_mispredict 28.5458

Core_0_ITLB_total_access 17
Core_0_ITLB_total_hit 17
Core_0_ITLB_total_miss 0
Core_0_ITLB_total_MPKI 0
Core_0_ITLB_total_miss_rate 0
Core_0_ITLB_demand_access 17
Core_0_ITLB_demand_hit 17
Core_0_ITLB_demand_miss 0
Core_0_ITLB_demand_MPKI 0
Core_0_ITLB_demand_miss_rate 0
Core_0_ITLB_load_access 17
Core_0_ITLB_load_hit 17
Core_0_ITLB_load_miss 0
Core_0_ITLB_load_MPKI 0
Core_0_ITLB_load_miss_rate 0
Core_0_ITLB_rfo_access 0
Core_0_ITLB_rfo_hit 0
Core_0_ITLB_rfo_miss 0
Core_0_ITLB_rfo_MPKI 0
Core_0_ITLB_rfo_miss_rate 0
Core_0_ITLB_prefetch_access 0
Core_0_ITLB_prefetch_hit 0
Core_0_ITLB_prefetch_miss 0
Core_0_ITLB_prefetch_MPKI 0
Core_0_ITLB_prefetch_miss_rate 0
Core_0_ITLB_writeback_access 0
Core_0_ITLB_writeback_hit 0
Core_0_ITLB_writeback_miss 0
Core_0_ITLB_writeback_MPKI 0
Core_0_ITLB_writeback_miss_rate 0
Core_0_ITLB_prefetch_requested 0
Core_0_ITLB_prefetch_issued 0
Core_0_ITLB_prefetch_useful 0
Core_0_ITLB_prefetch_useless 0
Core_0_ITLB_prefetch_late 0
Core_0_ITLB_prefetch_accuracy 0
Core_0_ITLB_prefetch_coverage 0

Core_0_DTLB_total_access 15134638
Core_0_DTLB_total_hit 11542075
Core_0_DTLB_total_miss 3592563
Core_0_DTLB_total_MPKI 71.8513
Core_0_DTLB_total_miss_rate 0.237374
Core_0_DTLB_demand_access 15134638
Core_0_DTLB_demand_hit 11542075
Core_0_DTLB_demand_miss 3592563
Core_0_DTLB_demand_MPKI 71.8513
Core_0_DTLB_demand_miss_rate 0.237374
Core_0_DTLB_load_access 15134638
Core_0_DTLB_load_hit 11542075
Core_0_DTLB_load_miss 3592563
Core_0_DTLB_load_MPKI 71.8513
Core_0_DTLB_load_miss_rate 0.237374
Core_0_DTLB_rfo_access 0
Core_0_DTLB_rfo_hit 0
Core_0_DTLB_rfo_miss 0
Core_0_DTLB_rfo_MPKI 0
Core_0_DTLB_rfo_miss_rate 0
Core_0_DTLB_prefetch_access 0
Core_0_DTLB_prefetch_hit 0
Core_0_DTLB_prefetch_miss 0
Core_0_DTLB_prefetch_MPKI 0
Core_0_DTLB_prefetch_miss_rate 0
Core_0_DTLB_writeback_access 0
Core_0_DTLB_writeback_hit 0
Core_0_DTLB_writeback_miss 0
Core_0_DTLB_writeback_MPKI 0
Core_0_DTLB_writeback_miss_rate 0
Core_0_DTLB_prefetch_requested 0
Core_0_DTLB_prefetch_issued 0
Core_0_DTLB_prefetch_useful 0
Core_0_DTLB_prefetch_useless 0
Core_0_DTLB_prefetch_late 0
Core_0_DTLB_prefetch_accuracy 0
Core_0_DTLB_prefetch_coverage 0

Core_0_STLB_total_access 3456695
Core_0_STLB_total_hit 2878621
Core_0_STLB_total_miss 578074
Core_0_STLB_total_MPKI 11.5615
Core_0_STLB_total_miss_rate 0.167233
Core_0_STLB_demand_access 3456695
Core_0_STLB_demand_hit 2878621
Core_0_STLB_demand_miss 578074
Core_0_STLB_demand_MPKI 11.5615
Core_0_STLB_demand_miss_rate 0.167233
Core_0_STLB_load_access 3456695
Core_0_STLB_load_hit 2878621
Core_0_STLB_load_miss 578074
Core_0_STLB_load_MPKI 11.5615
Core_0_STLB_load_miss_rate 0.167233
Core_0_STLB_rfo_access 0
Core_0_STLB_rfo_hit 0
Core_0_STLB_rfo_miss 0
Core_0_STLB_rfo_MPKI 0
Core_0_STLB_rfo_miss_rate 0
Core_0_STLB_prefetch_access 0
Core_0_STLB_prefetch_hit 0
Core_0_STLB_prefetch_miss 0
Core_0_STLB_prefetch_MPKI 0
Core_0_STLB_prefetch_miss_rate 0
Core_0_STLB_writeback_access 0
Core_0_STLB_writeback_hit 0
Core_0_STLB_writeback_miss 0
Core_0_STLB_writeback_MPKI 0
Core_0_STLB_writeback_miss_rate 0
Core_0_STLB_prefetch_requested 0
Core_0_STLB_prefetch_issued 0
Core_0_STLB_prefetch_useful 0
Core_0_STLB_prefetch_useless 0
Core_0_STLB_prefetch_late 0
Core_0_STLB_prefetch_accuracy 0
Core_0_STLB_prefetch_coverage 0

Core_0_L1I_total_access 17
Core_0_L1I_total_hit 17
Core_0_L1I_total_miss 0
Core_0_L1I_total_MPKI 0
Core_0_L1I_total_miss_rate 0
Core_0_L1I_demand_access 17
Core_0_L1I_demand_hit 17
Core_0_L1I_demand_miss 0
Core_0_L1I_demand_MPKI 0
Core_0_L1I_demand_miss_rate 0
Core_0_L1I_load_access 17
Core_0_L1I_load_hit 17
Core_0_L1I_load_miss 0
Core_0_L1I_load_MPKI 0
Core_0_L1I_load_miss_rate 0
Core_0_L1I_rfo_access 0
Core_0_L1I_rfo_hit 0
Core_0_L1I_rfo_miss 0
Core_0_L1I_rfo_MPKI 0
Core_0_L1I_rfo_miss_rate 0
Core_0_L1I_prefetch_access 0
Core_0_L1I_prefetch_hit 0
Core_0_L1I_prefetch_miss 0
Core_0_L1I_prefetch_MPKI 0
Core_0_L1I_prefetch_miss_rate 0
Core_0_L1I_writeback_access 0
Core_0_L1I_writeback_hit 0
Core_0_L1I_writeback_miss 0
Core_0_L1I_writeback_MPKI 0
Core_0_L1I_writeback_miss_rate 0
Core_0_L1I_prefetch_requested 0
Core_0_L1I_prefetch_issued 0
Core_0_L1I_prefetch_useful 0
Core_0_L1I_prefetch_useless 0
Core_0_L1I_prefetch_late 0
Core_0_L1I_prefetch_accuracy 0
Core_0_L1I_prefetch_coverage 0

Core_0_L1D_total_access 15135809
Core_0_L1D_total_hit 7820575
Core_0_L1D_total_miss 7315234
Core_0_L1D_total_MPKI 146.305
Core_0_L1D_total_miss_rate 0.483306
Core_0_L1D_demand_access 12840131
Core_0_L1D_demand_hit 5526811
Core_0_L1D_demand_miss 7313320
Core_0_L1D_demand_MPKI 146.266
Core_0_L1D_demand_miss_rate 0.569567
Core_0_L1D_load_access 12840131
Core_0_L1D_load_hit 5526811
Core_0_L1D_load_miss 7313320
Core_0_L1D_load_MPKI 146.266
Core_0_L1D_load_miss_rate 0.569567
Core_0_L1D_rfo_access 0
Core_0_L1D_rfo_hit 0
Core_0_L1D_rfo_miss 0
Core_0_L1D_rfo_MPKI 0
Core_0_L1D_rfo_miss_rate 0
Core_0_L1D_prefetch_access 0
Core_0_L1D_prefetch_hit 0
Core_0_L1D_prefetch_miss 0
Core_0_L1D_prefetch_MPKI 0
Core_0_L1D_prefetch_miss_rate 0
Core_0_L1D_writeback_access 2295678
Core_0_L1D_writeback_hit 2293764
Core_0_L1D_writeback_miss 1914
Core_0_L1D_writeback_MPKI 0.03828
Core_0_L1D_writeback_miss_rate 0.000833741
Core_0_L1D_prefetch_requested 0
Core_0_L1D_prefetch_issued 0
Core_0_L1D_prefetch_useful 0
Core_0_L1D_prefetch_useless 0
Core_0_L1D_prefetch_late 0
Core_0_L1D_prefetch_accuracy 0
Core_0_L1D_prefetch_coverage 0

Core_0_L2C_total_access 4756880
Core_0_L2C_total_hit 317451
Core_0_L2C_total_miss 4439429
Core_0_L2C_total_MPKI 88.7886
Core_0_L2C_total_miss_rate 0.933265
Core_0_L2C_demand_access 4691832
Core_0_L2C_demand_hit 252449
Core_0_L2C_demand_miss 4439383
Core_0_L2C_demand_MPKI 88.7877
Core_0_L2C_demand_miss_rate 0.946194
Core_0_L2C_load_access 4690875
Core_0_L2C_load_hit 251571
Core_0_L2C_load_miss 4439304
Core_0_L2C_load_MPKI 88.7861
Core_0_L2C_load_miss_rate 0.94637
Core_0_L2C_rfo_access 957
Core_0_L2C_rfo_hit 878
Core_0_L2C_rfo_miss 79
Core_0_L2C_rfo_MPKI 0.00158
Core_0_L2C_rfo_miss_rate 0.0825496
Core_0_L2C_prefetch_access 0
Core_0_L2C_prefetch_hit 0
Core_0_L2C_prefetch_miss 0
Core_0_L2C_prefetch_MPKI 0
Core_0_L2C_prefetch_miss_rate 0
Core_0_L2C_writeback_access 65048
Core_0_L2C_writeback_hit 65002
Core_0_L2C_writeback_miss 46
Core_0_L2C_writeback_MPKI 0.00092
Core_0_L2C_writeback_miss_rate 0.00070717
Core_0_L2C_prefetch_requested 0
Core_0_L2C_prefetch_issued 0
Core_0_L2C_prefetch_useful 0
Core_0_L2C_prefetch_useless 0
Core_0_L2C_prefetch_late 0
Core_0_L2C_prefetch_accuracy 0
Core_0_L2C_prefetch_coverage 0

Core_0_LLC_total_access 4502750
Core_0_LLC_total_hit 1331422
Core_0_LLC_total_miss 3171328
Core_0_LLC_total_MPKI 63.4266
Core_0_LLC_total_miss_rate 0.704309
Core_0_LLC_demand_access 4439383
Core_0_LLC_demand_hit 1319364
Core_0_LLC_demand_miss 3120019
Core_0_LLC_demand_MPKI 62.4004
Core_0_LLC_demand_miss_rate 0.702805
Core_0_LLC_load_access 4439304
Core_0_LLC_load_hit 1319285
Core_0_LLC_load_miss 3120019
Core_0_LLC_load_MPKI 62.4004
Core_0_LLC_load_miss_rate 0.702817
Core_0_LLC_rfo_access 79
Core_0_LLC_rfo_hit 79
Core_0_LLC_rfo_miss 0
Core_0_LLC_rfo_MPKI 0
Core_0_LLC_rfo_miss_rate 0
Core_0_LLC_prefetch_access 0
Core_0_LLC_prefetch_hit 0
Core_0_LLC_prefetch_miss 0
Core_0_LLC_prefetch_MPKI 0
Core_0_LLC_prefetch_miss_rate 0
Core_0_LLC_writeback_access 63367
Core_0_LLC_writeback_hit 12058
Core_0_LLC_writeback_miss 51309
Core_0_LLC_writeback_MPKI 1.02618
Core_0_LLC_writeback_miss_rate 0.809712
Core_0_LLC_prefetch_requested 0
Core_0_LLC_prefetch_issued 0
Core_0_LLC_prefetch_useful 0
Core_0_LLC_prefetch_useless 0
Core_0_LLC_prefetch_late 0
Core_0_LLC_prefetch_accuracy 0
Core_0_LLC_prefetch_coverage 0

[DRAM Statistics]
Channel_0_RQ_row_buffer_hit 36657
Channel_0_RQ_row_buffer_miss 3090702
Channel_0_WQ_row_buffer_hit 23008
Channel_0_WQ_row_buffer_miss 40488
Channel_0_WQ_full 0
Channel_0_dbus_congested 7192928
DRAM_total_RQ_row_buffer_hit 36657
DRAM_total_RQ_row_buffer_miss 3090702
DRAM_total_WQ_row_buffer_hit 23008
DRAM_total_WQ_row_buffer_miss 40488
DRAM_total_WQ_full 0
DRAM_total_dbus_congested 7192928
DRAM_avg_congested_cycle 17.561

====== DRAM_RQ_TRAFFIC ========
DRAM_RQ_READ_TRAFFIC_BREAKDOWN:
data_demand_read.count = 3120019
data_demand_read.share = 99.77%

inst_demand_read.count = 0
inst_demand_read.share = 0.00%

cache_inst_prefetch.count = 0
cache_inst_prefetch.share = 0.00%

cache_data_prefetch.count = 0
cache_data_prefetch.share = 0.00%

stlb_data_demand.count = 7341
stlb_data_demand.share = 0.23%

stlb_inst_demand.count = 0
stlb_inst_demand.share = 0.00%

stlb_l1i_pref.count = 0
stlb_l1i_pref.share = 0.00%

stlb_l1d_pref.count = 0
stlb_l1d_pref.share = 0.00%

DRAM_RQ_READ_TRAFFIC_SUMMARY:
cache_demand.count = 3120019
cache_demand.share = 99.77%

cache_prefetch.count = 0
cache_prefetch.share = 0.00%

stlb_demand.count = 7341
stlb_demand.share = 0.23%

stlb_prefetch.count = 0
stlb_prefetch.share = 0.00%

DRAM_RQ_READ_TRAFFIC_DEBUG:
total_classified_read.count = 3127360
unclassified_read.count = 0
total_read_with_other.count = 3127360

classified_plus_unclassified_check.count = 3127360
dram_rq_read_total_observed.count = 3127360
dram_rq_read_total_observed.per_1K_instructions = 62.5472

STLB_MISS_PTW_DRAM_TOUCH_BREAKDOWN:
stlb_miss_total.count = 578074

stlb_miss_touch_dram.count = 7283
stlb_miss_touch_dram.share = 1.26%

stlb_miss_no_dram_touch.count = 570791
stlb_miss_no_dram_touch.share = 98.74%

STLB_MISS_PTW_DRAM_TOUCH_DEBUG:
stlb_miss_touch_plus_no_touch.count = 578074
stlb_miss_total_check.count = 578074

======STLB miss causes ========
Core_0_STLB_miss_cause_breakdown
Core_0_STLB_cause_Demand_Data_miss 578074
Core_0_STLB_cause_Demand_Data_miss_rate 0.167233
Core_0_STLB_cause_Demand_Instruction_miss 0
Core_0_STLB_cause_Demand_Instruction_miss_rate 0
Core_0_STLB_cause_L1D_Prefetch_miss 0
Core_0_STLB_cause_L1D_Prefetch_miss_rate 0
Core_0_STLB_cause_L1I_Prefetch_miss 0
Core_0_STLB_cause_L1I_Prefetch_miss_rate 0
Core_0_STLB_cause_Other_miss 0
Core_0_STLB_cause_Other_miss_rate 0
Core_0_STLB_Demand_miss 578074
Core_0_STLB_Demand_miss_rate 0.167233
Core_0_STLB_L1D_Prefetch_miss 0
Core_0_STLB_L1D_Prefetch_miss_rate 0
Core_0_STLB_Other_miss 0
Core_0_STLB_Other_miss_rate 0
