[VMEM] WARNING: physical memory size is smaller than virtual memory size.

*** ChampSim Multicore Out-of-Order Simulator ***
Warmup Instructions: 20000000
Simulation Instructions: 50000000
Number of CPUs: 1
Page size: 4096
Core 0: /data2/zcq/champsim_traces_gap/bfs.twitter-44B.champsimtrace.xz
Off-chip DRAM Size: 16 GiB Channels: 1 Width: 64-bit Data Rate: 3205 MT/s
Warmup halting CPU 0 at instruction 20000005 cycle 5037474 for remainder of phase
Warmup finished CPU 0 instructions: 20000005 cycles: 5037474 cumulative IPC: 3.97 (Simulation time: 00 hr 01 min 02 sec)
Warmup complete CPU 0 instructions: 20000005 cycles: 5037474 cumulative IPC: 3.97 (Simulation time: 00 hr 01 min 02 sec)
Simulation finished CPU 0 instructions: 50000001 cycles: 220486664 cumulative IPC: 0.2268 (Simulation time: 00 hr 15 min 39 sec)
Simulation complete CPU 0 instructions: 50000001 cycles: 220486664 cumulative IPC: 0.2268 (Simulation time: 00 hr 15 min 39 sec)

ChampSim completed all CPUs

=== Simulation ===
CPU 0 runs /data2/zcq/champsim_traces_gap/bfs.twitter-44B.champsimtrace.xz

Region of Interest Statistics

CPU 0 cumulative IPC: 0.2268 instructions: 50000001 cycles: 220486664
CPU 0 Branch Prediction Accuracy: 91.78% MPKI: 16.81 Average ROB Occupancy at Mispredict: 35.58
Branch type MPKI
BRANCH_DIRECT_JUMP: 0
BRANCH_INDIRECT: 0
BRANCH_CONDITIONAL: 16.81
BRANCH_DIRECT_CALL: 0
BRANCH_INDIRECT_CALL: 0
BRANCH_RETURN: 0

cpu0->cpu0_STLB TOTAL        ACCESS:    3373938 HIT:    3238596 MISS:     135342 MSHR_MERGE:          0
cpu0->cpu0_STLB LOAD         ACCESS:    3373938 HIT:    3238596 MISS:     135342 MSHR_MERGE:          0
cpu0->cpu0_STLB RFO          ACCESS:          0 HIT:          0 MISS:          0 MSHR_MERGE:          0
cpu0->cpu0_STLB PREFETCH     ACCESS:          0 HIT:          0 MISS:          0 MSHR_MERGE:          0
cpu0->cpu0_STLB WRITE        ACCESS:          0 HIT:          0 MISS:          0 MSHR_MERGE:          0
cpu0->cpu0_STLB TRANSLATION  ACCESS:          0 HIT:          0 MISS:          0 MSHR_MERGE:          0
cpu0->cpu0_STLB PREFETCH REQUESTED:          0 ISSUED:          0 USEFUL:          0 USELESS:          0 LATE:          0
cpu0->cpu0_STLB AVERAGE MISS LATENCY: 54.23 cycles
cpu0->cpu0_L2C TOTAL        ACCESS:    3418151 HIT:     921131 MISS:    2497020 MSHR_MERGE:          0
cpu0->cpu0_L2C LOAD         ACCESS:    3257027 HIT:     787631 MISS:    2469396 MSHR_MERGE:          0
cpu0->cpu0_L2C RFO          ACCESS:          0 HIT:          0 MISS:          0 MSHR_MERGE:          0
cpu0->cpu0_L2C PREFETCH     ACCESS:          0 HIT:          0 MISS:          0 MSHR_MERGE:          0
cpu0->cpu0_L2C WRITE        ACCESS:      54747 HIT:      54740 MISS:          7 MSHR_MERGE:          0
cpu0->cpu0_L2C TRANSLATION  ACCESS:     106377 HIT:      78760 MISS:      27617 MSHR_MERGE:          0
cpu0->cpu0_L2C PREFETCH REQUESTED:          0 ISSUED:          0 USEFUL:          0 USELESS:          0 LATE:          0
cpu0->cpu0_L2C AVERAGE MISS LATENCY: 144.3 cycles
cpu0->cpu0_L1I TOTAL        ACCESS:     167596 HIT:     167596 MISS:          0 MSHR_MERGE:          0
cpu0->cpu0_L1I LOAD         ACCESS:     167596 HIT:     167596 MISS:          0 MSHR_MERGE:          0
cpu0->cpu0_L1I RFO          ACCESS:          0 HIT:          0 MISS:          0 MSHR_MERGE:          0
cpu0->cpu0_L1I PREFETCH     ACCESS:          0 HIT:          0 MISS:          0 MSHR_MERGE:          0
cpu0->cpu0_L1I WRITE        ACCESS:          0 HIT:          0 MISS:          0 MSHR_MERGE:          0
cpu0->cpu0_L1I TRANSLATION  ACCESS:          0 HIT:          0 MISS:          0 MSHR_MERGE:          0
cpu0->cpu0_L1I PREFETCH REQUESTED:          0 ISSUED:          0 USEFUL:          0 USELESS:          0 LATE:          0
cpu0->cpu0_L1I AVERAGE MISS LATENCY: - cycles
cpu0->cpu0_L1D TOTAL        ACCESS:   12588126 HIT:    7560239 MISS:    5027887 MSHR_MERGE:    1664484
cpu0->cpu0_L1D LOAD         ACCESS:   11562225 HIT:    6642426 MISS:    4919799 MSHR_MERGE:    1662773
cpu0->cpu0_L1D RFO          ACCESS:          0 HIT:          0 MISS:          0 MSHR_MERGE:          0
cpu0->cpu0_L1D PREFETCH     ACCESS:          0 HIT:          0 MISS:          0 MSHR_MERGE:          0
cpu0->cpu0_L1D WRITE        ACCESS:     757462 HIT:     757462 MISS:          0 MSHR_MERGE:          0
cpu0->cpu0_L1D TRANSLATION  ACCESS:     268439 HIT:     160351 MISS:     108088 MSHR_MERGE:       1711
cpu0->cpu0_L1D PREFETCH REQUESTED:          0 ISSUED:          0 USEFUL:          0 USELESS:          0 LATE:          0
cpu0->cpu0_L1D AVERAGE MISS LATENCY: 115.9 cycles
cpu0->cpu0_ITLB TOTAL        ACCESS:     167594 HIT:     167594 MISS:          0 MSHR_MERGE:          0
cpu0->cpu0_ITLB LOAD         ACCESS:     167594 HIT:     167594 MISS:          0 MSHR_MERGE:          0
cpu0->cpu0_ITLB RFO          ACCESS:          0 HIT:          0 MISS:          0 MSHR_MERGE:          0
cpu0->cpu0_ITLB PREFETCH     ACCESS:          0 HIT:          0 MISS:          0 MSHR_MERGE:          0
cpu0->cpu0_ITLB WRITE        ACCESS:          0 HIT:          0 MISS:          0 MSHR_MERGE:          0
cpu0->cpu0_ITLB TRANSLATION  ACCESS:          0 HIT:          0 MISS:          0 MSHR_MERGE:          0
cpu0->cpu0_ITLB PREFETCH REQUESTED:          0 ISSUED:          0 USEFUL:          0 USELESS:          0 LATE:          0
cpu0->cpu0_ITLB AVERAGE MISS LATENCY: - cycles
cpu0->cpu0_DTLB TOTAL        ACCESS:   12315676 HIT:    8748295 MISS:    3567381 MSHR_MERGE:     193443
cpu0->cpu0_DTLB LOAD         ACCESS:   12315676 HIT:    8748295 MISS:    3567381 MSHR_MERGE:     193443
cpu0->cpu0_DTLB RFO          ACCESS:          0 HIT:          0 MISS:          0 MSHR_MERGE:          0
cpu0->cpu0_DTLB PREFETCH     ACCESS:          0 HIT:          0 MISS:          0 MSHR_MERGE:          0
cpu0->cpu0_DTLB WRITE        ACCESS:          0 HIT:          0 MISS:          0 MSHR_MERGE:          0
cpu0->cpu0_DTLB TRANSLATION  ACCESS:          0 HIT:          0 MISS:          0 MSHR_MERGE:          0
cpu0->cpu0_DTLB PREFETCH REQUESTED:          0 ISSUED:          0 USEFUL:          0 USELESS:          0 LATE:          0
cpu0->cpu0_DTLB AVERAGE MISS LATENCY: 7.33 cycles
cpu0->LLC TOTAL        ACCESS:    2550931 HIT:     932519 MISS:    1618412 MSHR_MERGE:          0
cpu0->LLC LOAD         ACCESS:    2469396 HIT:     896958 MISS:    1572438 MSHR_MERGE:          0
cpu0->LLC RFO          ACCESS:          0 HIT:          0 MISS:          0 MSHR_MERGE:          0
cpu0->LLC PREFETCH     ACCESS:          0 HIT:          0 MISS:          0 MSHR_MERGE:          0
cpu0->LLC WRITE        ACCESS:      53918 HIT:      11197 MISS:      42721 MSHR_MERGE:          0
cpu0->LLC TRANSLATION  ACCESS:      27617 HIT:      24364 MISS:       3253 MSHR_MERGE:          0
cpu0->LLC PREFETCH REQUESTED:          0 ISSUED:          0 USEFUL:          0 USELESS:          0 LATE:          0
cpu0->LLC AVERAGE MISS LATENCY: 198.8 cycles

DRAM Statistics

Channel 0 RQ ROW_BUFFER_HIT:       7393
  ROW_BUFFER_MISS:    1568298
  AVG DBUS CONGESTED CYCLE: 12.45
Channel 0 WQ ROW_BUFFER_HIT:      17022
  ROW_BUFFER_MISS:      37018
  FULL:          0
Channel 0 REFRESHES ISSUED:      18374

[ROI Statistics]
[System Configuration]
num_cpus 1
cpu_freq 4000
fetch_width 6
decode_width 6
dispatch_width 6
execute_width 6
lq_width 2
sq_width 2
retire_width 6
scheduler_size 128
branch_mispredict_penalty 15
rob_size 352
lq_size 128
sq_size 72
ifetch_buffer_size 64
decode_buffer_size 32
dispatch_buffer_size 32
register_file_size 288
decode_latency 1
dispatch_latency 1
schedule_latency 1
execute_latency 1
page_size 4096
block_size 64
core_0_itlb_set 16
core_0_itlb_way 4
core_0_itlb_rq_size 16
core_0_itlb_wq_size 16
core_0_itlb_pq_size 0
core_0_itlb_mshr_size 8
core_0_itlb_hit_latency 1
core_0_itlb_fill_latency 1
core_0_itlb_max_tag_check 2
core_0_itlb_max_fill 2
core_0_dtlb_set 16
core_0_dtlb_way 4
core_0_dtlb_rq_size 16
core_0_dtlb_wq_size 16
core_0_dtlb_pq_size 0
core_0_dtlb_mshr_size 8
core_0_dtlb_hit_latency 1
core_0_dtlb_fill_latency 1
core_0_dtlb_max_tag_check 2
core_0_dtlb_max_fill 2
core_0_stlb_set 128
core_0_stlb_way 12
core_0_stlb_rq_size 32
core_0_stlb_wq_size 32
core_0_stlb_pq_size 0
core_0_stlb_mshr_size 16
core_0_stlb_hit_latency 4
core_0_stlb_fill_latency 4
core_0_stlb_max_tag_check 1
core_0_stlb_max_fill 1
core_0_l1i_set 64
core_0_l1i_way 8
core_0_l1i_rq_size 64
core_0_l1i_wq_size 64
core_0_l1i_pq_size 32
core_0_l1i_mshr_size 8
core_0_l1i_hit_latency 2
core_0_l1i_fill_latency 2
core_0_l1i_max_tag_check 2
core_0_l1i_max_fill 2
core_0_l1d_set 64
core_0_l1d_way 12
core_0_l1d_rq_size 64
core_0_l1d_wq_size 64
core_0_l1d_pq_size 8
core_0_l1d_mshr_size 16
core_0_l1d_hit_latency 2
core_0_l1d_fill_latency 3
core_0_l1d_max_tag_check 2
core_0_l1d_max_fill 2
core_0_l2c_set 1024
core_0_l2c_way 8
core_0_l2c_rq_size 32
core_0_l2c_wq_size 32
core_0_l2c_pq_size 16
core_0_l2c_mshr_size 32
core_0_l2c_hit_latency 5
core_0_l2c_fill_latency 5
core_0_l2c_max_tag_check 1
core_0_l2c_max_fill 1
llc_set 2048
llc_way 16
llc_rq_size 32
llc_wq_size 32
llc_pq_size 32
llc_mshr_size 64
llc_hit_latency 10
llc_fill_latency 10
llc_max_tag_check 1
llc_max_fill 1
dram_channels 1
dram_ranks 1
dram_bankgroups 8
dram_banks 4
dram_rows 65536
dram_columns 1024
dram_channel_width 8
dram_rq_size 64
dram_wq_size 64
dram_size 17179869184
core_0_itlb_prefetcher no
core_0_dtlb_prefetcher no
core_0_stlb_prefetcher no
core_0_l1i_prefetcher no
core_0_l1d_prefetcher no
core_0_l2c_prefetcher no
llc_prefetcher no
llc_replacement drrip

Core_0_instructions 50000001
Core_0_cycles 220486664
Core_0_IPC 0.226771
Core_0_branch_prediction_accuracy 91.782
Core_0_branch_MPKI 16.8052
Core_0_average_ROB_occupancy_at_mispredict 35.5785

Core_0_ITLB_total_access 167594
Core_0_ITLB_total_hit 167594
Core_0_ITLB_total_miss 0
Core_0_ITLB_total_MPKI 0
Core_0_ITLB_total_miss_rate 0
Core_0_ITLB_demand_access 167594
Core_0_ITLB_demand_hit 167594
Core_0_ITLB_demand_miss 0
Core_0_ITLB_demand_MPKI 0
Core_0_ITLB_demand_miss_rate 0
Core_0_ITLB_load_access 167594
Core_0_ITLB_load_hit 167594
Core_0_ITLB_load_miss 0
Core_0_ITLB_load_MPKI 0
Core_0_ITLB_load_miss_rate 0
Core_0_ITLB_rfo_access 0
Core_0_ITLB_rfo_hit 0
Core_0_ITLB_rfo_miss 0
Core_0_ITLB_rfo_MPKI 0
Core_0_ITLB_rfo_miss_rate 0
Core_0_ITLB_prefetch_access 0
Core_0_ITLB_prefetch_hit 0
Core_0_ITLB_prefetch_miss 0
Core_0_ITLB_prefetch_MPKI 0
Core_0_ITLB_prefetch_miss_rate 0
Core_0_ITLB_writeback_access 0
Core_0_ITLB_writeback_hit 0
Core_0_ITLB_writeback_miss 0
Core_0_ITLB_writeback_MPKI 0
Core_0_ITLB_writeback_miss_rate 0
Core_0_ITLB_prefetch_requested 0
Core_0_ITLB_prefetch_issued 0
Core_0_ITLB_prefetch_useful 0
Core_0_ITLB_prefetch_useless 0
Core_0_ITLB_prefetch_late 0
Core_0_ITLB_prefetch_accuracy 0
Core_0_ITLB_prefetch_coverage 0

Core_0_DTLB_total_access 12315676
Core_0_DTLB_total_hit 8748295
Core_0_DTLB_total_miss 3567381
Core_0_DTLB_total_MPKI 71.3476
Core_0_DTLB_total_miss_rate 0.289662
Core_0_DTLB_demand_access 12315676
Core_0_DTLB_demand_hit 8748295
Core_0_DTLB_demand_miss 3567381
Core_0_DTLB_demand_MPKI 71.3476
Core_0_DTLB_demand_miss_rate 0.289662
Core_0_DTLB_load_access 12315676
Core_0_DTLB_load_hit 8748295
Core_0_DTLB_load_miss 3567381
Core_0_DTLB_load_MPKI 71.3476
Core_0_DTLB_load_miss_rate 0.289662
Core_0_DTLB_rfo_access 0
Core_0_DTLB_rfo_hit 0
Core_0_DTLB_rfo_miss 0
Core_0_DTLB_rfo_MPKI 0
Core_0_DTLB_rfo_miss_rate 0
Core_0_DTLB_prefetch_access 0
Core_0_DTLB_prefetch_hit 0
Core_0_DTLB_prefetch_miss 0
Core_0_DTLB_prefetch_MPKI 0
Core_0_DTLB_prefetch_miss_rate 0
Core_0_DTLB_writeback_access 0
Core_0_DTLB_writeback_hit 0
Core_0_DTLB_writeback_miss 0
Core_0_DTLB_writeback_MPKI 0
Core_0_DTLB_writeback_miss_rate 0
Core_0_DTLB_prefetch_requested 0
Core_0_DTLB_prefetch_issued 0
Core_0_DTLB_prefetch_useful 0
Core_0_DTLB_prefetch_useless 0
Core_0_DTLB_prefetch_late 0
Core_0_DTLB_prefetch_accuracy 0
Core_0_DTLB_prefetch_coverage 0

Core_0_STLB_total_access 3373938
Core_0_STLB_total_hit 3238596
Core_0_STLB_total_miss 135342
Core_0_STLB_total_MPKI 2.70684
Core_0_STLB_total_miss_rate 0.040114
Core_0_STLB_demand_access 3373938
Core_0_STLB_demand_hit 3238596
Core_0_STLB_demand_miss 135342
Core_0_STLB_demand_MPKI 2.70684
Core_0_STLB_demand_miss_rate 0.040114
Core_0_STLB_load_access 3373938
Core_0_STLB_load_hit 3238596
Core_0_STLB_load_miss 135342
Core_0_STLB_load_MPKI 2.70684
Core_0_STLB_load_miss_rate 0.040114
Core_0_STLB_rfo_access 0
Core_0_STLB_rfo_hit 0
Core_0_STLB_rfo_miss 0
Core_0_STLB_rfo_MPKI 0
Core_0_STLB_rfo_miss_rate 0
Core_0_STLB_prefetch_access 0
Core_0_STLB_prefetch_hit 0
Core_0_STLB_prefetch_miss 0
Core_0_STLB_prefetch_MPKI 0
Core_0_STLB_prefetch_miss_rate 0
Core_0_STLB_writeback_access 0
Core_0_STLB_writeback_hit 0
Core_0_STLB_writeback_miss 0
Core_0_STLB_writeback_MPKI 0
Core_0_STLB_writeback_miss_rate 0
Core_0_STLB_prefetch_requested 0
Core_0_STLB_prefetch_issued 0
Core_0_STLB_prefetch_useful 0
Core_0_STLB_prefetch_useless 0
Core_0_STLB_prefetch_late 0
Core_0_STLB_prefetch_accuracy 0
Core_0_STLB_prefetch_coverage 0

Core_0_L1I_total_access 167596
Core_0_L1I_total_hit 167596
Core_0_L1I_total_miss 0
Core_0_L1I_total_MPKI 0
Core_0_L1I_total_miss_rate 0
Core_0_L1I_demand_access 167596
Core_0_L1I_demand_hit 167596
Core_0_L1I_demand_miss 0
Core_0_L1I_demand_MPKI 0
Core_0_L1I_demand_miss_rate 0
Core_0_L1I_load_access 167596
Core_0_L1I_load_hit 167596
Core_0_L1I_load_miss 0
Core_0_L1I_load_MPKI 0
Core_0_L1I_load_miss_rate 0
Core_0_L1I_rfo_access 0
Core_0_L1I_rfo_hit 0
Core_0_L1I_rfo_miss 0
Core_0_L1I_rfo_MPKI 0
Core_0_L1I_rfo_miss_rate 0
Core_0_L1I_prefetch_access 0
Core_0_L1I_prefetch_hit 0
Core_0_L1I_prefetch_miss 0
Core_0_L1I_prefetch_MPKI 0
Core_0_L1I_prefetch_miss_rate 0
Core_0_L1I_writeback_access 0
Core_0_L1I_writeback_hit 0
Core_0_L1I_writeback_miss 0
Core_0_L1I_writeback_MPKI 0
Core_0_L1I_writeback_miss_rate 0
Core_0_L1I_prefetch_requested 0
Core_0_L1I_prefetch_issued 0
Core_0_L1I_prefetch_useful 0
Core_0_L1I_prefetch_useless 0
Core_0_L1I_prefetch_late 0
Core_0_L1I_prefetch_accuracy 0
Core_0_L1I_prefetch_coverage 0

Core_0_L1D_total_access 12319687
Core_0_L1D_total_hit 7399888
Core_0_L1D_total_miss 4919799
Core_0_L1D_total_MPKI 98.396
Core_0_L1D_total_miss_rate 0.399344
Core_0_L1D_demand_access 11562225
Core_0_L1D_demand_hit 6642426
Core_0_L1D_demand_miss 4919799
Core_0_L1D_demand_MPKI 98.396
Core_0_L1D_demand_miss_rate 0.425506
Core_0_L1D_load_access 11562225
Core_0_L1D_load_hit 6642426
Core_0_L1D_load_miss 4919799
Core_0_L1D_load_MPKI 98.396
Core_0_L1D_load_miss_rate 0.425506
Core_0_L1D_rfo_access 0
Core_0_L1D_rfo_hit 0
Core_0_L1D_rfo_miss 0
Core_0_L1D_rfo_MPKI 0
Core_0_L1D_rfo_miss_rate 0
Core_0_L1D_prefetch_access 0
Core_0_L1D_prefetch_hit 0
Core_0_L1D_prefetch_miss 0
Core_0_L1D_prefetch_MPKI 0
Core_0_L1D_prefetch_miss_rate 0
Core_0_L1D_writeback_access 757462
Core_0_L1D_writeback_hit 757462
Core_0_L1D_writeback_miss 0
Core_0_L1D_writeback_MPKI 0
Core_0_L1D_writeback_miss_rate 0
Core_0_L1D_prefetch_requested 0
Core_0_L1D_prefetch_issued 0
Core_0_L1D_prefetch_useful 0
Core_0_L1D_prefetch_useless 0
Core_0_L1D_prefetch_late 0
Core_0_L1D_prefetch_accuracy 0
Core_0_L1D_prefetch_coverage 0

Core_0_L2C_total_access 3311774
Core_0_L2C_total_hit 842371
Core_0_L2C_total_miss 2469403
Core_0_L2C_total_MPKI 49.3881
Core_0_L2C_total_miss_rate 0.745644
Core_0_L2C_demand_access 3257027
Core_0_L2C_demand_hit 787631
Core_0_L2C_demand_miss 2469396
Core_0_L2C_demand_MPKI 49.3879
Core_0_L2C_demand_miss_rate 0.758175
Core_0_L2C_load_access 3257027
Core_0_L2C_load_hit 787631
Core_0_L2C_load_miss 2469396
Core_0_L2C_load_MPKI 49.3879
Core_0_L2C_load_miss_rate 0.758175
Core_0_L2C_rfo_access 0
Core_0_L2C_rfo_hit 0
Core_0_L2C_rfo_miss 0
Core_0_L2C_rfo_MPKI 0
Core_0_L2C_rfo_miss_rate 0
Core_0_L2C_prefetch_access 0
Core_0_L2C_prefetch_hit 0
Core_0_L2C_prefetch_miss 0
Core_0_L2C_prefetch_MPKI 0
Core_0_L2C_prefetch_miss_rate 0
Core_0_L2C_writeback_access 54747
Core_0_L2C_writeback_hit 54740
Core_0_L2C_writeback_miss 7
Core_0_L2C_writeback_MPKI 0.00014
Core_0_L2C_writeback_miss_rate 0.000127861
Core_0_L2C_prefetch_requested 0
Core_0_L2C_prefetch_issued 0
Core_0_L2C_prefetch_useful 0
Core_0_L2C_prefetch_useless 0
Core_0_L2C_prefetch_late 0
Core_0_L2C_prefetch_accuracy 0
Core_0_L2C_prefetch_coverage 0

Core_0_LLC_total_access 2523314
Core_0_LLC_total_hit 908155
Core_0_LLC_total_miss 1615159
Core_0_LLC_total_MPKI 32.3032
Core_0_LLC_total_miss_rate 0.640094
Core_0_LLC_demand_access 2469396
Core_0_LLC_demand_hit 896958
Core_0_LLC_demand_miss 1572438
Core_0_LLC_demand_MPKI 31.4488
Core_0_LLC_demand_miss_rate 0.63677
Core_0_LLC_load_access 2469396
Core_0_LLC_load_hit 896958
Core_0_LLC_load_miss 1572438
Core_0_LLC_load_MPKI 31.4488
Core_0_LLC_load_miss_rate 0.63677
Core_0_LLC_rfo_access 0
Core_0_LLC_rfo_hit 0
Core_0_LLC_rfo_miss 0
Core_0_LLC_rfo_MPKI 0
Core_0_LLC_rfo_miss_rate 0
Core_0_LLC_prefetch_access 0
Core_0_LLC_prefetch_hit 0
Core_0_LLC_prefetch_miss 0
Core_0_LLC_prefetch_MPKI 0
Core_0_LLC_prefetch_miss_rate 0
Core_0_LLC_writeback_access 53918
Core_0_LLC_writeback_hit 11197
Core_0_LLC_writeback_miss 42721
Core_0_LLC_writeback_MPKI 0.85442
Core_0_LLC_writeback_miss_rate 0.792333
Core_0_LLC_prefetch_requested 0
Core_0_LLC_prefetch_issued 0
Core_0_LLC_prefetch_useful 0
Core_0_LLC_prefetch_useless 0
Core_0_LLC_prefetch_late 0
Core_0_LLC_prefetch_accuracy 0
Core_0_LLC_prefetch_coverage 0

[DRAM Statistics]
Channel_0_RQ_row_buffer_hit 7393
Channel_0_RQ_row_buffer_miss 1568298
Channel_0_WQ_row_buffer_hit 17022
Channel_0_WQ_row_buffer_miss 37018
Channel_0_WQ_full 0
Channel_0_dbus_congested 2435901
DRAM_total_RQ_row_buffer_hit 7393
DRAM_total_RQ_row_buffer_miss 1568298
DRAM_total_WQ_row_buffer_hit 17022
DRAM_total_WQ_row_buffer_miss 37018
DRAM_total_WQ_full 0
DRAM_total_dbus_congested 2435901
DRAM_avg_congested_cycle 12.4454

====== DRAM_RQ_TRAFFIC ========
DRAM_RQ_READ_TRAFFIC_BREAKDOWN:
data_demand_read.count = 1572438
data_demand_read.share = 99.79%

inst_demand_read.count = 0
inst_demand_read.share = 0.00%

cache_inst_prefetch.count = 0
cache_inst_prefetch.share = 0.00%

cache_data_prefetch.count = 0
cache_data_prefetch.share = 0.00%

stlb_data_demand.count = 3253
stlb_data_demand.share = 0.21%

stlb_inst_demand.count = 0
stlb_inst_demand.share = 0.00%

stlb_l1i_pref.count = 0
stlb_l1i_pref.share = 0.00%

stlb_l1d_pref.count = 0
stlb_l1d_pref.share = 0.00%

DRAM_RQ_READ_TRAFFIC_SUMMARY:
cache_demand.count = 1572438
cache_demand.share = 99.79%

cache_prefetch.count = 0
cache_prefetch.share = 0.00%

stlb_demand.count = 3253
stlb_demand.share = 0.21%

stlb_prefetch.count = 0
stlb_prefetch.share = 0.00%

DRAM_RQ_READ_TRAFFIC_DEBUG:
total_classified_read.count = 1575691
unclassified_read.count = 0
total_read_with_other.count = 1575691

classified_plus_unclassified_check.count = 1575691
dram_rq_read_total_observed.count = 1575691
dram_rq_read_total_observed.per_1K_instructions = 31.5138

STLB_MISS_PTW_DRAM_TOUCH_BREAKDOWN:
stlb_miss_total.count = 135342

stlb_miss_touch_dram.count = 3227
stlb_miss_touch_dram.share = 2.38%

stlb_miss_no_dram_touch.count = 132115
stlb_miss_no_dram_touch.share = 97.62%

STLB_MISS_PTW_DRAM_TOUCH_DEBUG:
stlb_miss_touch_plus_no_touch.count = 135342
stlb_miss_total_check.count = 135342

======STLB miss causes ========
Core_0_STLB_miss_cause_breakdown
Core_0_STLB_cause_Demand_Data_miss 135342
Core_0_STLB_cause_Demand_Data_miss_rate 0.040114
Core_0_STLB_cause_Demand_Instruction_miss 0
Core_0_STLB_cause_Demand_Instruction_miss_rate 0
Core_0_STLB_cause_L1D_Prefetch_miss 0
Core_0_STLB_cause_L1D_Prefetch_miss_rate 0
Core_0_STLB_cause_L1I_Prefetch_miss 0
Core_0_STLB_cause_L1I_Prefetch_miss_rate 0
Core_0_STLB_cause_Other_miss 0
Core_0_STLB_cause_Other_miss_rate 0
Core_0_STLB_Demand_miss 135342
Core_0_STLB_Demand_miss_rate 0.040114
Core_0_STLB_L1D_Prefetch_miss 0
Core_0_STLB_L1D_Prefetch_miss_rate 0
Core_0_STLB_Other_miss 0
Core_0_STLB_Other_miss_rate 0
