[VMEM] WARNING: physical memory size is smaller than virtual memory size.

*** ChampSim Multicore Out-of-Order Simulator ***
Warmup Instructions: 20000000
Simulation Instructions: 50000000
Number of CPUs: 1
Page size: 4096
Core 0: /data2/zcq/champsim_traces_gap/bfs.web-1825B.champsimtrace.xz
Off-chip DRAM Size: 16 GiB Channels: 1 Width: 64-bit Data Rate: 3205 MT/s
Warmup halting CPU 0 at instruction 20000000 cycle 4604365 for remainder of phase
Warmup finished CPU 0 instructions: 20000000 cycles: 4604365 cumulative IPC: 4.344 (Simulation time: 00 hr 00 min 49 sec)
Warmup complete CPU 0 instructions: 20000000 cycles: 4604365 cumulative IPC: 4.344 (Simulation time: 00 hr 00 min 49 sec)
Simulation finished CPU 0 instructions: 50000004 cycles: 81510812 cumulative IPC: 0.6134 (Simulation time: 00 hr 08 min 08 sec)
Simulation complete CPU 0 instructions: 50000004 cycles: 81510812 cumulative IPC: 0.6134 (Simulation time: 00 hr 08 min 08 sec)

ChampSim completed all CPUs

=== Simulation ===
CPU 0 runs /data2/zcq/champsim_traces_gap/bfs.web-1825B.champsimtrace.xz

Region of Interest Statistics

CPU 0 cumulative IPC: 0.6134 instructions: 50000004 cycles: 81510812
CPU 0 Branch Prediction Accuracy: 96.8% MPKI: 6.69 Average ROB Occupancy at Mispredict: 47.73
Branch type MPKI
BRANCH_DIRECT_JUMP: 0
BRANCH_INDIRECT: 0
BRANCH_CONDITIONAL: 6.69
BRANCH_DIRECT_CALL: 0
BRANCH_INDIRECT_CALL: 0
BRANCH_RETURN: 0

cpu0->cpu0_STLB TOTAL        ACCESS:      16667 HIT:       5642 MISS:      11025 MSHR_MERGE:          0
cpu0->cpu0_STLB LOAD         ACCESS:      16667 HIT:       5642 MISS:      11025 MSHR_MERGE:          0
cpu0->cpu0_STLB RFO          ACCESS:          0 HIT:          0 MISS:          0 MSHR_MERGE:          0
cpu0->cpu0_STLB PREFETCH     ACCESS:          0 HIT:          0 MISS:          0 MSHR_MERGE:          0
cpu0->cpu0_STLB WRITE        ACCESS:          0 HIT:          0 MISS:          0 MSHR_MERGE:          0
cpu0->cpu0_STLB TRANSLATION  ACCESS:          0 HIT:          0 MISS:          0 MSHR_MERGE:          0
cpu0->cpu0_STLB PREFETCH REQUESTED:          0 ISSUED:          0 USEFUL:          0 USELESS:          0 LATE:          0
cpu0->cpu0_STLB AVERAGE MISS LATENCY: 248.3 cycles
cpu0->cpu0_L2C TOTAL        ACCESS:     519767 HIT:      47751 MISS:     472016 MSHR_MERGE:          0
cpu0->cpu0_L2C LOAD         ACCESS:     492689 HIT:      23290 MISS:     469399 MSHR_MERGE:          0
cpu0->cpu0_L2C RFO          ACCESS:         23 HIT:         23 MISS:          0 MSHR_MERGE:          0
cpu0->cpu0_L2C PREFETCH     ACCESS:          0 HIT:          0 MISS:          0 MSHR_MERGE:          0
cpu0->cpu0_L2C WRITE        ACCESS:      24100 HIT:      24077 MISS:         23 MSHR_MERGE:          0
cpu0->cpu0_L2C TRANSLATION  ACCESS:       2955 HIT:        361 MISS:       2594 MSHR_MERGE:          0
cpu0->cpu0_L2C PREFETCH REQUESTED:          0 ISSUED:          0 USEFUL:          0 USELESS:          0 LATE:          0
cpu0->cpu0_L2C AVERAGE MISS LATENCY: 190.9 cycles
cpu0->cpu0_L1I TOTAL        ACCESS:    3194008 HIT:    3194008 MISS:          0 MSHR_MERGE:          0
cpu0->cpu0_L1I LOAD         ACCESS:    3194008 HIT:    3194008 MISS:          0 MSHR_MERGE:          0
cpu0->cpu0_L1I RFO          ACCESS:          0 HIT:          0 MISS:          0 MSHR_MERGE:          0
cpu0->cpu0_L1I PREFETCH     ACCESS:          0 HIT:          0 MISS:          0 MSHR_MERGE:          0
cpu0->cpu0_L1I WRITE        ACCESS:          0 HIT:          0 MISS:          0 MSHR_MERGE:          0
cpu0->cpu0_L1I TRANSLATION  ACCESS:          0 HIT:          0 MISS:          0 MSHR_MERGE:          0
cpu0->cpu0_L1I PREFETCH REQUESTED:          0 ISSUED:          0 USEFUL:          0 USELESS:          0 LATE:          0
cpu0->cpu0_L1I AVERAGE MISS LATENCY: - cycles
cpu0->cpu0_L1D TOTAL        ACCESS:    9588238 HIT:    6322539 MISS:    3265699 MSHR_MERGE:    2770032
cpu0->cpu0_L1D LOAD         ACCESS:    9081385 HIT:    5818675 MISS:    3262710 MSHR_MERGE:    2770021
cpu0->cpu0_L1D RFO          ACCESS:          0 HIT:          0 MISS:          0 MSHR_MERGE:          0
cpu0->cpu0_L1D PREFETCH     ACCESS:          0 HIT:          0 MISS:          0 MSHR_MERGE:          0
cpu0->cpu0_L1D WRITE        ACCESS:     484749 HIT:     484726 MISS:         23 MSHR_MERGE:          0
cpu0->cpu0_L1D TRANSLATION  ACCESS:      22104 HIT:      19138 MISS:       2966 MSHR_MERGE:         11
cpu0->cpu0_L1D PREFETCH REQUESTED:          0 ISSUED:          0 USEFUL:          0 USELESS:          0 LATE:          0
cpu0->cpu0_L1D AVERAGE MISS LATENCY: 190.8 cycles
cpu0->cpu0_ITLB TOTAL        ACCESS:    3074054 HIT:    3074054 MISS:          0 MSHR_MERGE:          0
cpu0->cpu0_ITLB LOAD         ACCESS:    3074054 HIT:    3074054 MISS:          0 MSHR_MERGE:          0
cpu0->cpu0_ITLB RFO          ACCESS:          0 HIT:          0 MISS:          0 MSHR_MERGE:          0
cpu0->cpu0_ITLB PREFETCH     ACCESS:          0 HIT:          0 MISS:          0 MSHR_MERGE:          0
cpu0->cpu0_ITLB WRITE        ACCESS:          0 HIT:          0 MISS:          0 MSHR_MERGE:          0
cpu0->cpu0_ITLB TRANSLATION  ACCESS:          0 HIT:          0 MISS:          0 MSHR_MERGE:          0
cpu0->cpu0_ITLB PREFETCH REQUESTED:          0 ISSUED:          0 USEFUL:          0 USELESS:          0 LATE:          0
cpu0->cpu0_ITLB AVERAGE MISS LATENCY: - cycles
cpu0->cpu0_DTLB TOTAL        ACCESS:    9534627 HIT:    9466799 MISS:      67828 MSHR_MERGE:      51161
cpu0->cpu0_DTLB LOAD         ACCESS:    9534627 HIT:    9466799 MISS:      67828 MSHR_MERGE:      51161
cpu0->cpu0_DTLB RFO          ACCESS:          0 HIT:          0 MISS:          0 MSHR_MERGE:          0
cpu0->cpu0_DTLB PREFETCH     ACCESS:          0 HIT:          0 MISS:          0 MSHR_MERGE:          0
cpu0->cpu0_DTLB WRITE        ACCESS:          0 HIT:          0 MISS:          0 MSHR_MERGE:          0
cpu0->cpu0_DTLB TRANSLATION  ACCESS:          0 HIT:          0 MISS:          0 MSHR_MERGE:          0
cpu0->cpu0_DTLB PREFETCH REQUESTED:          0 ISSUED:          0 USEFUL:          0 USELESS:          0 LATE:          0
cpu0->cpu0_DTLB AVERAGE MISS LATENCY: 169.9 cycles
cpu0->LLC TOTAL        ACCESS:     496611 HIT:      28627 MISS:     467984 MSHR_MERGE:          0
cpu0->LLC LOAD         ACCESS:     469399 HIT:       6704 MISS:     462695 MSHR_MERGE:          0
cpu0->LLC RFO          ACCESS:          0 HIT:          0 MISS:          0 MSHR_MERGE:          0
cpu0->LLC PREFETCH     ACCESS:          0 HIT:          0 MISS:          0 MSHR_MERGE:          0
cpu0->LLC WRITE        ACCESS:      24618 HIT:      21648 MISS:       2970 MSHR_MERGE:          0
cpu0->LLC TRANSLATION  ACCESS:       2594 HIT:        275 MISS:       2319 MSHR_MERGE:          0
cpu0->LLC PREFETCH REQUESTED:          0 ISSUED:          0 USEFUL:          0 USELESS:          0 LATE:          0
cpu0->LLC AVERAGE MISS LATENCY: 176.5 cycles

DRAM Statistics

Channel 0 RQ ROW_BUFFER_HIT:      47195
  ROW_BUFFER_MISS:     417819
  AVG DBUS CONGESTED CYCLE: 21.96
Channel 0 WQ ROW_BUFFER_HIT:       7989
  ROW_BUFFER_MISS:      17507
  FULL:          0
Channel 0 REFRESHES ISSUED:       6793

[ROI Statistics]
[System Configuration]
num_cpus 1
cpu_freq 4000
fetch_width 6
decode_width 6
dispatch_width 6
execute_width 6
lq_width 2
sq_width 2
retire_width 6
scheduler_size 128
branch_mispredict_penalty 15
rob_size 352
lq_size 128
sq_size 72
ifetch_buffer_size 64
decode_buffer_size 32
dispatch_buffer_size 32
register_file_size 288
decode_latency 1
dispatch_latency 1
schedule_latency 1
execute_latency 1
page_size 4096
block_size 64
core_0_itlb_set 16
core_0_itlb_way 4
core_0_itlb_rq_size 16
core_0_itlb_wq_size 16
core_0_itlb_pq_size 0
core_0_itlb_mshr_size 8
core_0_itlb_hit_latency 1
core_0_itlb_fill_latency 1
core_0_itlb_max_tag_check 2
core_0_itlb_max_fill 2
core_0_dtlb_set 16
core_0_dtlb_way 4
core_0_dtlb_rq_size 16
core_0_dtlb_wq_size 16
core_0_dtlb_pq_size 0
core_0_dtlb_mshr_size 8
core_0_dtlb_hit_latency 1
core_0_dtlb_fill_latency 1
core_0_dtlb_max_tag_check 2
core_0_dtlb_max_fill 2
core_0_stlb_set 128
core_0_stlb_way 12
core_0_stlb_rq_size 32
core_0_stlb_wq_size 32
core_0_stlb_pq_size 0
core_0_stlb_mshr_size 16
core_0_stlb_hit_latency 4
core_0_stlb_fill_latency 4
core_0_stlb_max_tag_check 1
core_0_stlb_max_fill 1
core_0_l1i_set 64
core_0_l1i_way 8
core_0_l1i_rq_size 64
core_0_l1i_wq_size 64
core_0_l1i_pq_size 32
core_0_l1i_mshr_size 8
core_0_l1i_hit_latency 2
core_0_l1i_fill_latency 2
core_0_l1i_max_tag_check 2
core_0_l1i_max_fill 2
core_0_l1d_set 64
core_0_l1d_way 12
core_0_l1d_rq_size 64
core_0_l1d_wq_size 64
core_0_l1d_pq_size 8
core_0_l1d_mshr_size 16
core_0_l1d_hit_latency 2
core_0_l1d_fill_latency 3
core_0_l1d_max_tag_check 2
core_0_l1d_max_fill 2
core_0_l2c_set 1024
core_0_l2c_way 8
core_0_l2c_rq_size 32
core_0_l2c_wq_size 32
core_0_l2c_pq_size 16
core_0_l2c_mshr_size 32
core_0_l2c_hit_latency 5
core_0_l2c_fill_latency 5
core_0_l2c_max_tag_check 1
core_0_l2c_max_fill 1
llc_set 2048
llc_way 16
llc_rq_size 32
llc_wq_size 32
llc_pq_size 32
llc_mshr_size 64
llc_hit_latency 10
llc_fill_latency 10
llc_max_tag_check 1
llc_max_fill 1
dram_channels 1
dram_ranks 1
dram_bankgroups 8
dram_banks 4
dram_rows 65536
dram_columns 1024
dram_channel_width 8
dram_rq_size 64
dram_wq_size 64
dram_size 17179869184
core_0_itlb_prefetcher no
core_0_dtlb_prefetcher no
core_0_stlb_prefetcher no
core_0_l1i_prefetcher no
core_0_l1d_prefetcher no
core_0_l2c_prefetcher no
llc_prefetcher no
llc_replacement drrip

Core_0_instructions 50000004
Core_0_cycles 81510812
Core_0_IPC 0.613416
Core_0_branch_prediction_accuracy 96.8034
Core_0_branch_MPKI 6.68972
Core_0_average_ROB_occupancy_at_mispredict 47.7336

Core_0_ITLB_total_access 3074054
Core_0_ITLB_total_hit 3074054
Core_0_ITLB_total_miss 0
Core_0_ITLB_total_MPKI 0
Core_0_ITLB_total_miss_rate 0
Core_0_ITLB_demand_access 3074054
Core_0_ITLB_demand_hit 3074054
Core_0_ITLB_demand_miss 0
Core_0_ITLB_demand_MPKI 0
Core_0_ITLB_demand_miss_rate 0
Core_0_ITLB_load_access 3074054
Core_0_ITLB_load_hit 3074054
Core_0_ITLB_load_miss 0
Core_0_ITLB_load_MPKI 0
Core_0_ITLB_load_miss_rate 0
Core_0_ITLB_rfo_access 0
Core_0_ITLB_rfo_hit 0
Core_0_ITLB_rfo_miss 0
Core_0_ITLB_rfo_MPKI 0
Core_0_ITLB_rfo_miss_rate 0
Core_0_ITLB_prefetch_access 0
Core_0_ITLB_prefetch_hit 0
Core_0_ITLB_prefetch_miss 0
Core_0_ITLB_prefetch_MPKI 0
Core_0_ITLB_prefetch_miss_rate 0
Core_0_ITLB_writeback_access 0
Core_0_ITLB_writeback_hit 0
Core_0_ITLB_writeback_miss 0
Core_0_ITLB_writeback_MPKI 0
Core_0_ITLB_writeback_miss_rate 0
Core_0_ITLB_prefetch_requested 0
Core_0_ITLB_prefetch_issued 0
Core_0_ITLB_prefetch_useful 0
Core_0_ITLB_prefetch_useless 0
Core_0_ITLB_prefetch_late 0
Core_0_ITLB_prefetch_accuracy 0
Core_0_ITLB_prefetch_coverage 0

Core_0_DTLB_total_access 9534627
Core_0_DTLB_total_hit 9466799
Core_0_DTLB_total_miss 67828
Core_0_DTLB_total_MPKI 1.35656
Core_0_DTLB_total_miss_rate 0.00711386
Core_0_DTLB_demand_access 9534627
Core_0_DTLB_demand_hit 9466799
Core_0_DTLB_demand_miss 67828
Core_0_DTLB_demand_MPKI 1.35656
Core_0_DTLB_demand_miss_rate 0.00711386
Core_0_DTLB_load_access 9534627
Core_0_DTLB_load_hit 9466799
Core_0_DTLB_load_miss 67828
Core_0_DTLB_load_MPKI 1.35656
Core_0_DTLB_load_miss_rate 0.00711386
Core_0_DTLB_rfo_access 0
Core_0_DTLB_rfo_hit 0
Core_0_DTLB_rfo_miss 0
Core_0_DTLB_rfo_MPKI 0
Core_0_DTLB_rfo_miss_rate 0
Core_0_DTLB_prefetch_access 0
Core_0_DTLB_prefetch_hit 0
Core_0_DTLB_prefetch_miss 0
Core_0_DTLB_prefetch_MPKI 0
Core_0_DTLB_prefetch_miss_rate 0
Core_0_DTLB_writeback_access 0
Core_0_DTLB_writeback_hit 0
Core_0_DTLB_writeback_miss 0
Core_0_DTLB_writeback_MPKI 0
Core_0_DTLB_writeback_miss_rate 0
Core_0_DTLB_prefetch_requested 0
Core_0_DTLB_prefetch_issued 0
Core_0_DTLB_prefetch_useful 0
Core_0_DTLB_prefetch_useless 0
Core_0_DTLB_prefetch_late 0
Core_0_DTLB_prefetch_accuracy 0
Core_0_DTLB_prefetch_coverage 0

Core_0_STLB_total_access 16667
Core_0_STLB_total_hit 5642
Core_0_STLB_total_miss 11025
Core_0_STLB_total_MPKI 0.2205
Core_0_STLB_total_miss_rate 0.661487
Core_0_STLB_demand_access 16667
Core_0_STLB_demand_hit 5642
Core_0_STLB_demand_miss 11025
Core_0_STLB_demand_MPKI 0.2205
Core_0_STLB_demand_miss_rate 0.661487
Core_0_STLB_load_access 16667
Core_0_STLB_load_hit 5642
Core_0_STLB_load_miss 11025
Core_0_STLB_load_MPKI 0.2205
Core_0_STLB_load_miss_rate 0.661487
Core_0_STLB_rfo_access 0
Core_0_STLB_rfo_hit 0
Core_0_STLB_rfo_miss 0
Core_0_STLB_rfo_MPKI 0
Core_0_STLB_rfo_miss_rate 0
Core_0_STLB_prefetch_access 0
Core_0_STLB_prefetch_hit 0
Core_0_STLB_prefetch_miss 0
Core_0_STLB_prefetch_MPKI 0
Core_0_STLB_prefetch_miss_rate 0
Core_0_STLB_writeback_access 0
Core_0_STLB_writeback_hit 0
Core_0_STLB_writeback_miss 0
Core_0_STLB_writeback_MPKI 0
Core_0_STLB_writeback_miss_rate 0
Core_0_STLB_prefetch_requested 0
Core_0_STLB_prefetch_issued 0
Core_0_STLB_prefetch_useful 0
Core_0_STLB_prefetch_useless 0
Core_0_STLB_prefetch_late 0
Core_0_STLB_prefetch_accuracy 0
Core_0_STLB_prefetch_coverage 0

Core_0_L1I_total_access 3194008
Core_0_L1I_total_hit 3194008
Core_0_L1I_total_miss 0
Core_0_L1I_total_MPKI 0
Core_0_L1I_total_miss_rate 0
Core_0_L1I_demand_access 3194008
Core_0_L1I_demand_hit 3194008
Core_0_L1I_demand_miss 0
Core_0_L1I_demand_MPKI 0
Core_0_L1I_demand_miss_rate 0
Core_0_L1I_load_access 3194008
Core_0_L1I_load_hit 3194008
Core_0_L1I_load_miss 0
Core_0_L1I_load_MPKI 0
Core_0_L1I_load_miss_rate 0
Core_0_L1I_rfo_access 0
Core_0_L1I_rfo_hit 0
Core_0_L1I_rfo_miss 0
Core_0_L1I_rfo_MPKI 0
Core_0_L1I_rfo_miss_rate 0
Core_0_L1I_prefetch_access 0
Core_0_L1I_prefetch_hit 0
Core_0_L1I_prefetch_miss 0
Core_0_L1I_prefetch_MPKI 0
Core_0_L1I_prefetch_miss_rate 0
Core_0_L1I_writeback_access 0
Core_0_L1I_writeback_hit 0
Core_0_L1I_writeback_miss 0
Core_0_L1I_writeback_MPKI 0
Core_0_L1I_writeback_miss_rate 0
Core_0_L1I_prefetch_requested 0
Core_0_L1I_prefetch_issued 0
Core_0_L1I_prefetch_useful 0
Core_0_L1I_prefetch_useless 0
Core_0_L1I_prefetch_late 0
Core_0_L1I_prefetch_accuracy 0
Core_0_L1I_prefetch_coverage 0

Core_0_L1D_total_access 9566134
Core_0_L1D_total_hit 6303401
Core_0_L1D_total_miss 3262733
Core_0_L1D_total_MPKI 65.2547
Core_0_L1D_total_miss_rate 0.341071
Core_0_L1D_demand_access 9081385
Core_0_L1D_demand_hit 5818675
Core_0_L1D_demand_miss 3262710
Core_0_L1D_demand_MPKI 65.2542
Core_0_L1D_demand_miss_rate 0.359274
Core_0_L1D_load_access 9081385
Core_0_L1D_load_hit 5818675
Core_0_L1D_load_miss 3262710
Core_0_L1D_load_MPKI 65.2542
Core_0_L1D_load_miss_rate 0.359274
Core_0_L1D_rfo_access 0
Core_0_L1D_rfo_hit 0
Core_0_L1D_rfo_miss 0
Core_0_L1D_rfo_MPKI 0
Core_0_L1D_rfo_miss_rate 0
Core_0_L1D_prefetch_access 0
Core_0_L1D_prefetch_hit 0
Core_0_L1D_prefetch_miss 0
Core_0_L1D_prefetch_MPKI 0
Core_0_L1D_prefetch_miss_rate 0
Core_0_L1D_writeback_access 484749
Core_0_L1D_writeback_hit 484726
Core_0_L1D_writeback_miss 23
Core_0_L1D_writeback_MPKI 0.00046
Core_0_L1D_writeback_miss_rate 4.74472e-05
Core_0_L1D_prefetch_requested 0
Core_0_L1D_prefetch_issued 0
Core_0_L1D_prefetch_useful 0
Core_0_L1D_prefetch_useless 0
Core_0_L1D_prefetch_late 0
Core_0_L1D_prefetch_accuracy 0
Core_0_L1D_prefetch_coverage 0

Core_0_L2C_total_access 516812
Core_0_L2C_total_hit 47390
Core_0_L2C_total_miss 469422
Core_0_L2C_total_MPKI 9.38844
Core_0_L2C_total_miss_rate 0.908303
Core_0_L2C_demand_access 492712
Core_0_L2C_demand_hit 23313
Core_0_L2C_demand_miss 469399
Core_0_L2C_demand_MPKI 9.38798
Core_0_L2C_demand_miss_rate 0.952684
Core_0_L2C_load_access 492689
Core_0_L2C_load_hit 23290
Core_0_L2C_load_miss 469399
Core_0_L2C_load_MPKI 9.38798
Core_0_L2C_load_miss_rate 0.952729
Core_0_L2C_rfo_access 23
Core_0_L2C_rfo_hit 23
Core_0_L2C_rfo_miss 0
Core_0_L2C_rfo_MPKI 0
Core_0_L2C_rfo_miss_rate 0
Core_0_L2C_prefetch_access 0
Core_0_L2C_prefetch_hit 0
Core_0_L2C_prefetch_miss 0
Core_0_L2C_prefetch_MPKI 0
Core_0_L2C_prefetch_miss_rate 0
Core_0_L2C_writeback_access 24100
Core_0_L2C_writeback_hit 24077
Core_0_L2C_writeback_miss 23
Core_0_L2C_writeback_MPKI 0.00046
Core_0_L2C_writeback_miss_rate 0.000954357
Core_0_L2C_prefetch_requested 0
Core_0_L2C_prefetch_issued 0
Core_0_L2C_prefetch_useful 0
Core_0_L2C_prefetch_useless 0
Core_0_L2C_prefetch_late 0
Core_0_L2C_prefetch_accuracy 0
Core_0_L2C_prefetch_coverage 0

Core_0_LLC_total_access 494017
Core_0_LLC_total_hit 28352
Core_0_LLC_total_miss 465665
Core_0_LLC_total_MPKI 9.3133
Core_0_LLC_total_miss_rate 0.942609
Core_0_LLC_demand_access 469399
Core_0_LLC_demand_hit 6704
Core_0_LLC_demand_miss 462695
Core_0_LLC_demand_MPKI 9.2539
Core_0_LLC_demand_miss_rate 0.985718
Core_0_LLC_load_access 469399
Core_0_LLC_load_hit 6704
Core_0_LLC_load_miss 462695
Core_0_LLC_load_MPKI 9.2539
Core_0_LLC_load_miss_rate 0.985718
Core_0_LLC_rfo_access 0
Core_0_LLC_rfo_hit 0
Core_0_LLC_rfo_miss 0
Core_0_LLC_rfo_MPKI 0
Core_0_LLC_rfo_miss_rate 0
Core_0_LLC_prefetch_access 0
Core_0_LLC_prefetch_hit 0
Core_0_LLC_prefetch_miss 0
Core_0_LLC_prefetch_MPKI 0
Core_0_LLC_prefetch_miss_rate 0
Core_0_LLC_writeback_access 24618
Core_0_LLC_writeback_hit 21648
Core_0_LLC_writeback_miss 2970
Core_0_LLC_writeback_MPKI 0.0594
Core_0_LLC_writeback_miss_rate 0.120643
Core_0_LLC_prefetch_requested 0
Core_0_LLC_prefetch_issued 0
Core_0_LLC_prefetch_useful 0
Core_0_LLC_prefetch_useless 0
Core_0_LLC_prefetch_late 0
Core_0_LLC_prefetch_accuracy 0
Core_0_LLC_prefetch_coverage 0

[DRAM Statistics]
Channel_0_RQ_row_buffer_hit 47195
Channel_0_RQ_row_buffer_miss 417819
Channel_0_WQ_row_buffer_hit 7989
Channel_0_WQ_row_buffer_miss 17507
Channel_0_WQ_full 0
Channel_0_dbus_congested 995970
DRAM_total_RQ_row_buffer_hit 47195
DRAM_total_RQ_row_buffer_miss 417819
DRAM_total_WQ_row_buffer_hit 7989
DRAM_total_WQ_row_buffer_miss 17507
DRAM_total_WQ_full 0
DRAM_total_dbus_congested 995970
DRAM_avg_congested_cycle 21.9563

====== DRAM_RQ_TRAFFIC ========
DRAM_RQ_READ_TRAFFIC_BREAKDOWN:
data_demand_read.count = 462695
data_demand_read.share = 99.50%

inst_demand_read.count = 0
inst_demand_read.share = 0.00%

cache_inst_prefetch.count = 0
cache_inst_prefetch.share = 0.00%

cache_data_prefetch.count = 0
cache_data_prefetch.share = 0.00%

stlb_data_demand.count = 2319
stlb_data_demand.share = 0.50%

stlb_inst_demand.count = 0
stlb_inst_demand.share = 0.00%

stlb_l1i_pref.count = 0
stlb_l1i_pref.share = 0.00%

stlb_l1d_pref.count = 0
stlb_l1d_pref.share = 0.00%

DRAM_RQ_READ_TRAFFIC_SUMMARY:
cache_demand.count = 462695
cache_demand.share = 99.50%

cache_prefetch.count = 0
cache_prefetch.share = 0.00%

stlb_demand.count = 2319
stlb_demand.share = 0.50%

stlb_prefetch.count = 0
stlb_prefetch.share = 0.00%

DRAM_RQ_READ_TRAFFIC_DEBUG:
total_classified_read.count = 465014
unclassified_read.count = 0
total_read_with_other.count = 465014

classified_plus_unclassified_check.count = 465014
dram_rq_read_total_observed.count = 465014
dram_rq_read_total_observed.per_1K_instructions = 9.30028

STLB_MISS_PTW_DRAM_TOUCH_BREAKDOWN:
stlb_miss_total.count = 11025

stlb_miss_touch_dram.count = 2292
stlb_miss_touch_dram.share = 20.79%

stlb_miss_no_dram_touch.count = 8733
stlb_miss_no_dram_touch.share = 79.21%

STLB_MISS_PTW_DRAM_TOUCH_DEBUG:
stlb_miss_touch_plus_no_touch.count = 11025
stlb_miss_total_check.count = 11025

======STLB miss causes ========
Core_0_STLB_miss_cause_breakdown
Core_0_STLB_cause_Demand_Data_miss 11025
Core_0_STLB_cause_Demand_Data_miss_rate 0.661487
Core_0_STLB_cause_Demand_Instruction_miss 0
Core_0_STLB_cause_Demand_Instruction_miss_rate 0
Core_0_STLB_cause_L1D_Prefetch_miss 0
Core_0_STLB_cause_L1D_Prefetch_miss_rate 0
Core_0_STLB_cause_L1I_Prefetch_miss 0
Core_0_STLB_cause_L1I_Prefetch_miss_rate 0
Core_0_STLB_cause_Other_miss 0
Core_0_STLB_cause_Other_miss_rate 0
Core_0_STLB_Demand_miss 11025
Core_0_STLB_Demand_miss_rate 0.661487
Core_0_STLB_L1D_Prefetch_miss 0
Core_0_STLB_L1D_Prefetch_miss_rate 0
Core_0_STLB_Other_miss 0
Core_0_STLB_Other_miss_rate 0
