[VMEM] WARNING: physical memory size is smaller than virtual memory size.

*** ChampSim Multicore Out-of-Order Simulator ***
Warmup Instructions: 20000000
Simulation Instructions: 50000000
Number of CPUs: 1
Page size: 4096
Core 0: /data2/zcq/champsim_traces_gap/bfs.kron-469B.champsimtrace.xz
Off-chip DRAM Size: 16 GiB Channels: 1 Width: 64-bit Data Rate: 3205 MT/s
Warmup halting CPU 0 at instruction 20000003 cycle 4536814 for remainder of phase
Warmup finished CPU 0 instructions: 20000003 cycles: 4536814 cumulative IPC: 4.408 (Simulation time: 00 hr 00 min 54 sec)
Warmup complete CPU 0 instructions: 20000003 cycles: 4536814 cumulative IPC: 4.408 (Simulation time: 00 hr 00 min 54 sec)
Simulation finished CPU 0 instructions: 50000000 cycles: 200626984 cumulative IPC: 0.2492 (Simulation time: 00 hr 13 min 17 sec)
Simulation complete CPU 0 instructions: 50000000 cycles: 200626984 cumulative IPC: 0.2492 (Simulation time: 00 hr 13 min 17 sec)

ChampSim completed all CPUs

=== Simulation ===
CPU 0 runs /data2/zcq/champsim_traces_gap/bfs.kron-469B.champsimtrace.xz

Region of Interest Statistics

CPU 0 cumulative IPC: 0.2492 instructions: 50000000 cycles: 200626984
CPU 0 Branch Prediction Accuracy: 76.5% MPKI: 45.14 Average ROB Occupancy at Mispredict: 6.512
Branch type MPKI
BRANCH_DIRECT_JUMP: 0
BRANCH_INDIRECT: 0
BRANCH_CONDITIONAL: 45.14
BRANCH_DIRECT_CALL: 0
BRANCH_INDIRECT_CALL: 0
BRANCH_RETURN: 0

cpu0->cpu0_STLB TOTAL        ACCESS:      14073 HIT:          0 MISS:      14073 MSHR_MERGE:          0
cpu0->cpu0_STLB LOAD         ACCESS:      14073 HIT:          0 MISS:      14073 MSHR_MERGE:          0
cpu0->cpu0_STLB RFO          ACCESS:          0 HIT:          0 MISS:          0 MSHR_MERGE:          0
cpu0->cpu0_STLB PREFETCH     ACCESS:          0 HIT:          0 MISS:          0 MSHR_MERGE:          0
cpu0->cpu0_STLB WRITE        ACCESS:          0 HIT:          0 MISS:          0 MSHR_MERGE:          0
cpu0->cpu0_STLB TRANSLATION  ACCESS:          0 HIT:          0 MISS:          0 MSHR_MERGE:          0
cpu0->cpu0_STLB PREFETCH REQUESTED:          0 ISSUED:          0 USEFUL:          0 USELESS:          0 LATE:          0
cpu0->cpu0_STLB AVERAGE MISS LATENCY: 238.8 cycles
cpu0->cpu0_L2C TOTAL        ACCESS:    1202605 HIT:     300202 MISS:     902403 MSHR_MERGE:          0
cpu0->cpu0_L2C LOAD         ACCESS:     600410 HIT:          0 MISS:     600410 MSHR_MERGE:          0
cpu0->cpu0_L2C RFO          ACCESS:     300205 HIT:          0 MISS:     300205 MSHR_MERGE:          0
cpu0->cpu0_L2C PREFETCH     ACCESS:          0 HIT:          0 MISS:          0 MSHR_MERGE:          0
cpu0->cpu0_L2C WRITE        ACCESS:     300202 HIT:     300202 MISS:          0 MSHR_MERGE:          0
cpu0->cpu0_L2C TRANSLATION  ACCESS:       1788 HIT:          0 MISS:       1788 MSHR_MERGE:          0
cpu0->cpu0_L2C PREFETCH REQUESTED:          0 ISSUED:          0 USEFUL:          0 USELESS:          0 LATE:          0
cpu0->cpu0_L2C AVERAGE MISS LATENCY: 201.6 cycles
cpu0->cpu0_L1I TOTAL        ACCESS:          3 HIT:          3 MISS:          0 MSHR_MERGE:          0
cpu0->cpu0_L1I LOAD         ACCESS:          3 HIT:          3 MISS:          0 MSHR_MERGE:          0
cpu0->cpu0_L1I RFO          ACCESS:          0 HIT:          0 MISS:          0 MSHR_MERGE:          0
cpu0->cpu0_L1I PREFETCH     ACCESS:          0 HIT:          0 MISS:          0 MSHR_MERGE:          0
cpu0->cpu0_L1I WRITE        ACCESS:          0 HIT:          0 MISS:          0 MSHR_MERGE:          0
cpu0->cpu0_L1I TRANSLATION  ACCESS:          0 HIT:          0 MISS:          0 MSHR_MERGE:          0
cpu0->cpu0_L1I PREFETCH REQUESTED:          0 ISSUED:          0 USEFUL:          0 USELESS:          0 LATE:          0
cpu0->cpu0_L1I AVERAGE MISS LATENCY: - cycles
cpu0->cpu0_L1D TOTAL        ACCESS:   10235173 HIT:    8198820 MISS:    2036353 MSHR_MERGE:    1133950
cpu0->cpu0_L1D LOAD         ACCESS:    5403711 HIT:    4130807 MISS:    1272904 MSHR_MERGE:     672494
cpu0->cpu0_L1D RFO          ACCESS:          0 HIT:          0 MISS:          0 MSHR_MERGE:          0
cpu0->cpu0_L1D PREFETCH     ACCESS:          0 HIT:          0 MISS:          0 MSHR_MERGE:          0
cpu0->cpu0_L1D WRITE        ACCESS:    4803287 HIT:    4041626 MISS:     761661 MSHR_MERGE:     461456
cpu0->cpu0_L1D TRANSLATION  ACCESS:      28175 HIT:      26387 MISS:       1788 MSHR_MERGE:          0
cpu0->cpu0_L1D PREFETCH REQUESTED:          0 ISSUED:          0 USEFUL:          0 USELESS:          0 LATE:          0
cpu0->cpu0_L1D AVERAGE MISS LATENCY: 210.7 cycles
cpu0->cpu0_ITLB TOTAL        ACCESS:          2 HIT:          2 MISS:          0 MSHR_MERGE:          0
cpu0->cpu0_ITLB LOAD         ACCESS:          2 HIT:          2 MISS:          0 MSHR_MERGE:          0
cpu0->cpu0_ITLB RFO          ACCESS:          0 HIT:          0 MISS:          0 MSHR_MERGE:          0
cpu0->cpu0_ITLB PREFETCH     ACCESS:          0 HIT:          0 MISS:          0 MSHR_MERGE:          0
cpu0->cpu0_ITLB WRITE        ACCESS:          0 HIT:          0 MISS:          0 MSHR_MERGE:          0
cpu0->cpu0_ITLB TRANSLATION  ACCESS:          0 HIT:          0 MISS:          0 MSHR_MERGE:          0
cpu0->cpu0_ITLB PREFETCH REQUESTED:          0 ISSUED:          0 USEFUL:          0 USELESS:          0 LATE:          0
cpu0->cpu0_ITLB AVERAGE MISS LATENCY: - cycles
cpu0->cpu0_DTLB TOTAL        ACCESS:   10014689 HIT:    9989265 MISS:      25424 MSHR_MERGE:      11351
cpu0->cpu0_DTLB LOAD         ACCESS:   10014689 HIT:    9989265 MISS:      25424 MSHR_MERGE:      11351
cpu0->cpu0_DTLB RFO          ACCESS:          0 HIT:          0 MISS:          0 MSHR_MERGE:          0
cpu0->cpu0_DTLB PREFETCH     ACCESS:          0 HIT:          0 MISS:          0 MSHR_MERGE:          0
cpu0->cpu0_DTLB WRITE        ACCESS:          0 HIT:          0 MISS:          0 MSHR_MERGE:          0
cpu0->cpu0_DTLB TRANSLATION  ACCESS:          0 HIT:          0 MISS:          0 MSHR_MERGE:          0
cpu0->cpu0_DTLB PREFETCH REQUESTED:          0 ISSUED:          0 USEFUL:          0 USELESS:          0 LATE:          0
cpu0->cpu0_DTLB AVERAGE MISS LATENCY: 245 cycles
cpu0->LLC TOTAL        ACCESS:    1202599 HIT:     263241 MISS:     939358 MSHR_MERGE:          0
cpu0->LLC LOAD         ACCESS:     600410 HIT:          0 MISS:     600410 MSHR_MERGE:          0
cpu0->LLC RFO          ACCESS:     300205 HIT:          0 MISS:     300205 MSHR_MERGE:          0
cpu0->LLC PREFETCH     ACCESS:          0 HIT:          0 MISS:          0 MSHR_MERGE:          0
cpu0->LLC WRITE        ACCESS:     300196 HIT:     263241 MISS:      36955 MSHR_MERGE:          0
cpu0->LLC TRANSLATION  ACCESS:       1788 HIT:          0 MISS:       1788 MSHR_MERGE:          0
cpu0->LLC PREFETCH REQUESTED:          0 ISSUED:          0 USEFUL:          0 USELESS:          0 LATE:          0
cpu0->LLC AVERAGE MISS LATENCY: 178.6 cycles

DRAM Statistics

Channel 0 RQ ROW_BUFFER_HIT:      13019
  ROW_BUFFER_MISS:     889384
  AVG DBUS CONGESTED CYCLE: 16.43
Channel 0 WQ ROW_BUFFER_HIT:      53052
  ROW_BUFFER_MISS:     245927
  FULL:          0
Channel 0 REFRESHES ISSUED:      16718

[ROI Statistics]
[System Configuration]
num_cpus 1
cpu_freq 4000
fetch_width 6
decode_width 6
dispatch_width 6
execute_width 6
lq_width 2
sq_width 2
retire_width 6
scheduler_size 128
branch_mispredict_penalty 15
rob_size 352
lq_size 128
sq_size 72
ifetch_buffer_size 64
decode_buffer_size 32
dispatch_buffer_size 32
register_file_size 288
decode_latency 1
dispatch_latency 1
schedule_latency 1
execute_latency 1
page_size 4096
block_size 64
core_0_itlb_set 16
core_0_itlb_way 4
core_0_itlb_rq_size 16
core_0_itlb_wq_size 16
core_0_itlb_pq_size 0
core_0_itlb_mshr_size 8
core_0_itlb_hit_latency 1
core_0_itlb_fill_latency 1
core_0_itlb_max_tag_check 2
core_0_itlb_max_fill 2
core_0_dtlb_set 16
core_0_dtlb_way 4
core_0_dtlb_rq_size 16
core_0_dtlb_wq_size 16
core_0_dtlb_pq_size 0
core_0_dtlb_mshr_size 8
core_0_dtlb_hit_latency 1
core_0_dtlb_fill_latency 1
core_0_dtlb_max_tag_check 2
core_0_dtlb_max_fill 2
core_0_stlb_set 128
core_0_stlb_way 12
core_0_stlb_rq_size 32
core_0_stlb_wq_size 32
core_0_stlb_pq_size 0
core_0_stlb_mshr_size 16
core_0_stlb_hit_latency 4
core_0_stlb_fill_latency 4
core_0_stlb_max_tag_check 1
core_0_stlb_max_fill 1
core_0_l1i_set 64
core_0_l1i_way 8
core_0_l1i_rq_size 64
core_0_l1i_wq_size 64
core_0_l1i_pq_size 32
core_0_l1i_mshr_size 8
core_0_l1i_hit_latency 2
core_0_l1i_fill_latency 2
core_0_l1i_max_tag_check 2
core_0_l1i_max_fill 2
core_0_l1d_set 64
core_0_l1d_way 12
core_0_l1d_rq_size 64
core_0_l1d_wq_size 64
core_0_l1d_pq_size 8
core_0_l1d_mshr_size 16
core_0_l1d_hit_latency 2
core_0_l1d_fill_latency 3
core_0_l1d_max_tag_check 2
core_0_l1d_max_fill 2
core_0_l2c_set 1024
core_0_l2c_way 8
core_0_l2c_rq_size 32
core_0_l2c_wq_size 32
core_0_l2c_pq_size 16
core_0_l2c_mshr_size 32
core_0_l2c_hit_latency 5
core_0_l2c_fill_latency 5
core_0_l2c_max_tag_check 1
core_0_l2c_max_fill 1
llc_set 2048
llc_way 16
llc_rq_size 32
llc_wq_size 32
llc_pq_size 32
llc_mshr_size 64
llc_hit_latency 10
llc_fill_latency 10
llc_max_tag_check 1
llc_max_fill 1
dram_channels 1
dram_ranks 1
dram_bankgroups 8
dram_banks 4
dram_rows 65536
dram_columns 1024
dram_channel_width 8
dram_rq_size 64
dram_wq_size 64
dram_size 17179869184
core_0_itlb_prefetcher no
core_0_dtlb_prefetcher no
core_0_stlb_prefetcher no
core_0_l1i_prefetcher no
core_0_l1d_prefetcher no
core_0_l2c_prefetcher no
llc_prefetcher no
llc_replacement drrip

Core_0_instructions 50000000
Core_0_cycles 200626984
Core_0_IPC 0.249219
Core_0_branch_prediction_accuracy 76.5035
Core_0_branch_MPKI 45.144
Core_0_average_ROB_occupancy_at_mispredict 6.51191

Core_0_ITLB_total_access 2
Core_0_ITLB_total_hit 2
Core_0_ITLB_total_miss 0
Core_0_ITLB_total_MPKI 0
Core_0_ITLB_total_miss_rate 0
Core_0_ITLB_demand_access 2
Core_0_ITLB_demand_hit 2
Core_0_ITLB_demand_miss 0
Core_0_ITLB_demand_MPKI 0
Core_0_ITLB_demand_miss_rate 0
Core_0_ITLB_load_access 2
Core_0_ITLB_load_hit 2
Core_0_ITLB_load_miss 0
Core_0_ITLB_load_MPKI 0
Core_0_ITLB_load_miss_rate 0
Core_0_ITLB_rfo_access 0
Core_0_ITLB_rfo_hit 0
Core_0_ITLB_rfo_miss 0
Core_0_ITLB_rfo_MPKI 0
Core_0_ITLB_rfo_miss_rate 0
Core_0_ITLB_prefetch_access 0
Core_0_ITLB_prefetch_hit 0
Core_0_ITLB_prefetch_miss 0
Core_0_ITLB_prefetch_MPKI 0
Core_0_ITLB_prefetch_miss_rate 0
Core_0_ITLB_writeback_access 0
Core_0_ITLB_writeback_hit 0
Core_0_ITLB_writeback_miss 0
Core_0_ITLB_writeback_MPKI 0
Core_0_ITLB_writeback_miss_rate 0
Core_0_ITLB_prefetch_requested 0
Core_0_ITLB_prefetch_issued 0
Core_0_ITLB_prefetch_useful 0
Core_0_ITLB_prefetch_useless 0
Core_0_ITLB_prefetch_late 0
Core_0_ITLB_prefetch_accuracy 0
Core_0_ITLB_prefetch_coverage 0

Core_0_DTLB_total_access 10014689
Core_0_DTLB_total_hit 9989265
Core_0_DTLB_total_miss 25424
Core_0_DTLB_total_MPKI 0.50848
Core_0_DTLB_total_miss_rate 0.00253867
Core_0_DTLB_demand_access 10014689
Core_0_DTLB_demand_hit 9989265
Core_0_DTLB_demand_miss 25424
Core_0_DTLB_demand_MPKI 0.50848
Core_0_DTLB_demand_miss_rate 0.00253867
Core_0_DTLB_load_access 10014689
Core_0_DTLB_load_hit 9989265
Core_0_DTLB_load_miss 25424
Core_0_DTLB_load_MPKI 0.50848
Core_0_DTLB_load_miss_rate 0.00253867
Core_0_DTLB_rfo_access 0
Core_0_DTLB_rfo_hit 0
Core_0_DTLB_rfo_miss 0
Core_0_DTLB_rfo_MPKI 0
Core_0_DTLB_rfo_miss_rate 0
Core_0_DTLB_prefetch_access 0
Core_0_DTLB_prefetch_hit 0
Core_0_DTLB_prefetch_miss 0
Core_0_DTLB_prefetch_MPKI 0
Core_0_DTLB_prefetch_miss_rate 0
Core_0_DTLB_writeback_access 0
Core_0_DTLB_writeback_hit 0
Core_0_DTLB_writeback_miss 0
Core_0_DTLB_writeback_MPKI 0
Core_0_DTLB_writeback_miss_rate 0
Core_0_DTLB_prefetch_requested 0
Core_0_DTLB_prefetch_issued 0
Core_0_DTLB_prefetch_useful 0
Core_0_DTLB_prefetch_useless 0
Core_0_DTLB_prefetch_late 0
Core_0_DTLB_prefetch_accuracy 0
Core_0_DTLB_prefetch_coverage 0

Core_0_STLB_total_access 14073
Core_0_STLB_total_hit 0
Core_0_STLB_total_miss 14073
Core_0_STLB_total_MPKI 0.28146
Core_0_STLB_total_miss_rate 1
Core_0_STLB_demand_access 14073
Core_0_STLB_demand_hit 0
Core_0_STLB_demand_miss 14073
Core_0_STLB_demand_MPKI 0.28146
Core_0_STLB_demand_miss_rate 1
Core_0_STLB_load_access 14073
Core_0_STLB_load_hit 0
Core_0_STLB_load_miss 14073
Core_0_STLB_load_MPKI 0.28146
Core_0_STLB_load_miss_rate 1
Core_0_STLB_rfo_access 0
Core_0_STLB_rfo_hit 0
Core_0_STLB_rfo_miss 0
Core_0_STLB_rfo_MPKI 0
Core_0_STLB_rfo_miss_rate 0
Core_0_STLB_prefetch_access 0
Core_0_STLB_prefetch_hit 0
Core_0_STLB_prefetch_miss 0
Core_0_STLB_prefetch_MPKI 0
Core_0_STLB_prefetch_miss_rate 0
Core_0_STLB_writeback_access 0
Core_0_STLB_writeback_hit 0
Core_0_STLB_writeback_miss 0
Core_0_STLB_writeback_MPKI 0
Core_0_STLB_writeback_miss_rate 0
Core_0_STLB_prefetch_requested 0
Core_0_STLB_prefetch_issued 0
Core_0_STLB_prefetch_useful 0
Core_0_STLB_prefetch_useless 0
Core_0_STLB_prefetch_late 0
Core_0_STLB_prefetch_accuracy 0
Core_0_STLB_prefetch_coverage 0

Core_0_L1I_total_access 3
Core_0_L1I_total_hit 3
Core_0_L1I_total_miss 0
Core_0_L1I_total_MPKI 0
Core_0_L1I_total_miss_rate 0
Core_0_L1I_demand_access 3
Core_0_L1I_demand_hit 3
Core_0_L1I_demand_miss 0
Core_0_L1I_demand_MPKI 0
Core_0_L1I_demand_miss_rate 0
Core_0_L1I_load_access 3
Core_0_L1I_load_hit 3
Core_0_L1I_load_miss 0
Core_0_L1I_load_MPKI 0
Core_0_L1I_load_miss_rate 0
Core_0_L1I_rfo_access 0
Core_0_L1I_rfo_hit 0
Core_0_L1I_rfo_miss 0
Core_0_L1I_rfo_MPKI 0
Core_0_L1I_rfo_miss_rate 0
Core_0_L1I_prefetch_access 0
Core_0_L1I_prefetch_hit 0
Core_0_L1I_prefetch_miss 0
Core_0_L1I_prefetch_MPKI 0
Core_0_L1I_prefetch_miss_rate 0
Core_0_L1I_writeback_access 0
Core_0_L1I_writeback_hit 0
Core_0_L1I_writeback_miss 0
Core_0_L1I_writeback_MPKI 0
Core_0_L1I_writeback_miss_rate 0
Core_0_L1I_prefetch_requested 0
Core_0_L1I_prefetch_issued 0
Core_0_L1I_prefetch_useful 0
Core_0_L1I_prefetch_useless 0
Core_0_L1I_prefetch_late 0
Core_0_L1I_prefetch_accuracy 0
Core_0_L1I_prefetch_coverage 0

Core_0_L1D_total_access 10206998
Core_0_L1D_total_hit 8172433
Core_0_L1D_total_miss 2034565
Core_0_L1D_total_MPKI 40.6913
Core_0_L1D_total_miss_rate 0.19933
Core_0_L1D_demand_access 5403711
Core_0_L1D_demand_hit 4130807
Core_0_L1D_demand_miss 1272904
Core_0_L1D_demand_MPKI 25.4581
Core_0_L1D_demand_miss_rate 0.235561
Core_0_L1D_load_access 5403711
Core_0_L1D_load_hit 4130807
Core_0_L1D_load_miss 1272904
Core_0_L1D_load_MPKI 25.4581
Core_0_L1D_load_miss_rate 0.235561
Core_0_L1D_rfo_access 0
Core_0_L1D_rfo_hit 0
Core_0_L1D_rfo_miss 0
Core_0_L1D_rfo_MPKI 0
Core_0_L1D_rfo_miss_rate 0
Core_0_L1D_prefetch_access 0
Core_0_L1D_prefetch_hit 0
Core_0_L1D_prefetch_miss 0
Core_0_L1D_prefetch_MPKI 0
Core_0_L1D_prefetch_miss_rate 0
Core_0_L1D_writeback_access 4803287
Core_0_L1D_writeback_hit 4041626
Core_0_L1D_writeback_miss 761661
Core_0_L1D_writeback_MPKI 15.2332
Core_0_L1D_writeback_miss_rate 0.158571
Core_0_L1D_prefetch_requested 0
Core_0_L1D_prefetch_issued 0
Core_0_L1D_prefetch_useful 0
Core_0_L1D_prefetch_useless 0
Core_0_L1D_prefetch_late 0
Core_0_L1D_prefetch_accuracy 0
Core_0_L1D_prefetch_coverage 0

Core_0_L2C_total_access 1200817
Core_0_L2C_total_hit 300202
Core_0_L2C_total_miss 900615
Core_0_L2C_total_MPKI 18.0123
Core_0_L2C_total_miss_rate 0.750002
Core_0_L2C_demand_access 900615
Core_0_L2C_demand_hit 0
Core_0_L2C_demand_miss 900615
Core_0_L2C_demand_MPKI 18.0123
Core_0_L2C_demand_miss_rate 1
Core_0_L2C_load_access 600410
Core_0_L2C_load_hit 0
Core_0_L2C_load_miss 600410
Core_0_L2C_load_MPKI 12.0082
Core_0_L2C_load_miss_rate 1
Core_0_L2C_rfo_access 300205
Core_0_L2C_rfo_hit 0
Core_0_L2C_rfo_miss 300205
Core_0_L2C_rfo_MPKI 6.0041
Core_0_L2C_rfo_miss_rate 1
Core_0_L2C_prefetch_access 0
Core_0_L2C_prefetch_hit 0
Core_0_L2C_prefetch_miss 0
Core_0_L2C_prefetch_MPKI 0
Core_0_L2C_prefetch_miss_rate 0
Core_0_L2C_writeback_access 300202
Core_0_L2C_writeback_hit 300202
Core_0_L2C_writeback_miss 0
Core_0_L2C_writeback_MPKI 0
Core_0_L2C_writeback_miss_rate 0
Core_0_L2C_prefetch_requested 0
Core_0_L2C_prefetch_issued 0
Core_0_L2C_prefetch_useful 0
Core_0_L2C_prefetch_useless 0
Core_0_L2C_prefetch_late 0
Core_0_L2C_prefetch_accuracy 0
Core_0_L2C_prefetch_coverage 0

Core_0_LLC_total_access 1200811
Core_0_LLC_total_hit 263241
Core_0_LLC_total_miss 937570
Core_0_LLC_total_MPKI 18.7514
Core_0_LLC_total_miss_rate 0.780781
Core_0_LLC_demand_access 900615
Core_0_LLC_demand_hit 0
Core_0_LLC_demand_miss 900615
Core_0_LLC_demand_MPKI 18.0123
Core_0_LLC_demand_miss_rate 1
Core_0_LLC_load_access 600410
Core_0_LLC_load_hit 0
Core_0_LLC_load_miss 600410
Core_0_LLC_load_MPKI 12.0082
Core_0_LLC_load_miss_rate 1
Core_0_LLC_rfo_access 300205
Core_0_LLC_rfo_hit 0
Core_0_LLC_rfo_miss 300205
Core_0_LLC_rfo_MPKI 6.0041
Core_0_LLC_rfo_miss_rate 1
Core_0_LLC_prefetch_access 0
Core_0_LLC_prefetch_hit 0
Core_0_LLC_prefetch_miss 0
Core_0_LLC_prefetch_MPKI 0
Core_0_LLC_prefetch_miss_rate 0
Core_0_LLC_writeback_access 300196
Core_0_LLC_writeback_hit 263241
Core_0_LLC_writeback_miss 36955
Core_0_LLC_writeback_MPKI 0.7391
Core_0_LLC_writeback_miss_rate 0.123103
Core_0_LLC_prefetch_requested 0
Core_0_LLC_prefetch_issued 0
Core_0_LLC_prefetch_useful 0
Core_0_LLC_prefetch_useless 0
Core_0_LLC_prefetch_late 0
Core_0_LLC_prefetch_accuracy 0
Core_0_LLC_prefetch_coverage 0

[DRAM Statistics]
Channel_0_RQ_row_buffer_hit 13019
Channel_0_RQ_row_buffer_miss 889384
Channel_0_WQ_row_buffer_hit 53052
Channel_0_WQ_row_buffer_miss 245927
Channel_0_WQ_full 0
Channel_0_dbus_congested 3362321
DRAM_total_RQ_row_buffer_hit 13019
DRAM_total_RQ_row_buffer_miss 889384
DRAM_total_WQ_row_buffer_hit 53052
DRAM_total_WQ_row_buffer_miss 245927
DRAM_total_WQ_full 0
DRAM_total_dbus_congested 3362321
DRAM_avg_congested_cycle 16.4304

====== DRAM_RQ_TRAFFIC ========
DRAM_RQ_READ_TRAFFIC_BREAKDOWN:
data_demand_read.count = 900615
data_demand_read.share = 99.80%

inst_demand_read.count = 0
inst_demand_read.share = 0.00%

cache_inst_prefetch.count = 0
cache_inst_prefetch.share = 0.00%

cache_data_prefetch.count = 0
cache_data_prefetch.share = 0.00%

stlb_data_demand.count = 1788
stlb_data_demand.share = 0.20%

stlb_inst_demand.count = 0
stlb_inst_demand.share = 0.00%

stlb_l1i_pref.count = 0
stlb_l1i_pref.share = 0.00%

stlb_l1d_pref.count = 0
stlb_l1d_pref.share = 0.00%

DRAM_RQ_READ_TRAFFIC_SUMMARY:
cache_demand.count = 900615
cache_demand.share = 99.80%

cache_prefetch.count = 0
cache_prefetch.share = 0.00%

stlb_demand.count = 1788
stlb_demand.share = 0.20%

stlb_prefetch.count = 0
stlb_prefetch.share = 0.00%

DRAM_RQ_READ_TRAFFIC_DEBUG:
total_classified_read.count = 902403
unclassified_read.count = 0
total_read_with_other.count = 902403

classified_plus_unclassified_check.count = 902403
dram_rq_read_total_observed.count = 902403
dram_rq_read_total_observed.per_1K_instructions = 18.0481

STLB_MISS_PTW_DRAM_TOUCH_BREAKDOWN:
stlb_miss_total.count = 14073

stlb_miss_touch_dram.count = 1759
stlb_miss_touch_dram.share = 12.50%

stlb_miss_no_dram_touch.count = 12314
stlb_miss_no_dram_touch.share = 87.50%

STLB_MISS_PTW_DRAM_TOUCH_DEBUG:
stlb_miss_touch_plus_no_touch.count = 14073
stlb_miss_total_check.count = 14073

======STLB miss causes ========
Core_0_STLB_miss_cause_breakdown
Core_0_STLB_cause_Demand_Data_miss 14073
Core_0_STLB_cause_Demand_Data_miss_rate 1
Core_0_STLB_cause_Demand_Instruction_miss 0
Core_0_STLB_cause_Demand_Instruction_miss_rate 0
Core_0_STLB_cause_L1D_Prefetch_miss 0
Core_0_STLB_cause_L1D_Prefetch_miss_rate 0
Core_0_STLB_cause_L1I_Prefetch_miss 0
Core_0_STLB_cause_L1I_Prefetch_miss_rate 0
Core_0_STLB_cause_Other_miss 0
Core_0_STLB_cause_Other_miss_rate 0
Core_0_STLB_Demand_miss 14073
Core_0_STLB_Demand_miss_rate 1
Core_0_STLB_L1D_Prefetch_miss 0
Core_0_STLB_L1D_Prefetch_miss_rate 0
Core_0_STLB_Other_miss 0
Core_0_STLB_Other_miss_rate 0
