[VMEM] WARNING: physical memory size is smaller than virtual memory size.

*** ChampSim Multicore Out-of-Order Simulator ***
Warmup Instructions: 20000000
Simulation Instructions: 50000000
Number of CPUs: 1
Page size: 4096
Core 0: /data0/tzh/champsim_traces/Ligra/ligra_Triangle.com-lj.ungraph.gcc_6.3.0_O3.drop_18000M.length_250M.champsimtrace.xz
Off-chip DRAM Size: 16 GiB Channels: 1 Width: 64-bit Data Rate: 3205 MT/s
Warmup halting CPU 0 at instruction 20000001 cycle 6277464 for remainder of phase
Warmup finished CPU 0 instructions: 20000001 cycles: 6277464 cumulative IPC: 3.186 (Simulation time: 00 hr 01 min 08 sec)
Warmup complete CPU 0 instructions: 20000001 cycles: 6277464 cumulative IPC: 3.186 (Simulation time: 00 hr 01 min 08 sec)
Simulation finished CPU 0 instructions: 50000005 cycles: 38394413 cumulative IPC: 1.302 (Simulation time: 00 hr 06 min 37 sec)
Simulation complete CPU 0 instructions: 50000005 cycles: 38394413 cumulative IPC: 1.302 (Simulation time: 00 hr 06 min 37 sec)

ChampSim completed all CPUs

=== Simulation ===
CPU 0 runs /data0/tzh/champsim_traces/Ligra/ligra_Triangle.com-lj.ungraph.gcc_6.3.0_O3.drop_18000M.length_250M.champsimtrace.xz

Region of Interest Statistics

CPU 0 cumulative IPC: 1.302 instructions: 50000005 cycles: 38394413
CPU 0 Branch Prediction Accuracy: 99.03% MPKI: 0.9846 Average ROB Occupancy at Mispredict: 189.1
Branch type MPKI
BRANCH_DIRECT_JUMP: 0
BRANCH_INDIRECT: 0
BRANCH_CONDITIONAL: 0.9843
BRANCH_DIRECT_CALL: 0
BRANCH_INDIRECT_CALL: 0
BRANCH_RETURN: 0.00028

cpu0->cpu0_STLB TOTAL        ACCESS:      23469 HIT:      19494 MISS:       3975 MSHR_MERGE:          0
cpu0->cpu0_STLB LOAD         ACCESS:      23469 HIT:      19494 MISS:       3975 MSHR_MERGE:          0
cpu0->cpu0_STLB RFO          ACCESS:          0 HIT:          0 MISS:          0 MSHR_MERGE:          0
cpu0->cpu0_STLB PREFETCH     ACCESS:          0 HIT:          0 MISS:          0 MSHR_MERGE:          0
cpu0->cpu0_STLB WRITE        ACCESS:          0 HIT:          0 MISS:          0 MSHR_MERGE:          0
cpu0->cpu0_STLB TRANSLATION  ACCESS:          0 HIT:          0 MISS:          0 MSHR_MERGE:          0
cpu0->cpu0_STLB PREFETCH REQUESTED:          0 ISSUED:          0 USEFUL:          0 USELESS:          0 LATE:          0
cpu0->cpu0_STLB AVERAGE MISS LATENCY: 276 cycles
cpu0->cpu0_L2C TOTAL        ACCESS:    1801490 HIT:     786773 MISS:    1014717 MSHR_MERGE:          0
cpu0->cpu0_L2C LOAD         ACCESS:     688796 HIT:     194469 MISS:     494327 MSHR_MERGE:          0
cpu0->cpu0_L2C RFO          ACCESS:     554879 HIT:      35212 MISS:     519667 MSHR_MERGE:          0
cpu0->cpu0_L2C PREFETCH     ACCESS:          0 HIT:          0 MISS:          0 MSHR_MERGE:          0
cpu0->cpu0_L2C WRITE        ACCESS:     556949 HIT:     556784 MISS:        165 MSHR_MERGE:          0
cpu0->cpu0_L2C TRANSLATION  ACCESS:        866 HIT:        308 MISS:        558 MSHR_MERGE:          0
cpu0->cpu0_L2C PREFETCH REQUESTED:          0 ISSUED:          0 USEFUL:          0 USELESS:          0 LATE:          0
cpu0->cpu0_L2C AVERAGE MISS LATENCY: 238.5 cycles
cpu0->cpu0_L1I TOTAL        ACCESS:    5265320 HIT:    5265320 MISS:          0 MSHR_MERGE:          0
cpu0->cpu0_L1I LOAD         ACCESS:    5265320 HIT:    5265320 MISS:          0 MSHR_MERGE:          0
cpu0->cpu0_L1I RFO          ACCESS:          0 HIT:          0 MISS:          0 MSHR_MERGE:          0
cpu0->cpu0_L1I PREFETCH     ACCESS:          0 HIT:          0 MISS:          0 MSHR_MERGE:          0
cpu0->cpu0_L1I WRITE        ACCESS:          0 HIT:          0 MISS:          0 MSHR_MERGE:          0
cpu0->cpu0_L1I TRANSLATION  ACCESS:          0 HIT:          0 MISS:          0 MSHR_MERGE:          0
cpu0->cpu0_L1I PREFETCH REQUESTED:          0 ISSUED:          0 USEFUL:          0 USELESS:          0 LATE:          0
cpu0->cpu0_L1I AVERAGE MISS LATENCY: - cycles
cpu0->cpu0_L1D TOTAL        ACCESS:   13656497 HIT:    9365635 MISS:    4290862 MSHR_MERGE:    3046302
cpu0->cpu0_L1D LOAD         ACCESS:    3613365 HIT:    2179409 MISS:    1433956 MSHR_MERGE:     745155
cpu0->cpu0_L1D RFO          ACCESS:          0 HIT:          0 MISS:          0 MSHR_MERGE:          0
cpu0->cpu0_L1D PREFETCH     ACCESS:          0 HIT:          0 MISS:          0 MSHR_MERGE:          0
cpu0->cpu0_L1D WRITE        ACCESS:   10035565 HIT:    7179913 MISS:    2855652 MSHR_MERGE:    2300759
cpu0->cpu0_L1D TRANSLATION  ACCESS:       7567 HIT:       6313 MISS:       1254 MSHR_MERGE:        388
cpu0->cpu0_L1D PREFETCH REQUESTED:          0 ISSUED:          0 USEFUL:          0 USELESS:          0 LATE:          0
cpu0->cpu0_L1D AVERAGE MISS LATENCY: 203.4 cycles
cpu0->cpu0_ITLB TOTAL        ACCESS:    5179497 HIT:    5179497 MISS:          0 MSHR_MERGE:          0
cpu0->cpu0_ITLB LOAD         ACCESS:    5179497 HIT:    5179497 MISS:          0 MSHR_MERGE:          0
cpu0->cpu0_ITLB RFO          ACCESS:          0 HIT:          0 MISS:          0 MSHR_MERGE:          0
cpu0->cpu0_ITLB PREFETCH     ACCESS:          0 HIT:          0 MISS:          0 MSHR_MERGE:          0
cpu0->cpu0_ITLB WRITE        ACCESS:          0 HIT:          0 MISS:          0 MSHR_MERGE:          0
cpu0->cpu0_ITLB TRANSLATION  ACCESS:          0 HIT:          0 MISS:          0 MSHR_MERGE:          0
cpu0->cpu0_ITLB PREFETCH REQUESTED:          0 ISSUED:          0 USEFUL:          0 USELESS:          0 LATE:          0
cpu0->cpu0_ITLB AVERAGE MISS LATENCY: - cycles
cpu0->cpu0_DTLB TOTAL        ACCESS:   11925192 HIT:   11839144 MISS:      86048 MSHR_MERGE:      62579
cpu0->cpu0_DTLB LOAD         ACCESS:   11925192 HIT:   11839144 MISS:      86048 MSHR_MERGE:      62579
cpu0->cpu0_DTLB RFO          ACCESS:          0 HIT:          0 MISS:          0 MSHR_MERGE:          0
cpu0->cpu0_DTLB PREFETCH     ACCESS:          0 HIT:          0 MISS:          0 MSHR_MERGE:          0
cpu0->cpu0_DTLB WRITE        ACCESS:          0 HIT:          0 MISS:          0 MSHR_MERGE:          0
cpu0->cpu0_DTLB TRANSLATION  ACCESS:          0 HIT:          0 MISS:          0 MSHR_MERGE:          0
cpu0->cpu0_DTLB PREFETCH REQUESTED:          0 ISSUED:          0 USEFUL:          0 USELESS:          0 LATE:          0
cpu0->cpu0_DTLB AVERAGE MISS LATENCY: 51.92 cycles
cpu0->LLC TOTAL        ACCESS:    1536222 HIT:     641166 MISS:     895056 MSHR_MERGE:          0
cpu0->LLC LOAD         ACCESS:     494327 HIT:     232495 MISS:     261832 MSHR_MERGE:          0
cpu0->LLC RFO          ACCESS:     519666 HIT:     155894 MISS:     363772 MSHR_MERGE:          0
cpu0->LLC PREFETCH     ACCESS:          0 HIT:          0 MISS:          0 MSHR_MERGE:          0
cpu0->LLC WRITE        ACCESS:     521671 HIT:     252776 MISS:     268895 MSHR_MERGE:          0
cpu0->LLC TRANSLATION  ACCESS:        558 HIT:          1 MISS:        557 MSHR_MERGE:          0
cpu0->LLC PREFETCH REQUESTED:          0 ISSUED:          0 USEFUL:          0 USELESS:          0 LATE:          0
cpu0->LLC AVERAGE MISS LATENCY: 255.4 cycles

DRAM Statistics

Channel 0 RQ ROW_BUFFER_HIT:      32209
  ROW_BUFFER_MISS:     592950
  AVG DBUS CONGESTED CYCLE: 7.72
Channel 0 WQ ROW_BUFFER_HIT:      69785
  ROW_BUFFER_MISS:     313493
  FULL:       6894
Channel 0 REFRESHES ISSUED:       3199

[ROI Statistics]
[System Configuration]
num_cpus 1
cpu_freq 4000
fetch_width 6
decode_width 6
dispatch_width 6
execute_width 6
lq_width 2
sq_width 2
retire_width 6
scheduler_size 128
branch_mispredict_penalty 15
rob_size 352
lq_size 128
sq_size 72
ifetch_buffer_size 64
decode_buffer_size 32
dispatch_buffer_size 32
register_file_size 288
decode_latency 1
dispatch_latency 1
schedule_latency 1
execute_latency 1
page_size 4096
block_size 64
core_0_itlb_set 16
core_0_itlb_way 4
core_0_itlb_rq_size 16
core_0_itlb_wq_size 16
core_0_itlb_pq_size 0
core_0_itlb_mshr_size 8
core_0_itlb_hit_latency 1
core_0_itlb_fill_latency 1
core_0_itlb_max_tag_check 2
core_0_itlb_max_fill 2
core_0_dtlb_set 16
core_0_dtlb_way 4
core_0_dtlb_rq_size 16
core_0_dtlb_wq_size 16
core_0_dtlb_pq_size 0
core_0_dtlb_mshr_size 8
core_0_dtlb_hit_latency 1
core_0_dtlb_fill_latency 1
core_0_dtlb_max_tag_check 2
core_0_dtlb_max_fill 2
core_0_stlb_set 128
core_0_stlb_way 12
core_0_stlb_rq_size 32
core_0_stlb_wq_size 32
core_0_stlb_pq_size 0
core_0_stlb_mshr_size 16
core_0_stlb_hit_latency 4
core_0_stlb_fill_latency 4
core_0_stlb_max_tag_check 1
core_0_stlb_max_fill 1
core_0_l1i_set 64
core_0_l1i_way 8
core_0_l1i_rq_size 64
core_0_l1i_wq_size 64
core_0_l1i_pq_size 32
core_0_l1i_mshr_size 8
core_0_l1i_hit_latency 2
core_0_l1i_fill_latency 2
core_0_l1i_max_tag_check 2
core_0_l1i_max_fill 2
core_0_l1d_set 64
core_0_l1d_way 12
core_0_l1d_rq_size 64
core_0_l1d_wq_size 64
core_0_l1d_pq_size 8
core_0_l1d_mshr_size 16
core_0_l1d_hit_latency 2
core_0_l1d_fill_latency 3
core_0_l1d_max_tag_check 2
core_0_l1d_max_fill 2
core_0_l2c_set 1024
core_0_l2c_way 8
core_0_l2c_rq_size 32
core_0_l2c_wq_size 32
core_0_l2c_pq_size 16
core_0_l2c_mshr_size 32
core_0_l2c_hit_latency 5
core_0_l2c_fill_latency 5
core_0_l2c_max_tag_check 1
core_0_l2c_max_fill 1
llc_set 2048
llc_way 16
llc_rq_size 32
llc_wq_size 32
llc_pq_size 32
llc_mshr_size 64
llc_hit_latency 10
llc_fill_latency 10
llc_max_tag_check 1
llc_max_fill 1
dram_channels 1
dram_ranks 1
dram_bankgroups 8
dram_banks 4
dram_rows 65536
dram_columns 1024
dram_channel_width 8
dram_rq_size 64
dram_wq_size 64
dram_size 17179869184
core_0_itlb_prefetcher no
core_0_dtlb_prefetcher no
core_0_stlb_prefetcher no
core_0_l1i_prefetcher no
core_0_l1d_prefetcher no
core_0_l2c_prefetcher no
llc_prefetcher no
llc_replacement drrip

Core_0_instructions 50000005
Core_0_cycles 38394413
Core_0_IPC 1.30227
Core_0_branch_prediction_accuracy 99.03
Core_0_branch_MPKI 0.9846
Core_0_average_ROB_occupancy_at_mispredict 189.102

Core_0_ITLB_total_access 5179497
Core_0_ITLB_total_hit 5179497
Core_0_ITLB_total_miss 0
Core_0_ITLB_total_MPKI 0
Core_0_ITLB_total_miss_rate 0
Core_0_ITLB_demand_access 5179497
Core_0_ITLB_demand_hit 5179497
Core_0_ITLB_demand_miss 0
Core_0_ITLB_demand_MPKI 0
Core_0_ITLB_demand_miss_rate 0
Core_0_ITLB_load_access 5179497
Core_0_ITLB_load_hit 5179497
Core_0_ITLB_load_miss 0
Core_0_ITLB_load_MPKI 0
Core_0_ITLB_load_miss_rate 0
Core_0_ITLB_rfo_access 0
Core_0_ITLB_rfo_hit 0
Core_0_ITLB_rfo_miss 0
Core_0_ITLB_rfo_MPKI 0
Core_0_ITLB_rfo_miss_rate 0
Core_0_ITLB_prefetch_access 0
Core_0_ITLB_prefetch_hit 0
Core_0_ITLB_prefetch_miss 0
Core_0_ITLB_prefetch_MPKI 0
Core_0_ITLB_prefetch_miss_rate 0
Core_0_ITLB_writeback_access 0
Core_0_ITLB_writeback_hit 0
Core_0_ITLB_writeback_miss 0
Core_0_ITLB_writeback_MPKI 0
Core_0_ITLB_writeback_miss_rate 0
Core_0_ITLB_prefetch_requested 0
Core_0_ITLB_prefetch_issued 0
Core_0_ITLB_prefetch_useful 0
Core_0_ITLB_prefetch_useless 0
Core_0_ITLB_prefetch_late 0
Core_0_ITLB_prefetch_accuracy 0
Core_0_ITLB_prefetch_coverage 0

Core_0_DTLB_total_access 11925192
Core_0_DTLB_total_hit 11839144
Core_0_DTLB_total_miss 86048
Core_0_DTLB_total_MPKI 1.72096
Core_0_DTLB_total_miss_rate 0.00721565
Core_0_DTLB_demand_access 11925192
Core_0_DTLB_demand_hit 11839144
Core_0_DTLB_demand_miss 86048
Core_0_DTLB_demand_MPKI 1.72096
Core_0_DTLB_demand_miss_rate 0.00721565
Core_0_DTLB_load_access 11925192
Core_0_DTLB_load_hit 11839144
Core_0_DTLB_load_miss 86048
Core_0_DTLB_load_MPKI 1.72096
Core_0_DTLB_load_miss_rate 0.00721565
Core_0_DTLB_rfo_access 0
Core_0_DTLB_rfo_hit 0
Core_0_DTLB_rfo_miss 0
Core_0_DTLB_rfo_MPKI 0
Core_0_DTLB_rfo_miss_rate 0
Core_0_DTLB_prefetch_access 0
Core_0_DTLB_prefetch_hit 0
Core_0_DTLB_prefetch_miss 0
Core_0_DTLB_prefetch_MPKI 0
Core_0_DTLB_prefetch_miss_rate 0
Core_0_DTLB_writeback_access 0
Core_0_DTLB_writeback_hit 0
Core_0_DTLB_writeback_miss 0
Core_0_DTLB_writeback_MPKI 0
Core_0_DTLB_writeback_miss_rate 0
Core_0_DTLB_prefetch_requested 0
Core_0_DTLB_prefetch_issued 0
Core_0_DTLB_prefetch_useful 0
Core_0_DTLB_prefetch_useless 0
Core_0_DTLB_prefetch_late 0
Core_0_DTLB_prefetch_accuracy 0
Core_0_DTLB_prefetch_coverage 0

Core_0_STLB_total_access 23469
Core_0_STLB_total_hit 19494
Core_0_STLB_total_miss 3975
Core_0_STLB_total_MPKI 0.0795
Core_0_STLB_total_miss_rate 0.169372
Core_0_STLB_demand_access 23469
Core_0_STLB_demand_hit 19494
Core_0_STLB_demand_miss 3975
Core_0_STLB_demand_MPKI 0.0795
Core_0_STLB_demand_miss_rate 0.169372
Core_0_STLB_load_access 23469
Core_0_STLB_load_hit 19494
Core_0_STLB_load_miss 3975
Core_0_STLB_load_MPKI 0.0795
Core_0_STLB_load_miss_rate 0.169372
Core_0_STLB_rfo_access 0
Core_0_STLB_rfo_hit 0
Core_0_STLB_rfo_miss 0
Core_0_STLB_rfo_MPKI 0
Core_0_STLB_rfo_miss_rate 0
Core_0_STLB_prefetch_access 0
Core_0_STLB_prefetch_hit 0
Core_0_STLB_prefetch_miss 0
Core_0_STLB_prefetch_MPKI 0
Core_0_STLB_prefetch_miss_rate 0
Core_0_STLB_writeback_access 0
Core_0_STLB_writeback_hit 0
Core_0_STLB_writeback_miss 0
Core_0_STLB_writeback_MPKI 0
Core_0_STLB_writeback_miss_rate 0
Core_0_STLB_prefetch_requested 0
Core_0_STLB_prefetch_issued 0
Core_0_STLB_prefetch_useful 0
Core_0_STLB_prefetch_useless 0
Core_0_STLB_prefetch_late 0
Core_0_STLB_prefetch_accuracy 0
Core_0_STLB_prefetch_coverage 0

Core_0_L1I_total_access 5265320
Core_0_L1I_total_hit 5265320
Core_0_L1I_total_miss 0
Core_0_L1I_total_MPKI 0
Core_0_L1I_total_miss_rate 0
Core_0_L1I_demand_access 5265320
Core_0_L1I_demand_hit 5265320
Core_0_L1I_demand_miss 0
Core_0_L1I_demand_MPKI 0
Core_0_L1I_demand_miss_rate 0
Core_0_L1I_load_access 5265320
Core_0_L1I_load_hit 5265320
Core_0_L1I_load_miss 0
Core_0_L1I_load_MPKI 0
Core_0_L1I_load_miss_rate 0
Core_0_L1I_rfo_access 0
Core_0_L1I_rfo_hit 0
Core_0_L1I_rfo_miss 0
Core_0_L1I_rfo_MPKI 0
Core_0_L1I_rfo_miss_rate 0
Core_0_L1I_prefetch_access 0
Core_0_L1I_prefetch_hit 0
Core_0_L1I_prefetch_miss 0
Core_0_L1I_prefetch_MPKI 0
Core_0_L1I_prefetch_miss_rate 0
Core_0_L1I_writeback_access 0
Core_0_L1I_writeback_hit 0
Core_0_L1I_writeback_miss 0
Core_0_L1I_writeback_MPKI 0
Core_0_L1I_writeback_miss_rate 0
Core_0_L1I_prefetch_requested 0
Core_0_L1I_prefetch_issued 0
Core_0_L1I_prefetch_useful 0
Core_0_L1I_prefetch_useless 0
Core_0_L1I_prefetch_late 0
Core_0_L1I_prefetch_accuracy 0
Core_0_L1I_prefetch_coverage 0

Core_0_L1D_total_access 13648930
Core_0_L1D_total_hit 9359322
Core_0_L1D_total_miss 4289608
Core_0_L1D_total_MPKI 85.7922
Core_0_L1D_total_miss_rate 0.314282
Core_0_L1D_demand_access 3613365
Core_0_L1D_demand_hit 2179409
Core_0_L1D_demand_miss 1433956
Core_0_L1D_demand_MPKI 28.6791
Core_0_L1D_demand_miss_rate 0.396848
Core_0_L1D_load_access 3613365
Core_0_L1D_load_hit 2179409
Core_0_L1D_load_miss 1433956
Core_0_L1D_load_MPKI 28.6791
Core_0_L1D_load_miss_rate 0.396848
Core_0_L1D_rfo_access 0
Core_0_L1D_rfo_hit 0
Core_0_L1D_rfo_miss 0
Core_0_L1D_rfo_MPKI 0
Core_0_L1D_rfo_miss_rate 0
Core_0_L1D_prefetch_access 0
Core_0_L1D_prefetch_hit 0
Core_0_L1D_prefetch_miss 0
Core_0_L1D_prefetch_MPKI 0
Core_0_L1D_prefetch_miss_rate 0
Core_0_L1D_writeback_access 10035565
Core_0_L1D_writeback_hit 7179913
Core_0_L1D_writeback_miss 2855652
Core_0_L1D_writeback_MPKI 57.113
Core_0_L1D_writeback_miss_rate 0.284553
Core_0_L1D_prefetch_requested 0
Core_0_L1D_prefetch_issued 0
Core_0_L1D_prefetch_useful 0
Core_0_L1D_prefetch_useless 0
Core_0_L1D_prefetch_late 0
Core_0_L1D_prefetch_accuracy 0
Core_0_L1D_prefetch_coverage 0

Core_0_L2C_total_access 1800624
Core_0_L2C_total_hit 786465
Core_0_L2C_total_miss 1014159
Core_0_L2C_total_MPKI 20.2832
Core_0_L2C_total_miss_rate 0.563226
Core_0_L2C_demand_access 1243675
Core_0_L2C_demand_hit 229681
Core_0_L2C_demand_miss 1013994
Core_0_L2C_demand_MPKI 20.2799
Core_0_L2C_demand_miss_rate 0.815321
Core_0_L2C_load_access 688796
Core_0_L2C_load_hit 194469
Core_0_L2C_load_miss 494327
Core_0_L2C_load_MPKI 9.88654
Core_0_L2C_load_miss_rate 0.717668
Core_0_L2C_rfo_access 554879
Core_0_L2C_rfo_hit 35212
Core_0_L2C_rfo_miss 519667
Core_0_L2C_rfo_MPKI 10.3933
Core_0_L2C_rfo_miss_rate 0.936541
Core_0_L2C_prefetch_access 0
Core_0_L2C_prefetch_hit 0
Core_0_L2C_prefetch_miss 0
Core_0_L2C_prefetch_MPKI 0
Core_0_L2C_prefetch_miss_rate 0
Core_0_L2C_writeback_access 556949
Core_0_L2C_writeback_hit 556784
Core_0_L2C_writeback_miss 165
Core_0_L2C_writeback_MPKI 0.0033
Core_0_L2C_writeback_miss_rate 0.000296257
Core_0_L2C_prefetch_requested 0
Core_0_L2C_prefetch_issued 0
Core_0_L2C_prefetch_useful 0
Core_0_L2C_prefetch_useless 0
Core_0_L2C_prefetch_late 0
Core_0_L2C_prefetch_accuracy 0
Core_0_L2C_prefetch_coverage 0

Core_0_LLC_total_access 1535664
Core_0_LLC_total_hit 641165
Core_0_LLC_total_miss 894499
Core_0_LLC_total_MPKI 17.89
Core_0_LLC_total_miss_rate 0.582484
Core_0_LLC_demand_access 1013993
Core_0_LLC_demand_hit 388389
Core_0_LLC_demand_miss 625604
Core_0_LLC_demand_MPKI 12.5121
Core_0_LLC_demand_miss_rate 0.616971
Core_0_LLC_load_access 494327
Core_0_LLC_load_hit 232495
Core_0_LLC_load_miss 261832
Core_0_LLC_load_MPKI 5.23664
Core_0_LLC_load_miss_rate 0.529674
Core_0_LLC_rfo_access 519666
Core_0_LLC_rfo_hit 155894
Core_0_LLC_rfo_miss 363772
Core_0_LLC_rfo_MPKI 7.27544
Core_0_LLC_rfo_miss_rate 0.700011
Core_0_LLC_prefetch_access 0
Core_0_LLC_prefetch_hit 0
Core_0_LLC_prefetch_miss 0
Core_0_LLC_prefetch_MPKI 0
Core_0_LLC_prefetch_miss_rate 0
Core_0_LLC_writeback_access 521671
Core_0_LLC_writeback_hit 252776
Core_0_LLC_writeback_miss 268895
Core_0_LLC_writeback_MPKI 5.3779
Core_0_LLC_writeback_miss_rate 0.515449
Core_0_LLC_prefetch_requested 0
Core_0_LLC_prefetch_issued 0
Core_0_LLC_prefetch_useful 0
Core_0_LLC_prefetch_useless 0
Core_0_LLC_prefetch_late 0
Core_0_LLC_prefetch_accuracy 0
Core_0_LLC_prefetch_coverage 0

[DRAM Statistics]
Channel_0_RQ_row_buffer_hit 32209
Channel_0_RQ_row_buffer_miss 592950
Channel_0_WQ_row_buffer_hit 69785
Channel_0_WQ_row_buffer_miss 313493
Channel_0_WQ_full 6894
Channel_0_dbus_congested 3265952
DRAM_total_RQ_row_buffer_hit 32209
DRAM_total_RQ_row_buffer_miss 592950
DRAM_total_WQ_row_buffer_hit 69785
DRAM_total_WQ_row_buffer_miss 313493
DRAM_total_WQ_full 6894
DRAM_total_dbus_congested 3265952
DRAM_avg_congested_cycle 7.72031

======STLB miss causes ========
Core_0_STLB_miss_cause_breakdown
Core_0_STLB_cause_Demand_Data_miss 3975
Core_0_STLB_cause_Demand_Data_miss_rate 0.169372
Core_0_STLB_cause_Demand_Instruction_miss 0
Core_0_STLB_cause_Demand_Instruction_miss_rate 0
Core_0_STLB_cause_L1D_Prefetch_miss 0
Core_0_STLB_cause_L1D_Prefetch_miss_rate 0
Core_0_STLB_cause_L1I_Prefetch_miss 0
Core_0_STLB_cause_L1I_Prefetch_miss_rate 0
Core_0_STLB_cause_Other_miss 0
Core_0_STLB_cause_Other_miss_rate 0
Core_0_STLB_Demand_miss 3975
Core_0_STLB_Demand_miss_rate 0.169372
Core_0_STLB_L1D_Prefetch_miss 0
Core_0_STLB_L1D_Prefetch_miss_rate 0
Core_0_STLB_Other_miss 0
Core_0_STLB_Other_miss_rate 0
