[VMEM] WARNING: physical memory size is smaller than virtual memory size.

*** ChampSim Multicore Out-of-Order Simulator ***
Warmup Instructions: 20000000
Simulation Instructions: 50000000
Number of CPUs: 1
Page size: 4096
Core 0: /data0/tzh/champsim_traces/PARSEC/parsec_2.1.facesim.simlarge.prebuilt.drop_4750M.length_250M.champsimtrace.xz
Off-chip DRAM Size: 16 GiB Channels: 1 Width: 64-bit Data Rate: 3205 MT/s
Warmup halting CPU 0 at instruction 20000002 cycle 4258581 for remainder of phase
Warmup finished CPU 0 instructions: 20000002 cycles: 4258581 cumulative IPC: 4.696 (Simulation time: 00 hr 00 min 45 sec)
Warmup complete CPU 0 instructions: 20000002 cycles: 4258581 cumulative IPC: 4.696 (Simulation time: 00 hr 00 min 45 sec)
Simulation finished CPU 0 instructions: 50000002 cycles: 32502994 cumulative IPC: 1.538 (Simulation time: 00 hr 03 min 44 sec)
Simulation complete CPU 0 instructions: 50000002 cycles: 32502994 cumulative IPC: 1.538 (Simulation time: 00 hr 03 min 44 sec)

ChampSim completed all CPUs

=== Simulation ===
CPU 0 runs /data0/tzh/champsim_traces/PARSEC/parsec_2.1.facesim.simlarge.prebuilt.drop_4750M.length_250M.champsimtrace.xz

Region of Interest Statistics

CPU 0 cumulative IPC: 1.538 instructions: 50000002 cycles: 32502994
CPU 0 Branch Prediction Accuracy: 96.03% MPKI: 9.791 Average ROB Occupancy at Mispredict: 38.55
Branch type MPKI
BRANCH_DIRECT_JUMP: 4e-05
BRANCH_INDIRECT: 0
BRANCH_CONDITIONAL: 9.791
BRANCH_DIRECT_CALL: 0
BRANCH_INDIRECT_CALL: 0
BRANCH_RETURN: 0

cpu0->cpu0_STLB TOTAL        ACCESS:      14571 HIT:      10811 MISS:       3760 MSHR_MERGE:          0
cpu0->cpu0_STLB LOAD         ACCESS:      14571 HIT:      10811 MISS:       3760 MSHR_MERGE:          0
cpu0->cpu0_STLB RFO          ACCESS:          0 HIT:          0 MISS:          0 MSHR_MERGE:          0
cpu0->cpu0_STLB PREFETCH     ACCESS:          0 HIT:          0 MISS:          0 MSHR_MERGE:          0
cpu0->cpu0_STLB WRITE        ACCESS:          0 HIT:          0 MISS:          0 MSHR_MERGE:          0
cpu0->cpu0_STLB TRANSLATION  ACCESS:          0 HIT:          0 MISS:          0 MSHR_MERGE:          0
cpu0->cpu0_STLB PREFETCH REQUESTED:          0 ISSUED:          0 USEFUL:          0 USELESS:          0 LATE:          0
cpu0->cpu0_STLB AVERAGE MISS LATENCY: 108.7 cycles
cpu0->cpu0_L2C TOTAL        ACCESS:      54762 HIT:       9660 MISS:      45102 MSHR_MERGE:          0
cpu0->cpu0_L2C LOAD         ACCESS:      50242 HIT:       7137 MISS:      43105 MSHR_MERGE:          0
cpu0->cpu0_L2C RFO          ACCESS:        765 HIT:         13 MISS:        752 MSHR_MERGE:          0
cpu0->cpu0_L2C PREFETCH     ACCESS:          0 HIT:          0 MISS:          0 MSHR_MERGE:          0
cpu0->cpu0_L2C WRITE        ACCESS:        765 HIT:        759 MISS:          6 MSHR_MERGE:          0
cpu0->cpu0_L2C TRANSLATION  ACCESS:       2990 HIT:       1751 MISS:       1239 MSHR_MERGE:          0
cpu0->cpu0_L2C PREFETCH REQUESTED:          0 ISSUED:          0 USEFUL:          0 USELESS:          0 LATE:          0
cpu0->cpu0_L2C AVERAGE MISS LATENCY: 165.9 cycles
cpu0->cpu0_L1I TOTAL        ACCESS:    2163231 HIT:    2163231 MISS:          0 MSHR_MERGE:          0
cpu0->cpu0_L1I LOAD         ACCESS:    2163231 HIT:    2163231 MISS:          0 MSHR_MERGE:          0
cpu0->cpu0_L1I RFO          ACCESS:          0 HIT:          0 MISS:          0 MSHR_MERGE:          0
cpu0->cpu0_L1I PREFETCH     ACCESS:          0 HIT:          0 MISS:          0 MSHR_MERGE:          0
cpu0->cpu0_L1I WRITE        ACCESS:          0 HIT:          0 MISS:          0 MSHR_MERGE:          0
cpu0->cpu0_L1I TRANSLATION  ACCESS:          0 HIT:          0 MISS:          0 MSHR_MERGE:          0
cpu0->cpu0_L1I PREFETCH REQUESTED:          0 ISSUED:          0 USEFUL:          0 USELESS:          0 LATE:          0
cpu0->cpu0_L1I AVERAGE MISS LATENCY: - cycles
cpu0->cpu0_L1D TOTAL        ACCESS:    6715605 HIT:    6579537 MISS:     136068 MSHR_MERGE:      82071
cpu0->cpu0_L1D LOAD         ACCESS:    6554808 HIT:    6423300 MISS:     131508 MSHR_MERGE:      81266
cpu0->cpu0_L1D RFO          ACCESS:          0 HIT:          0 MISS:          0 MSHR_MERGE:          0
cpu0->cpu0_L1D PREFETCH     ACCESS:          0 HIT:          0 MISS:          0 MSHR_MERGE:          0
cpu0->cpu0_L1D WRITE        ACCESS:     153282 HIT:     151716 MISS:       1566 MSHR_MERGE:        801
cpu0->cpu0_L1D TRANSLATION  ACCESS:       7515 HIT:       4521 MISS:       2994 MSHR_MERGE:          4
cpu0->cpu0_L1D PREFETCH REQUESTED:          0 ISSUED:          0 USEFUL:          0 USELESS:          0 LATE:          0
cpu0->cpu0_L1D AVERAGE MISS LATENCY: 147.4 cycles
cpu0->cpu0_ITLB TOTAL        ACCESS:    1818470 HIT:    1818470 MISS:          0 MSHR_MERGE:          0
cpu0->cpu0_ITLB LOAD         ACCESS:    1818470 HIT:    1818470 MISS:          0 MSHR_MERGE:          0
cpu0->cpu0_ITLB RFO          ACCESS:          0 HIT:          0 MISS:          0 MSHR_MERGE:          0
cpu0->cpu0_ITLB PREFETCH     ACCESS:          0 HIT:          0 MISS:          0 MSHR_MERGE:          0
cpu0->cpu0_ITLB WRITE        ACCESS:          0 HIT:          0 MISS:          0 MSHR_MERGE:          0
cpu0->cpu0_ITLB TRANSLATION  ACCESS:          0 HIT:          0 MISS:          0 MSHR_MERGE:          0
cpu0->cpu0_ITLB PREFETCH REQUESTED:          0 ISSUED:          0 USEFUL:          0 USELESS:          0 LATE:          0
cpu0->cpu0_ITLB AVERAGE MISS LATENCY: - cycles
cpu0->cpu0_DTLB TOTAL        ACCESS:    6684809 HIT:    6652095 MISS:      32714 MSHR_MERGE:      18143
cpu0->cpu0_DTLB LOAD         ACCESS:    6684809 HIT:    6652095 MISS:      32714 MSHR_MERGE:      18143
cpu0->cpu0_DTLB RFO          ACCESS:          0 HIT:          0 MISS:          0 MSHR_MERGE:          0
cpu0->cpu0_DTLB PREFETCH     ACCESS:          0 HIT:          0 MISS:          0 MSHR_MERGE:          0
cpu0->cpu0_DTLB WRITE        ACCESS:          0 HIT:          0 MISS:          0 MSHR_MERGE:          0
cpu0->cpu0_DTLB TRANSLATION  ACCESS:          0 HIT:          0 MISS:          0 MSHR_MERGE:          0
cpu0->cpu0_DTLB PREFETCH REQUESTED:          0 ISSUED:          0 USEFUL:          0 USELESS:          0 LATE:          0
cpu0->cpu0_DTLB AVERAGE MISS LATENCY: 33.31 cycles
cpu0->LLC TOTAL        ACCESS:      45885 HIT:       5771 MISS:      40114 MSHR_MERGE:          0
cpu0->LLC LOAD         ACCESS:      43105 HIT:       4144 MISS:      38961 MSHR_MERGE:          0
cpu0->LLC RFO          ACCESS:        752 HIT:          0 MISS:        752 MSHR_MERGE:          0
cpu0->LLC PREFETCH     ACCESS:          0 HIT:          0 MISS:          0 MSHR_MERGE:          0
cpu0->LLC WRITE        ACCESS:        789 HIT:        520 MISS:        269 MSHR_MERGE:          0
cpu0->LLC TRANSLATION  ACCESS:       1239 HIT:       1107 MISS:        132 MSHR_MERGE:          0
cpu0->LLC PREFETCH REQUESTED:          0 ISSUED:          0 USEFUL:          0 USELESS:          0 LATE:          0
cpu0->LLC AVERAGE MISS LATENCY: 168.7 cycles

DRAM Statistics

Channel 0 RQ ROW_BUFFER_HIT:        159
  ROW_BUFFER_MISS:      39686
  AVG DBUS CONGESTED CYCLE: 3.501
Channel 0 WQ ROW_BUFFER_HIT:         14
  ROW_BUFFER_MISS:         60
  FULL:          0
Channel 0 REFRESHES ISSUED:       2709

[ROI Statistics]
[System Configuration]
num_cpus 1
cpu_freq 4000
fetch_width 6
decode_width 6
dispatch_width 6
execute_width 6
lq_width 2
sq_width 2
retire_width 6
scheduler_size 128
branch_mispredict_penalty 15
rob_size 352
lq_size 128
sq_size 72
ifetch_buffer_size 64
decode_buffer_size 32
dispatch_buffer_size 32
register_file_size 288
decode_latency 1
dispatch_latency 1
schedule_latency 1
execute_latency 1
page_size 4096
block_size 64
core_0_itlb_set 16
core_0_itlb_way 4
core_0_itlb_rq_size 16
core_0_itlb_wq_size 16
core_0_itlb_pq_size 0
core_0_itlb_mshr_size 8
core_0_itlb_hit_latency 1
core_0_itlb_fill_latency 1
core_0_itlb_max_tag_check 2
core_0_itlb_max_fill 2
core_0_dtlb_set 16
core_0_dtlb_way 4
core_0_dtlb_rq_size 16
core_0_dtlb_wq_size 16
core_0_dtlb_pq_size 0
core_0_dtlb_mshr_size 8
core_0_dtlb_hit_latency 1
core_0_dtlb_fill_latency 1
core_0_dtlb_max_tag_check 2
core_0_dtlb_max_fill 2
core_0_stlb_set 128
core_0_stlb_way 12
core_0_stlb_rq_size 32
core_0_stlb_wq_size 32
core_0_stlb_pq_size 0
core_0_stlb_mshr_size 16
core_0_stlb_hit_latency 4
core_0_stlb_fill_latency 4
core_0_stlb_max_tag_check 1
core_0_stlb_max_fill 1
core_0_l1i_set 64
core_0_l1i_way 8
core_0_l1i_rq_size 64
core_0_l1i_wq_size 64
core_0_l1i_pq_size 32
core_0_l1i_mshr_size 8
core_0_l1i_hit_latency 2
core_0_l1i_fill_latency 2
core_0_l1i_max_tag_check 2
core_0_l1i_max_fill 2
core_0_l1d_set 64
core_0_l1d_way 12
core_0_l1d_rq_size 64
core_0_l1d_wq_size 64
core_0_l1d_pq_size 8
core_0_l1d_mshr_size 16
core_0_l1d_hit_latency 2
core_0_l1d_fill_latency 3
core_0_l1d_max_tag_check 2
core_0_l1d_max_fill 2
core_0_l2c_set 1024
core_0_l2c_way 8
core_0_l2c_rq_size 32
core_0_l2c_wq_size 32
core_0_l2c_pq_size 16
core_0_l2c_mshr_size 32
core_0_l2c_hit_latency 5
core_0_l2c_fill_latency 5
core_0_l2c_max_tag_check 1
core_0_l2c_max_fill 1
llc_set 2048
llc_way 16
llc_rq_size 32
llc_wq_size 32
llc_pq_size 32
llc_mshr_size 64
llc_hit_latency 10
llc_fill_latency 10
llc_max_tag_check 1
llc_max_fill 1
dram_channels 1
dram_ranks 1
dram_bankgroups 8
dram_banks 4
dram_rows 65536
dram_columns 1024
dram_channel_width 8
dram_rq_size 64
dram_wq_size 64
dram_size 17179869184
core_0_itlb_prefetcher no
core_0_dtlb_prefetcher no
core_0_stlb_prefetcher no
core_0_l1i_prefetcher no
core_0_l1d_prefetcher no
core_0_l2c_prefetcher no
llc_prefetcher no
llc_replacement drrip

Core_0_instructions 50000002
Core_0_cycles 32502994
Core_0_IPC 1.53832
Core_0_branch_prediction_accuracy 96.0345
Core_0_branch_MPKI 9.7913
Core_0_average_ROB_occupancy_at_mispredict 38.5462

Core_0_ITLB_total_access 1818470
Core_0_ITLB_total_hit 1818470
Core_0_ITLB_total_miss 0
Core_0_ITLB_total_MPKI 0
Core_0_ITLB_total_miss_rate 0
Core_0_ITLB_demand_access 1818470
Core_0_ITLB_demand_hit 1818470
Core_0_ITLB_demand_miss 0
Core_0_ITLB_demand_MPKI 0
Core_0_ITLB_demand_miss_rate 0
Core_0_ITLB_load_access 1818470
Core_0_ITLB_load_hit 1818470
Core_0_ITLB_load_miss 0
Core_0_ITLB_load_MPKI 0
Core_0_ITLB_load_miss_rate 0
Core_0_ITLB_rfo_access 0
Core_0_ITLB_rfo_hit 0
Core_0_ITLB_rfo_miss 0
Core_0_ITLB_rfo_MPKI 0
Core_0_ITLB_rfo_miss_rate 0
Core_0_ITLB_prefetch_access 0
Core_0_ITLB_prefetch_hit 0
Core_0_ITLB_prefetch_miss 0
Core_0_ITLB_prefetch_MPKI 0
Core_0_ITLB_prefetch_miss_rate 0
Core_0_ITLB_writeback_access 0
Core_0_ITLB_writeback_hit 0
Core_0_ITLB_writeback_miss 0
Core_0_ITLB_writeback_MPKI 0
Core_0_ITLB_writeback_miss_rate 0
Core_0_ITLB_prefetch_requested 0
Core_0_ITLB_prefetch_issued 0
Core_0_ITLB_prefetch_useful 0
Core_0_ITLB_prefetch_useless 0
Core_0_ITLB_prefetch_late 0
Core_0_ITLB_prefetch_accuracy 0
Core_0_ITLB_prefetch_coverage 0

Core_0_DTLB_total_access 6684809
Core_0_DTLB_total_hit 6652095
Core_0_DTLB_total_miss 32714
Core_0_DTLB_total_MPKI 0.65428
Core_0_DTLB_total_miss_rate 0.00489378
Core_0_DTLB_demand_access 6684809
Core_0_DTLB_demand_hit 6652095
Core_0_DTLB_demand_miss 32714
Core_0_DTLB_demand_MPKI 0.65428
Core_0_DTLB_demand_miss_rate 0.00489378
Core_0_DTLB_load_access 6684809
Core_0_DTLB_load_hit 6652095
Core_0_DTLB_load_miss 32714
Core_0_DTLB_load_MPKI 0.65428
Core_0_DTLB_load_miss_rate 0.00489378
Core_0_DTLB_rfo_access 0
Core_0_DTLB_rfo_hit 0
Core_0_DTLB_rfo_miss 0
Core_0_DTLB_rfo_MPKI 0
Core_0_DTLB_rfo_miss_rate 0
Core_0_DTLB_prefetch_access 0
Core_0_DTLB_prefetch_hit 0
Core_0_DTLB_prefetch_miss 0
Core_0_DTLB_prefetch_MPKI 0
Core_0_DTLB_prefetch_miss_rate 0
Core_0_DTLB_writeback_access 0
Core_0_DTLB_writeback_hit 0
Core_0_DTLB_writeback_miss 0
Core_0_DTLB_writeback_MPKI 0
Core_0_DTLB_writeback_miss_rate 0
Core_0_DTLB_prefetch_requested 0
Core_0_DTLB_prefetch_issued 0
Core_0_DTLB_prefetch_useful 0
Core_0_DTLB_prefetch_useless 0
Core_0_DTLB_prefetch_late 0
Core_0_DTLB_prefetch_accuracy 0
Core_0_DTLB_prefetch_coverage 0

Core_0_STLB_total_access 14571
Core_0_STLB_total_hit 10811
Core_0_STLB_total_miss 3760
Core_0_STLB_total_MPKI 0.0752
Core_0_STLB_total_miss_rate 0.258047
Core_0_STLB_demand_access 14571
Core_0_STLB_demand_hit 10811
Core_0_STLB_demand_miss 3760
Core_0_STLB_demand_MPKI 0.0752
Core_0_STLB_demand_miss_rate 0.258047
Core_0_STLB_load_access 14571
Core_0_STLB_load_hit 10811
Core_0_STLB_load_miss 3760
Core_0_STLB_load_MPKI 0.0752
Core_0_STLB_load_miss_rate 0.258047
Core_0_STLB_rfo_access 0
Core_0_STLB_rfo_hit 0
Core_0_STLB_rfo_miss 0
Core_0_STLB_rfo_MPKI 0
Core_0_STLB_rfo_miss_rate 0
Core_0_STLB_prefetch_access 0
Core_0_STLB_prefetch_hit 0
Core_0_STLB_prefetch_miss 0
Core_0_STLB_prefetch_MPKI 0
Core_0_STLB_prefetch_miss_rate 0
Core_0_STLB_writeback_access 0
Core_0_STLB_writeback_hit 0
Core_0_STLB_writeback_miss 0
Core_0_STLB_writeback_MPKI 0
Core_0_STLB_writeback_miss_rate 0
Core_0_STLB_prefetch_requested 0
Core_0_STLB_prefetch_issued 0
Core_0_STLB_prefetch_useful 0
Core_0_STLB_prefetch_useless 0
Core_0_STLB_prefetch_late 0
Core_0_STLB_prefetch_accuracy 0
Core_0_STLB_prefetch_coverage 0

Core_0_L1I_total_access 2163231
Core_0_L1I_total_hit 2163231
Core_0_L1I_total_miss 0
Core_0_L1I_total_MPKI 0
Core_0_L1I_total_miss_rate 0
Core_0_L1I_demand_access 2163231
Core_0_L1I_demand_hit 2163231
Core_0_L1I_demand_miss 0
Core_0_L1I_demand_MPKI 0
Core_0_L1I_demand_miss_rate 0
Core_0_L1I_load_access 2163231
Core_0_L1I_load_hit 2163231
Core_0_L1I_load_miss 0
Core_0_L1I_load_MPKI 0
Core_0_L1I_load_miss_rate 0
Core_0_L1I_rfo_access 0
Core_0_L1I_rfo_hit 0
Core_0_L1I_rfo_miss 0
Core_0_L1I_rfo_MPKI 0
Core_0_L1I_rfo_miss_rate 0
Core_0_L1I_prefetch_access 0
Core_0_L1I_prefetch_hit 0
Core_0_L1I_prefetch_miss 0
Core_0_L1I_prefetch_MPKI 0
Core_0_L1I_prefetch_miss_rate 0
Core_0_L1I_writeback_access 0
Core_0_L1I_writeback_hit 0
Core_0_L1I_writeback_miss 0
Core_0_L1I_writeback_MPKI 0
Core_0_L1I_writeback_miss_rate 0
Core_0_L1I_prefetch_requested 0
Core_0_L1I_prefetch_issued 0
Core_0_L1I_prefetch_useful 0
Core_0_L1I_prefetch_useless 0
Core_0_L1I_prefetch_late 0
Core_0_L1I_prefetch_accuracy 0
Core_0_L1I_prefetch_coverage 0

Core_0_L1D_total_access 6708090
Core_0_L1D_total_hit 6575016
Core_0_L1D_total_miss 133074
Core_0_L1D_total_MPKI 2.66148
Core_0_L1D_total_miss_rate 0.0198378
Core_0_L1D_demand_access 6554808
Core_0_L1D_demand_hit 6423300
Core_0_L1D_demand_miss 131508
Core_0_L1D_demand_MPKI 2.63016
Core_0_L1D_demand_miss_rate 0.0200628
Core_0_L1D_load_access 6554808
Core_0_L1D_load_hit 6423300
Core_0_L1D_load_miss 131508
Core_0_L1D_load_MPKI 2.63016
Core_0_L1D_load_miss_rate 0.0200628
Core_0_L1D_rfo_access 0
Core_0_L1D_rfo_hit 0
Core_0_L1D_rfo_miss 0
Core_0_L1D_rfo_MPKI 0
Core_0_L1D_rfo_miss_rate 0
Core_0_L1D_prefetch_access 0
Core_0_L1D_prefetch_hit 0
Core_0_L1D_prefetch_miss 0
Core_0_L1D_prefetch_MPKI 0
Core_0_L1D_prefetch_miss_rate 0
Core_0_L1D_writeback_access 153282
Core_0_L1D_writeback_hit 151716
Core_0_L1D_writeback_miss 1566
Core_0_L1D_writeback_MPKI 0.03132
Core_0_L1D_writeback_miss_rate 0.0102165
Core_0_L1D_prefetch_requested 0
Core_0_L1D_prefetch_issued 0
Core_0_L1D_prefetch_useful 0
Core_0_L1D_prefetch_useless 0
Core_0_L1D_prefetch_late 0
Core_0_L1D_prefetch_accuracy 0
Core_0_L1D_prefetch_coverage 0

Core_0_L2C_total_access 51772
Core_0_L2C_total_hit 7909
Core_0_L2C_total_miss 43863
Core_0_L2C_total_MPKI 0.87726
Core_0_L2C_total_miss_rate 0.847234
Core_0_L2C_demand_access 51007
Core_0_L2C_demand_hit 7150
Core_0_L2C_demand_miss 43857
Core_0_L2C_demand_MPKI 0.87714
Core_0_L2C_demand_miss_rate 0.859823
Core_0_L2C_load_access 50242
Core_0_L2C_load_hit 7137
Core_0_L2C_load_miss 43105
Core_0_L2C_load_MPKI 0.8621
Core_0_L2C_load_miss_rate 0.857948
Core_0_L2C_rfo_access 765
Core_0_L2C_rfo_hit 13
Core_0_L2C_rfo_miss 752
Core_0_L2C_rfo_MPKI 0.01504
Core_0_L2C_rfo_miss_rate 0.983007
Core_0_L2C_prefetch_access 0
Core_0_L2C_prefetch_hit 0
Core_0_L2C_prefetch_miss 0
Core_0_L2C_prefetch_MPKI 0
Core_0_L2C_prefetch_miss_rate 0
Core_0_L2C_writeback_access 765
Core_0_L2C_writeback_hit 759
Core_0_L2C_writeback_miss 6
Core_0_L2C_writeback_MPKI 0.00012
Core_0_L2C_writeback_miss_rate 0.00784314
Core_0_L2C_prefetch_requested 0
Core_0_L2C_prefetch_issued 0
Core_0_L2C_prefetch_useful 0
Core_0_L2C_prefetch_useless 0
Core_0_L2C_prefetch_late 0
Core_0_L2C_prefetch_accuracy 0
Core_0_L2C_prefetch_coverage 0

Core_0_LLC_total_access 44646
Core_0_LLC_total_hit 4664
Core_0_LLC_total_miss 39982
Core_0_LLC_total_MPKI 0.79964
Core_0_LLC_total_miss_rate 0.895534
Core_0_LLC_demand_access 43857
Core_0_LLC_demand_hit 4144
Core_0_LLC_demand_miss 39713
Core_0_LLC_demand_MPKI 0.79426
Core_0_LLC_demand_miss_rate 0.905511
Core_0_LLC_load_access 43105
Core_0_LLC_load_hit 4144
Core_0_LLC_load_miss 38961
Core_0_LLC_load_MPKI 0.77922
Core_0_LLC_load_miss_rate 0.903863
Core_0_LLC_rfo_access 752
Core_0_LLC_rfo_hit 0
Core_0_LLC_rfo_miss 752
Core_0_LLC_rfo_MPKI 0.01504
Core_0_LLC_rfo_miss_rate 1
Core_0_LLC_prefetch_access 0
Core_0_LLC_prefetch_hit 0
Core_0_LLC_prefetch_miss 0
Core_0_LLC_prefetch_MPKI 0
Core_0_LLC_prefetch_miss_rate 0
Core_0_LLC_writeback_access 789
Core_0_LLC_writeback_hit 520
Core_0_LLC_writeback_miss 269
Core_0_LLC_writeback_MPKI 0.00538
Core_0_LLC_writeback_miss_rate 0.340938
Core_0_LLC_prefetch_requested 0
Core_0_LLC_prefetch_issued 0
Core_0_LLC_prefetch_useful 0
Core_0_LLC_prefetch_useless 0
Core_0_LLC_prefetch_late 0
Core_0_LLC_prefetch_accuracy 0
Core_0_LLC_prefetch_coverage 0

[DRAM Statistics]
Channel_0_RQ_row_buffer_hit 159
Channel_0_RQ_row_buffer_miss 39686
Channel_0_WQ_row_buffer_hit 14
Channel_0_WQ_row_buffer_miss 60
Channel_0_WQ_full 0
Channel_0_dbus_congested 19282
DRAM_total_RQ_row_buffer_hit 159
DRAM_total_RQ_row_buffer_miss 39686
DRAM_total_WQ_row_buffer_hit 14
DRAM_total_WQ_row_buffer_miss 60
DRAM_total_WQ_full 0
DRAM_total_dbus_congested 19282
DRAM_avg_congested_cycle 3.50124

====== DRAM_RQ_TRAFFIC ========
DRAM_RQ_READ_TRAFFIC_BREAKDOWN:
data_demand_read.count = 39713
data_demand_read.share = 99.67%

inst_demand_read.count = 0
inst_demand_read.share = 0.00%

cache_inst_prefetch.count = 0
cache_inst_prefetch.share = 0.00%

cache_data_prefetch.count = 0
cache_data_prefetch.share = 0.00%

stlb_data_demand.count = 132
stlb_data_demand.share = 0.33%

stlb_inst_demand.count = 0
stlb_inst_demand.share = 0.00%

stlb_l1i_pref.count = 0
stlb_l1i_pref.share = 0.00%

stlb_l1d_pref.count = 0
stlb_l1d_pref.share = 0.00%

DRAM_RQ_READ_TRAFFIC_SUMMARY:
cache_demand.count = 39713
cache_demand.share = 99.67%

cache_prefetch.count = 0
cache_prefetch.share = 0.00%

stlb_demand.count = 132
stlb_demand.share = 0.33%

stlb_prefetch.count = 0
stlb_prefetch.share = 0.00%

DRAM_RQ_READ_TRAFFIC_DEBUG:
total_classified_read.count = 39845
unclassified_read.count = 0
total_read_with_other.count = 39845

classified_plus_unclassified_check.count = 39845
dram_rq_read_total_observed.count = 39845
dram_rq_read_total_observed.per_1K_instructions = 0.7969

STLB_MISS_PTW_DRAM_TOUCH_BREAKDOWN:
stlb_miss_total.count = 3760

stlb_miss_touch_dram.count = 132
stlb_miss_touch_dram.share = 3.51%

stlb_miss_no_dram_touch.count = 3628
stlb_miss_no_dram_touch.share = 96.49%

STLB_MISS_PTW_DRAM_TOUCH_DEBUG:
stlb_miss_touch_plus_no_touch.count = 3760
stlb_miss_total_check.count = 3760

======STLB miss causes ========
Core_0_STLB_miss_cause_breakdown
Core_0_STLB_cause_Demand_Data_miss 3760
Core_0_STLB_cause_Demand_Data_miss_rate 0.258047
Core_0_STLB_cause_Demand_Instruction_miss 0
Core_0_STLB_cause_Demand_Instruction_miss_rate 0
Core_0_STLB_cause_L1D_Prefetch_miss 0
Core_0_STLB_cause_L1D_Prefetch_miss_rate 0
Core_0_STLB_cause_L1I_Prefetch_miss 0
Core_0_STLB_cause_L1I_Prefetch_miss_rate 0
Core_0_STLB_cause_Other_miss 0
Core_0_STLB_cause_Other_miss_rate 0
Core_0_STLB_Demand_miss 3760
Core_0_STLB_Demand_miss_rate 0.258047
Core_0_STLB_L1D_Prefetch_miss 0
Core_0_STLB_L1D_Prefetch_miss_rate 0
Core_0_STLB_Other_miss 0
Core_0_STLB_Other_miss_rate 0
