[VMEM] WARNING: physical memory size is smaller than virtual memory size.

*** ChampSim Multicore Out-of-Order Simulator ***
Warmup Instructions: 20000000
Simulation Instructions: 50000000
Number of CPUs: 1
Page size: 4096
Core 0: /data2/zcq/champsim_traces_gap/pr.twitter-3197B.champsimtrace.xz
Off-chip DRAM Size: 16 GiB Channels: 1 Width: 64-bit Data Rate: 3205 MT/s
Warmup halting CPU 0 at instruction 20000003 cycle 11293512 for remainder of phase
Warmup finished CPU 0 instructions: 20000003 cycles: 11293512 cumulative IPC: 1.771 (Simulation time: 00 hr 02 min 41 sec)
Warmup complete CPU 0 instructions: 20000003 cycles: 11293512 cumulative IPC: 1.771 (Simulation time: 00 hr 02 min 41 sec)
Simulation CPU 0 warning: IPC 0.027953 < 0.05
Simulation CPU 0 warning: IPC 0.028211 < 0.05
Simulation CPU 0 warning: IPC 0.029783 < 0.05
Simulation CPU 0 warning: IPC 0.027747 < 0.05
Simulation CPU 0 warning: IPC 0.029241 < 0.05
Simulation CPU 0 warning: IPC 0.029946 < 0.05
Simulation CPU 0 warning: IPC 0.02815 < 0.05
Simulation CPU 0 warning: IPC 0.029032 < 0.05
Simulation CPU 0 warning: IPC 0.030404 < 0.05
Simulation CPU 0 warning: IPC 0.029362 < 0.05
Simulation CPU 0 warning: IPC 0.031321 < 0.05
Simulation CPU 0 warning: IPC 0.036884 < 0.05
Simulation CPU 0 warning: IPC 0.031037 < 0.05
Simulation CPU 0 warning: IPC 0.030102 < 0.05
Simulation CPU 0 warning: IPC 0.025407 < 0.05
Simulation CPU 0 warning: IPC 0.030725 < 0.05
Simulation CPU 0 warning: IPC 0.028395 < 0.05
Simulation CPU 0 warning: IPC 0.026448 < 0.05
Simulation CPU 0 warning: IPC 0.028912 < 0.05
Simulation CPU 0 warning: IPC 0.028209 < 0.05
Simulation CPU 0 warning: IPC 0.027276 < 0.05
Simulation CPU 0 warning: IPC 0.030083 < 0.05
Simulation CPU 0 warning: IPC 0.02661 < 0.05
Simulation CPU 0 warning: IPC 0.030945 < 0.05
Simulation CPU 0 warning: IPC 0.030137 < 0.05
Simulation CPU 0 warning: IPC 0.030517 < 0.05
Simulation CPU 0 warning: IPC 0.028816 < 0.05
Simulation CPU 0 warning: IPC 0.030113 < 0.05
Simulation CPU 0 warning: IPC 0.027752 < 0.05
Simulation CPU 0 warning: IPC 0.027866 < 0.05
Simulation CPU 0 warning: IPC 0.031124 < 0.05
Simulation CPU 0 warning: IPC 0.030547 < 0.05
Simulation CPU 0 warning: IPC 0.02928 < 0.05
Simulation CPU 0 warning: IPC 0.029391 < 0.05
Simulation CPU 0 warning: IPC 0.030762 < 0.05
Simulation CPU 0 warning: IPC 0.029375 < 0.05
Simulation CPU 0 warning: IPC 0.030006 < 0.05
Simulation CPU 0 warning: IPC 0.031798 < 0.05
Simulation CPU 0 warning: IPC 0.031454 < 0.05
Simulation CPU 0 warning: IPC 0.031112 < 0.05
Simulation CPU 0 warning: IPC 0.027883 < 0.05
Simulation CPU 0 warning: IPC 0.030487 < 0.05
Simulation CPU 0 warning: IPC 0.028293 < 0.05
Simulation CPU 0 warning: IPC 0.030671 < 0.05
Simulation CPU 0 warning: IPC 0.030301 < 0.05
Simulation CPU 0 warning: IPC 0.029879 < 0.05
Simulation CPU 0 warning: IPC 0.030521 < 0.05
Simulation CPU 0 warning: IPC 0.026407 < 0.05
Simulation CPU 0 warning: IPC 0.032091 < 0.05
Simulation CPU 0 warning: IPC 0.027661 < 0.05
Simulation CPU 0 warning: IPC 0.030197 < 0.05
Simulation CPU 0 warning: IPC 0.028439 < 0.05
Simulation CPU 0 warning: IPC 0.02762 < 0.05
Simulation CPU 0 warning: IPC 0.029359 < 0.05
Simulation CPU 0 warning: IPC 0.030174 < 0.05
Simulation CPU 0 warning: IPC 0.033158 < 0.05
Simulation CPU 0 warning: IPC 0.028361 < 0.05
Simulation CPU 0 warning: IPC 0.029935 < 0.05
Simulation CPU 0 warning: IPC 0.030938 < 0.05
Simulation CPU 0 warning: IPC 0.030052 < 0.05
Simulation CPU 0 warning: IPC 0.0324 < 0.05
Simulation CPU 0 warning: IPC 0.02865 < 0.05
Simulation CPU 0 warning: IPC 0.02693 < 0.05
Simulation CPU 0 warning: IPC 0.029146 < 0.05
Simulation CPU 0 warning: IPC 0.029616 < 0.05
Simulation CPU 0 warning: IPC 0.029887 < 0.05
Simulation CPU 0 warning: IPC 0.0278 < 0.05
Simulation CPU 0 warning: IPC 0.029259 < 0.05
Simulation CPU 0 warning: IPC 0.031144 < 0.05
Simulation CPU 0 warning: IPC 0.03043 < 0.05
Simulation CPU 0 warning: IPC 0.033779 < 0.05
Simulation CPU 0 warning: IPC 0.029879 < 0.05
Simulation CPU 0 warning: IPC 0.031799 < 0.05
Simulation CPU 0 warning: IPC 0.032149 < 0.05
Simulation CPU 0 warning: IPC 0.027379 < 0.05
Simulation CPU 0 warning: IPC 0.032028 < 0.05
Simulation CPU 0 warning: IPC 0.031847 < 0.05
Simulation CPU 0 warning: IPC 0.032295 < 0.05
Simulation CPU 0 warning: IPC 0.029712 < 0.05
Simulation CPU 0 warning: IPC 0.031584 < 0.05
Simulation CPU 0 warning: IPC 0.029396 < 0.05
Simulation CPU 0 warning: IPC 0.031792 < 0.05
Simulation CPU 0 warning: IPC 0.031926 < 0.05
Simulation CPU 0 warning: IPC 0.032462 < 0.05
Simulation CPU 0 warning: IPC 0.029056 < 0.05
Simulation CPU 0 warning: IPC 0.024509 < 0.05
Simulation CPU 0 warning: IPC 0.029912 < 0.05
Simulation CPU 0 warning: IPC 0.031712 < 0.05
Simulation CPU 0 warning: IPC 0.029955 < 0.05
Simulation CPU 0 warning: IPC 0.032818 < 0.05
Simulation CPU 0 warning: IPC 0.03106 < 0.05
Simulation CPU 0 warning: IPC 0.031373 < 0.05
Simulation CPU 0 warning: IPC 0.03391 < 0.05
Simulation CPU 0 warning: IPC 0.032405 < 0.05
Simulation CPU 0 warning: IPC 0.034369 < 0.05
Simulation CPU 0 warning: IPC 0.033521 < 0.05
Simulation CPU 0 warning: IPC 0.032426 < 0.05
Simulation CPU 0 warning: IPC 0.034214 < 0.05
Simulation CPU 0 warning: IPC 0.031899 < 0.05
Simulation CPU 0 warning: IPC 0.02872 < 0.05
Simulation CPU 0 warning: IPC 0.031192 < 0.05
Simulation CPU 0 warning: IPC 0.03301 < 0.05
Simulation CPU 0 warning: IPC 0.034042 < 0.05
Simulation CPU 0 warning: IPC 0.034821 < 0.05
Simulation CPU 0 warning: IPC 0.0337 < 0.05
Simulation CPU 0 warning: IPC 0.027874 < 0.05
Simulation CPU 0 warning: IPC 0.030108 < 0.05
Simulation CPU 0 warning: IPC 0.031673 < 0.05
Simulation CPU 0 warning: IPC 0.032566 < 0.05
Simulation CPU 0 warning: IPC 0.03352 < 0.05
Simulation CPU 0 warning: IPC 0.030228 < 0.05
Simulation CPU 0 warning: IPC 0.027655 < 0.05
Simulation CPU 0 warning: IPC 0.030151 < 0.05
Simulation CPU 0 warning: IPC 0.028535 < 0.05
Simulation CPU 0 warning: IPC 0.030711 < 0.05
Simulation CPU 0 warning: IPC 0.027446 < 0.05
Simulation CPU 0 warning: IPC 0.026591 < 0.05
Simulation CPU 0 warning: IPC 0.030307 < 0.05
Simulation CPU 0 warning: IPC 0.028239 < 0.05
Simulation CPU 0 warning: IPC 0.029564 < 0.05
Simulation CPU 0 warning: IPC 0.031568 < 0.05
Simulation CPU 0 warning: IPC 0.030149 < 0.05
Simulation CPU 0 warning: IPC 0.027988 < 0.05
Simulation CPU 0 warning: IPC 0.02975 < 0.05
Simulation CPU 0 warning: IPC 0.0296 < 0.05
Simulation CPU 0 warning: IPC 0.031377 < 0.05
Simulation CPU 0 warning: IPC 0.032946 < 0.05
Simulation CPU 0 warning: IPC 0.028923 < 0.05
Simulation CPU 0 warning: IPC 0.027858 < 0.05
Simulation CPU 0 warning: IPC 0.029128 < 0.05
Simulation CPU 0 warning: IPC 0.031505 < 0.05
Simulation CPU 0 warning: IPC 0.030349 < 0.05
Simulation CPU 0 warning: IPC 0.027236 < 0.05
Simulation CPU 0 warning: IPC 0.030452 < 0.05
Simulation CPU 0 warning: IPC 0.030672 < 0.05
Simulation CPU 0 warning: IPC 0.030711 < 0.05
Simulation CPU 0 warning: IPC 0.031015 < 0.05
Simulation CPU 0 warning: IPC 0.034243 < 0.05
Simulation CPU 0 warning: IPC 0.030516 < 0.05
Simulation CPU 0 warning: IPC 0.03754 < 0.05
Simulation CPU 0 warning: IPC 0.034633 < 0.05
Simulation CPU 0 warning: IPC 0.032025 < 0.05
Simulation CPU 0 warning: IPC 0.033383 < 0.05
Simulation CPU 0 warning: IPC 0.031975 < 0.05
Simulation CPU 0 warning: IPC 0.033206 < 0.05
Simulation CPU 0 warning: IPC 0.030628 < 0.05
Simulation CPU 0 warning: IPC 0.031492 < 0.05
Simulation CPU 0 warning: IPC 0.031507 < 0.05
Simulation CPU 0 warning: IPC 0.031153 < 0.05
Simulation CPU 0 warning: IPC 0.02982 < 0.05
Simulation CPU 0 warning: IPC 0.029956 < 0.05
Simulation CPU 0 warning: IPC 0.029968 < 0.05
Simulation CPU 0 warning: IPC 0.031676 < 0.05
Simulation CPU 0 warning: IPC 0.031588 < 0.05
Simulation CPU 0 warning: IPC 0.03222 < 0.05
Simulation CPU 0 warning: IPC 0.029663 < 0.05
Simulation CPU 0 warning: IPC 0.031221 < 0.05
Simulation CPU 0 warning: IPC 0.031056 < 0.05
Simulation CPU 0 warning: IPC 0.030797 < 0.05
Simulation CPU 0 warning: IPC 0.029748 < 0.05
Simulation CPU 0 warning: IPC 0.029352 < 0.05
Simulation CPU 0 warning: IPC 0.035687 < 0.05
Simulation CPU 0 warning: IPC 0.033058 < 0.05
Simulation CPU 0 warning: IPC 0.029554 < 0.05
Simulation finished CPU 0 instructions: 50000001 cycles: 1642648982 cumulative IPC: 0.03044 (Simulation time: 02 hr 08 min 12 sec)
Simulation complete CPU 0 instructions: 50000001 cycles: 1642648982 cumulative IPC: 0.03044 (Simulation time: 02 hr 08 min 12 sec)

ChampSim completed all CPUs

=== Simulation ===
CPU 0 runs /data2/zcq/champsim_traces_gap/pr.twitter-3197B.champsimtrace.xz

Region of Interest Statistics

CPU 0 cumulative IPC: 0.03044 instructions: 50000001 cycles: 1642648982
CPU 0 Branch Prediction Accuracy: 97.65% MPKI: 4.559 Average ROB Occupancy at Mispredict: 259.4
Branch type MPKI
BRANCH_DIRECT_JUMP: 0
BRANCH_INDIRECT: 0
BRANCH_CONDITIONAL: 4.559
BRANCH_DIRECT_CALL: 0
BRANCH_INDIRECT_CALL: 0
BRANCH_RETURN: 0

cpu0->cpu0_STLB TOTAL        ACCESS:    8457555 HIT:    1108695 MISS:    7348860 MSHR_MERGE:          0
cpu0->cpu0_STLB LOAD         ACCESS:    8457555 HIT:    1108695 MISS:    7348860 MSHR_MERGE:          0
cpu0->cpu0_STLB RFO          ACCESS:          0 HIT:          0 MISS:          0 MSHR_MERGE:          0
cpu0->cpu0_STLB PREFETCH     ACCESS:          0 HIT:          0 MISS:          0 MSHR_MERGE:          0
cpu0->cpu0_STLB WRITE        ACCESS:          0 HIT:          0 MISS:          0 MSHR_MERGE:          0
cpu0->cpu0_STLB TRANSLATION  ACCESS:          0 HIT:          0 MISS:          0 MSHR_MERGE:          0
cpu0->cpu0_STLB PREFETCH REQUESTED:          0 ISSUED:          0 USEFUL:          0 USELESS:          0 LATE:          0
cpu0->cpu0_STLB AVERAGE MISS LATENCY: 25.3 cycles
cpu0->cpu0_L2C TOTAL        ACCESS:   15066431 HIT:    3860358 MISS:   11206073 MSHR_MERGE:          0
cpu0->cpu0_L2C LOAD         ACCESS:    9291354 HIT:     763450 MISS:    8527904 MSHR_MERGE:          0
cpu0->cpu0_L2C RFO          ACCESS:       6900 HIT:       6155 MISS:        745 MSHR_MERGE:          0
cpu0->cpu0_L2C PREFETCH     ACCESS:          0 HIT:          0 MISS:          0 MSHR_MERGE:          0
cpu0->cpu0_L2C WRITE        ACCESS:      27427 HIT:      27426 MISS:          1 MSHR_MERGE:          0
cpu0->cpu0_L2C TRANSLATION  ACCESS:    5740750 HIT:    3063327 MISS:    2677423 MSHR_MERGE:          0
cpu0->cpu0_L2C PREFETCH REQUESTED:          0 ISSUED:          0 USEFUL:          0 USELESS:          0 LATE:          0
cpu0->cpu0_L2C AVERAGE MISS LATENCY: 126.1 cycles
cpu0->cpu0_L1I TOTAL        ACCESS:    6578508 HIT:    6578508 MISS:          0 MSHR_MERGE:          0
cpu0->cpu0_L1I LOAD         ACCESS:    6578508 HIT:    6578508 MISS:          0 MSHR_MERGE:          0
cpu0->cpu0_L1I RFO          ACCESS:          0 HIT:          0 MISS:          0 MSHR_MERGE:          0
cpu0->cpu0_L1I PREFETCH     ACCESS:          0 HIT:          0 MISS:          0 MSHR_MERGE:          0
cpu0->cpu0_L1I WRITE        ACCESS:          0 HIT:          0 MISS:          0 MSHR_MERGE:          0
cpu0->cpu0_L1I TRANSLATION  ACCESS:          0 HIT:          0 MISS:          0 MSHR_MERGE:          0
cpu0->cpu0_L1I PREFETCH REQUESTED:          0 ISSUED:          0 USEFUL:          0 USELESS:          0 LATE:          0
cpu0->cpu0_L1I AVERAGE MISS LATENCY: - cycles
cpu0->cpu0_L1D TOTAL        ACCESS:   35402164 HIT:   19528006 MISS:   15874158 MSHR_MERGE:     835156
cpu0->cpu0_L1D LOAD         ACCESS:   19054165 HIT:    8948319 MISS:   10105846 MSHR_MERGE:     814493
cpu0->cpu0_L1D RFO          ACCESS:          0 HIT:          0 MISS:          0 MSHR_MERGE:          0
cpu0->cpu0_L1D PREFETCH     ACCESS:          0 HIT:          0 MISS:          0 MSHR_MERGE:          0
cpu0->cpu0_L1D WRITE        ACCESS:     255920 HIT:     228360 MISS:      27560 MSHR_MERGE:      20660
cpu0->cpu0_L1D TRANSLATION  ACCESS:   16092079 HIT:   10351327 MISS:    5740752 MSHR_MERGE:          3
cpu0->cpu0_L1D PREFETCH REQUESTED:          0 ISSUED:          0 USEFUL:          0 USELESS:          0 LATE:          0
cpu0->cpu0_L1D AVERAGE MISS LATENCY: 102.7 cycles
cpu0->cpu0_ITLB TOTAL        ACCESS:    6578508 HIT:    6578508 MISS:          0 MSHR_MERGE:          0
cpu0->cpu0_ITLB LOAD         ACCESS:    6578508 HIT:    6578508 MISS:          0 MSHR_MERGE:          0
cpu0->cpu0_ITLB RFO          ACCESS:          0 HIT:          0 MISS:          0 MSHR_MERGE:          0
cpu0->cpu0_ITLB PREFETCH     ACCESS:          0 HIT:          0 MISS:          0 MSHR_MERGE:          0
cpu0->cpu0_ITLB WRITE        ACCESS:          0 HIT:          0 MISS:          0 MSHR_MERGE:          0
cpu0->cpu0_ITLB TRANSLATION  ACCESS:          0 HIT:          0 MISS:          0 MSHR_MERGE:          0
cpu0->cpu0_ITLB PREFETCH REQUESTED:          0 ISSUED:          0 USEFUL:          0 USELESS:          0 LATE:          0
cpu0->cpu0_ITLB AVERAGE MISS LATENCY: - cycles
cpu0->cpu0_DTLB TOTAL        ACCESS:   19304491 HIT:   10820106 MISS:    8484385 MSHR_MERGE:      26831
cpu0->cpu0_DTLB LOAD         ACCESS:   19304491 HIT:   10820106 MISS:    8484385 MSHR_MERGE:      26831
cpu0->cpu0_DTLB RFO          ACCESS:          0 HIT:          0 MISS:          0 MSHR_MERGE:          0
cpu0->cpu0_DTLB PREFETCH     ACCESS:          0 HIT:          0 MISS:          0 MSHR_MERGE:          0
cpu0->cpu0_DTLB WRITE        ACCESS:          0 HIT:          0 MISS:          0 MSHR_MERGE:          0
cpu0->cpu0_DTLB TRANSLATION  ACCESS:          0 HIT:          0 MISS:          0 MSHR_MERGE:          0
cpu0->cpu0_DTLB PREFETCH REQUESTED:          0 ISSUED:          0 USEFUL:          0 USELESS:          0 LATE:          0
cpu0->cpu0_DTLB AVERAGE MISS LATENCY: 27.85 cycles
cpu0->LLC TOTAL        ACCESS:   11221231 HIT:    4300829 MISS:    6920402 MSHR_MERGE:          0
cpu0->LLC LOAD         ACCESS:    8527904 HIT:    1678240 MISS:    6849664 MSHR_MERGE:          0
cpu0->LLC RFO          ACCESS:        745 HIT:        743 MISS:          2 MSHR_MERGE:          0
cpu0->LLC PREFETCH     ACCESS:          0 HIT:          0 MISS:          0 MSHR_MERGE:          0
cpu0->LLC WRITE        ACCESS:      15159 HIT:       4199 MISS:      10960 MSHR_MERGE:          0
cpu0->LLC TRANSLATION  ACCESS:    2677423 HIT:    2617647 MISS:      59776 MSHR_MERGE:          0
cpu0->LLC PREFETCH REQUESTED:          0 ISSUED:          0 USEFUL:          0 USELESS:          0 LATE:          0
cpu0->LLC AVERAGE MISS LATENCY: 178.9 cycles

DRAM Statistics

Channel 0 RQ ROW_BUFFER_HIT:      10501
  ROW_BUFFER_MISS:    6898942
  AVG DBUS CONGESTED CYCLE: 16.86
Channel 0 WQ ROW_BUFFER_HIT:       2886
  ROW_BUFFER_MISS:      11128
  FULL:          0
Channel 0 REFRESHES ISSUED:     136887

[ROI Statistics]
[System Configuration]
num_cpus 1
cpu_freq 4000
fetch_width 6
decode_width 6
dispatch_width 6
execute_width 6
lq_width 2
sq_width 2
retire_width 6
scheduler_size 128
branch_mispredict_penalty 15
rob_size 352
lq_size 128
sq_size 72
ifetch_buffer_size 64
decode_buffer_size 32
dispatch_buffer_size 32
register_file_size 288
decode_latency 1
dispatch_latency 1
schedule_latency 1
execute_latency 1
page_size 4096
block_size 64
core_0_itlb_set 16
core_0_itlb_way 4
core_0_itlb_rq_size 16
core_0_itlb_wq_size 16
core_0_itlb_pq_size 0
core_0_itlb_mshr_size 8
core_0_itlb_hit_latency 1
core_0_itlb_fill_latency 1
core_0_itlb_max_tag_check 2
core_0_itlb_max_fill 2
core_0_dtlb_set 16
core_0_dtlb_way 4
core_0_dtlb_rq_size 16
core_0_dtlb_wq_size 16
core_0_dtlb_pq_size 0
core_0_dtlb_mshr_size 8
core_0_dtlb_hit_latency 1
core_0_dtlb_fill_latency 1
core_0_dtlb_max_tag_check 2
core_0_dtlb_max_fill 2
core_0_stlb_set 128
core_0_stlb_way 12
core_0_stlb_rq_size 32
core_0_stlb_wq_size 32
core_0_stlb_pq_size 0
core_0_stlb_mshr_size 16
core_0_stlb_hit_latency 4
core_0_stlb_fill_latency 4
core_0_stlb_max_tag_check 1
core_0_stlb_max_fill 1
core_0_l1i_set 64
core_0_l1i_way 8
core_0_l1i_rq_size 64
core_0_l1i_wq_size 64
core_0_l1i_pq_size 32
core_0_l1i_mshr_size 8
core_0_l1i_hit_latency 2
core_0_l1i_fill_latency 2
core_0_l1i_max_tag_check 2
core_0_l1i_max_fill 2
core_0_l1d_set 64
core_0_l1d_way 12
core_0_l1d_rq_size 64
core_0_l1d_wq_size 64
core_0_l1d_pq_size 8
core_0_l1d_mshr_size 16
core_0_l1d_hit_latency 2
core_0_l1d_fill_latency 3
core_0_l1d_max_tag_check 2
core_0_l1d_max_fill 2
core_0_l2c_set 1024
core_0_l2c_way 8
core_0_l2c_rq_size 32
core_0_l2c_wq_size 32
core_0_l2c_pq_size 16
core_0_l2c_mshr_size 32
core_0_l2c_hit_latency 5
core_0_l2c_fill_latency 5
core_0_l2c_max_tag_check 1
core_0_l2c_max_fill 1
llc_set 2048
llc_way 16
llc_rq_size 32
llc_wq_size 32
llc_pq_size 32
llc_mshr_size 64
llc_hit_latency 10
llc_fill_latency 10
llc_max_tag_check 1
llc_max_fill 1
dram_channels 1
dram_ranks 1
dram_bankgroups 8
dram_banks 4
dram_rows 65536
dram_columns 1024
dram_channel_width 8
dram_rq_size 64
dram_wq_size 64
dram_size 17179869184
core_0_itlb_prefetcher no
core_0_dtlb_prefetcher no
core_0_stlb_prefetcher no
core_0_l1i_prefetcher no
core_0_l1d_prefetcher no
core_0_l2c_prefetcher no
llc_prefetcher no
llc_replacement drrip

Core_0_instructions 50000001
Core_0_cycles 1642648982
Core_0_IPC 0.0304386
Core_0_branch_prediction_accuracy 97.6522
Core_0_branch_MPKI 4.55896
Core_0_average_ROB_occupancy_at_mispredict 259.408

Core_0_ITLB_total_access 6578508
Core_0_ITLB_total_hit 6578508
Core_0_ITLB_total_miss 0
Core_0_ITLB_total_MPKI 0
Core_0_ITLB_total_miss_rate 0
Core_0_ITLB_demand_access 6578508
Core_0_ITLB_demand_hit 6578508
Core_0_ITLB_demand_miss 0
Core_0_ITLB_demand_MPKI 0
Core_0_ITLB_demand_miss_rate 0
Core_0_ITLB_load_access 6578508
Core_0_ITLB_load_hit 6578508
Core_0_ITLB_load_miss 0
Core_0_ITLB_load_MPKI 0
Core_0_ITLB_load_miss_rate 0
Core_0_ITLB_rfo_access 0
Core_0_ITLB_rfo_hit 0
Core_0_ITLB_rfo_miss 0
Core_0_ITLB_rfo_MPKI 0
Core_0_ITLB_rfo_miss_rate 0
Core_0_ITLB_prefetch_access 0
Core_0_ITLB_prefetch_hit 0
Core_0_ITLB_prefetch_miss 0
Core_0_ITLB_prefetch_MPKI 0
Core_0_ITLB_prefetch_miss_rate 0
Core_0_ITLB_writeback_access 0
Core_0_ITLB_writeback_hit 0
Core_0_ITLB_writeback_miss 0
Core_0_ITLB_writeback_MPKI 0
Core_0_ITLB_writeback_miss_rate 0
Core_0_ITLB_prefetch_requested 0
Core_0_ITLB_prefetch_issued 0
Core_0_ITLB_prefetch_useful 0
Core_0_ITLB_prefetch_useless 0
Core_0_ITLB_prefetch_late 0
Core_0_ITLB_prefetch_accuracy 0
Core_0_ITLB_prefetch_coverage 0

Core_0_DTLB_total_access 19304491
Core_0_DTLB_total_hit 10820106
Core_0_DTLB_total_miss 8484385
Core_0_DTLB_total_MPKI 169.688
Core_0_DTLB_total_miss_rate 0.439503
Core_0_DTLB_demand_access 19304491
Core_0_DTLB_demand_hit 10820106
Core_0_DTLB_demand_miss 8484385
Core_0_DTLB_demand_MPKI 169.688
Core_0_DTLB_demand_miss_rate 0.439503
Core_0_DTLB_load_access 19304491
Core_0_DTLB_load_hit 10820106
Core_0_DTLB_load_miss 8484385
Core_0_DTLB_load_MPKI 169.688
Core_0_DTLB_load_miss_rate 0.439503
Core_0_DTLB_rfo_access 0
Core_0_DTLB_rfo_hit 0
Core_0_DTLB_rfo_miss 0
Core_0_DTLB_rfo_MPKI 0
Core_0_DTLB_rfo_miss_rate 0
Core_0_DTLB_prefetch_access 0
Core_0_DTLB_prefetch_hit 0
Core_0_DTLB_prefetch_miss 0
Core_0_DTLB_prefetch_MPKI 0
Core_0_DTLB_prefetch_miss_rate 0
Core_0_DTLB_writeback_access 0
Core_0_DTLB_writeback_hit 0
Core_0_DTLB_writeback_miss 0
Core_0_DTLB_writeback_MPKI 0
Core_0_DTLB_writeback_miss_rate 0
Core_0_DTLB_prefetch_requested 0
Core_0_DTLB_prefetch_issued 0
Core_0_DTLB_prefetch_useful 0
Core_0_DTLB_prefetch_useless 0
Core_0_DTLB_prefetch_late 0
Core_0_DTLB_prefetch_accuracy 0
Core_0_DTLB_prefetch_coverage 0

Core_0_STLB_total_access 8457555
Core_0_STLB_total_hit 1108695
Core_0_STLB_total_miss 7348860
Core_0_STLB_total_MPKI 146.977
Core_0_STLB_total_miss_rate 0.868911
Core_0_STLB_demand_access 8457555
Core_0_STLB_demand_hit 1108695
Core_0_STLB_demand_miss 7348860
Core_0_STLB_demand_MPKI 146.977
Core_0_STLB_demand_miss_rate 0.868911
Core_0_STLB_load_access 8457555
Core_0_STLB_load_hit 1108695
Core_0_STLB_load_miss 7348860
Core_0_STLB_load_MPKI 146.977
Core_0_STLB_load_miss_rate 0.868911
Core_0_STLB_rfo_access 0
Core_0_STLB_rfo_hit 0
Core_0_STLB_rfo_miss 0
Core_0_STLB_rfo_MPKI 0
Core_0_STLB_rfo_miss_rate 0
Core_0_STLB_prefetch_access 0
Core_0_STLB_prefetch_hit 0
Core_0_STLB_prefetch_miss 0
Core_0_STLB_prefetch_MPKI 0
Core_0_STLB_prefetch_miss_rate 0
Core_0_STLB_writeback_access 0
Core_0_STLB_writeback_hit 0
Core_0_STLB_writeback_miss 0
Core_0_STLB_writeback_MPKI 0
Core_0_STLB_writeback_miss_rate 0
Core_0_STLB_prefetch_requested 0
Core_0_STLB_prefetch_issued 0
Core_0_STLB_prefetch_useful 0
Core_0_STLB_prefetch_useless 0
Core_0_STLB_prefetch_late 0
Core_0_STLB_prefetch_accuracy 0
Core_0_STLB_prefetch_coverage 0

Core_0_L1I_total_access 6578508
Core_0_L1I_total_hit 6578508
Core_0_L1I_total_miss 0
Core_0_L1I_total_MPKI 0
Core_0_L1I_total_miss_rate 0
Core_0_L1I_demand_access 6578508
Core_0_L1I_demand_hit 6578508
Core_0_L1I_demand_miss 0
Core_0_L1I_demand_MPKI 0
Core_0_L1I_demand_miss_rate 0
Core_0_L1I_load_access 6578508
Core_0_L1I_load_hit 6578508
Core_0_L1I_load_miss 0
Core_0_L1I_load_MPKI 0
Core_0_L1I_load_miss_rate 0
Core_0_L1I_rfo_access 0
Core_0_L1I_rfo_hit 0
Core_0_L1I_rfo_miss 0
Core_0_L1I_rfo_MPKI 0
Core_0_L1I_rfo_miss_rate 0
Core_0_L1I_prefetch_access 0
Core_0_L1I_prefetch_hit 0
Core_0_L1I_prefetch_miss 0
Core_0_L1I_prefetch_MPKI 0
Core_0_L1I_prefetch_miss_rate 0
Core_0_L1I_writeback_access 0
Core_0_L1I_writeback_hit 0
Core_0_L1I_writeback_miss 0
Core_0_L1I_writeback_MPKI 0
Core_0_L1I_writeback_miss_rate 0
Core_0_L1I_prefetch_requested 0
Core_0_L1I_prefetch_issued 0
Core_0_L1I_prefetch_useful 0
Core_0_L1I_prefetch_useless 0
Core_0_L1I_prefetch_late 0
Core_0_L1I_prefetch_accuracy 0
Core_0_L1I_prefetch_coverage 0

Core_0_L1D_total_access 19310085
Core_0_L1D_total_hit 9176679
Core_0_L1D_total_miss 10133406
Core_0_L1D_total_MPKI 202.668
Core_0_L1D_total_miss_rate 0.524773
Core_0_L1D_demand_access 19054165
Core_0_L1D_demand_hit 8948319
Core_0_L1D_demand_miss 10105846
Core_0_L1D_demand_MPKI 202.117
Core_0_L1D_demand_miss_rate 0.530375
Core_0_L1D_load_access 19054165
Core_0_L1D_load_hit 8948319
Core_0_L1D_load_miss 10105846
Core_0_L1D_load_MPKI 202.117
Core_0_L1D_load_miss_rate 0.530375
Core_0_L1D_rfo_access 0
Core_0_L1D_rfo_hit 0
Core_0_L1D_rfo_miss 0
Core_0_L1D_rfo_MPKI 0
Core_0_L1D_rfo_miss_rate 0
Core_0_L1D_prefetch_access 0
Core_0_L1D_prefetch_hit 0
Core_0_L1D_prefetch_miss 0
Core_0_L1D_prefetch_MPKI 0
Core_0_L1D_prefetch_miss_rate 0
Core_0_L1D_writeback_access 255920
Core_0_L1D_writeback_hit 228360
Core_0_L1D_writeback_miss 27560
Core_0_L1D_writeback_MPKI 0.5512
Core_0_L1D_writeback_miss_rate 0.10769
Core_0_L1D_prefetch_requested 0
Core_0_L1D_prefetch_issued 0
Core_0_L1D_prefetch_useful 0
Core_0_L1D_prefetch_useless 0
Core_0_L1D_prefetch_late 0
Core_0_L1D_prefetch_accuracy 0
Core_0_L1D_prefetch_coverage 0

Core_0_L2C_total_access 9325681
Core_0_L2C_total_hit 797031
Core_0_L2C_total_miss 8528650
Core_0_L2C_total_MPKI 170.573
Core_0_L2C_total_miss_rate 0.914534
Core_0_L2C_demand_access 9298254
Core_0_L2C_demand_hit 769605
Core_0_L2C_demand_miss 8528649
Core_0_L2C_demand_MPKI 170.573
Core_0_L2C_demand_miss_rate 0.917231
Core_0_L2C_load_access 9291354
Core_0_L2C_load_hit 763450
Core_0_L2C_load_miss 8527904
Core_0_L2C_load_MPKI 170.558
Core_0_L2C_load_miss_rate 0.917832
Core_0_L2C_rfo_access 6900
Core_0_L2C_rfo_hit 6155
Core_0_L2C_rfo_miss 745
Core_0_L2C_rfo_MPKI 0.0149
Core_0_L2C_rfo_miss_rate 0.107971
Core_0_L2C_prefetch_access 0
Core_0_L2C_prefetch_hit 0
Core_0_L2C_prefetch_miss 0
Core_0_L2C_prefetch_MPKI 0
Core_0_L2C_prefetch_miss_rate 0
Core_0_L2C_writeback_access 27427
Core_0_L2C_writeback_hit 27426
Core_0_L2C_writeback_miss 1
Core_0_L2C_writeback_MPKI 2e-05
Core_0_L2C_writeback_miss_rate 3.64604e-05
Core_0_L2C_prefetch_requested 0
Core_0_L2C_prefetch_issued 0
Core_0_L2C_prefetch_useful 0
Core_0_L2C_prefetch_useless 0
Core_0_L2C_prefetch_late 0
Core_0_L2C_prefetch_accuracy 0
Core_0_L2C_prefetch_coverage 0

Core_0_LLC_total_access 8543808
Core_0_LLC_total_hit 1683182
Core_0_LLC_total_miss 6860626
Core_0_LLC_total_MPKI 137.213
Core_0_LLC_total_miss_rate 0.802994
Core_0_LLC_demand_access 8528649
Core_0_LLC_demand_hit 1678983
Core_0_LLC_demand_miss 6849666
Core_0_LLC_demand_MPKI 136.993
Core_0_LLC_demand_miss_rate 0.803136
Core_0_LLC_load_access 8527904
Core_0_LLC_load_hit 1678240
Core_0_LLC_load_miss 6849664
Core_0_LLC_load_MPKI 136.993
Core_0_LLC_load_miss_rate 0.803206
Core_0_LLC_rfo_access 745
Core_0_LLC_rfo_hit 743
Core_0_LLC_rfo_miss 2
Core_0_LLC_rfo_MPKI 4e-05
Core_0_LLC_rfo_miss_rate 0.00268456
Core_0_LLC_prefetch_access 0
Core_0_LLC_prefetch_hit 0
Core_0_LLC_prefetch_miss 0
Core_0_LLC_prefetch_MPKI 0
Core_0_LLC_prefetch_miss_rate 0
Core_0_LLC_writeback_access 15159
Core_0_LLC_writeback_hit 4199
Core_0_LLC_writeback_miss 10960
Core_0_LLC_writeback_MPKI 0.2192
Core_0_LLC_writeback_miss_rate 0.723003
Core_0_LLC_prefetch_requested 0
Core_0_LLC_prefetch_issued 0
Core_0_LLC_prefetch_useful 0
Core_0_LLC_prefetch_useless 0
Core_0_LLC_prefetch_late 0
Core_0_LLC_prefetch_accuracy 0
Core_0_LLC_prefetch_coverage 0

[DRAM Statistics]
Channel_0_RQ_row_buffer_hit 10501
Channel_0_RQ_row_buffer_miss 6898942
Channel_0_WQ_row_buffer_hit 2886
Channel_0_WQ_row_buffer_miss 11128
Channel_0_WQ_full 0
Channel_0_dbus_congested 1284683
DRAM_total_RQ_row_buffer_hit 10501
DRAM_total_RQ_row_buffer_miss 6898942
DRAM_total_WQ_row_buffer_hit 2886
DRAM_total_WQ_row_buffer_miss 11128
DRAM_total_WQ_full 0
DRAM_total_dbus_congested 1284683
DRAM_avg_congested_cycle 16.8649

====== DRAM_RQ_TRAFFIC ========
DRAM_RQ_READ_TRAFFIC_BREAKDOWN:
data_demand_read.count = 6849667
data_demand_read.share = 99.13%

inst_demand_read.count = 0
inst_demand_read.share = 0.00%

cache_inst_prefetch.count = 0
cache_inst_prefetch.share = 0.00%

cache_data_prefetch.count = 0
cache_data_prefetch.share = 0.00%

stlb_data_demand.count = 59776
stlb_data_demand.share = 0.87%

stlb_inst_demand.count = 0
stlb_inst_demand.share = 0.00%

stlb_l1i_pref.count = 0
stlb_l1i_pref.share = 0.00%

stlb_l1d_pref.count = 0
stlb_l1d_pref.share = 0.00%

DRAM_RQ_READ_TRAFFIC_SUMMARY:
cache_demand.count = 6849667
cache_demand.share = 99.13%

cache_prefetch.count = 0
cache_prefetch.share = 0.00%

stlb_demand.count = 59776
stlb_demand.share = 0.87%

stlb_prefetch.count = 0
stlb_prefetch.share = 0.00%

DRAM_RQ_READ_TRAFFIC_DEBUG:
total_classified_read.count = 6909443
unclassified_read.count = 0
total_read_with_other.count = 6909443

classified_plus_unclassified_check.count = 6909443
dram_rq_read_total_observed.count = 6909443
dram_rq_read_total_observed.per_1K_instructions = 138.189

STLB_MISS_PTW_DRAM_TOUCH_BREAKDOWN:
stlb_miss_total.count = 7348860

stlb_miss_touch_dram.count = 59760
stlb_miss_touch_dram.share = 0.81%

stlb_miss_no_dram_touch.count = 7289100
stlb_miss_no_dram_touch.share = 99.19%

STLB_MISS_PTW_DRAM_TOUCH_DEBUG:
stlb_miss_touch_plus_no_touch.count = 7348860
stlb_miss_total_check.count = 7348860

======STLB miss causes ========
Core_0_STLB_miss_cause_breakdown
Core_0_STLB_cause_Demand_Data_miss 7348860
Core_0_STLB_cause_Demand_Data_miss_rate 0.868911
Core_0_STLB_cause_Demand_Instruction_miss 0
Core_0_STLB_cause_Demand_Instruction_miss_rate 0
Core_0_STLB_cause_L1D_Prefetch_miss 0
Core_0_STLB_cause_L1D_Prefetch_miss_rate 0
Core_0_STLB_cause_L1I_Prefetch_miss 0
Core_0_STLB_cause_L1I_Prefetch_miss_rate 0
Core_0_STLB_cause_Other_miss 0
Core_0_STLB_cause_Other_miss_rate 0
Core_0_STLB_Demand_miss 7348860
Core_0_STLB_Demand_miss_rate 0.868911
Core_0_STLB_L1D_Prefetch_miss 0
Core_0_STLB_L1D_Prefetch_miss_rate 0
Core_0_STLB_Other_miss 0
Core_0_STLB_Other_miss_rate 0
