[VMEM] WARNING: physical memory size is smaller than virtual memory size.

*** ChampSim Multicore Out-of-Order Simulator ***
Warmup Instructions: 20000000
Simulation Instructions: 50000000
Number of CPUs: 1
Page size: 4096
Core 0: /data2/zcq/champsim_traces_gap/pr.twitter-2741B.champsimtrace.xz
Off-chip DRAM Size: 16 GiB Channels: 1 Width: 64-bit Data Rate: 3205 MT/s
Warmup halting CPU 0 at instruction 20000003 cycle 11731766 for remainder of phase
Warmup finished CPU 0 instructions: 20000003 cycles: 11731766 cumulative IPC: 1.705 (Simulation time: 00 hr 02 min 44 sec)
Warmup complete CPU 0 instructions: 20000003 cycles: 11731766 cumulative IPC: 1.705 (Simulation time: 00 hr 02 min 44 sec)
Simulation CPU 0 warning: IPC 0.032816 < 0.05
Simulation CPU 0 warning: IPC 0.030832 < 0.05
Simulation CPU 0 warning: IPC 0.035533 < 0.05
Simulation CPU 0 warning: IPC 0.03367 < 0.05
Simulation CPU 0 warning: IPC 0.032092 < 0.05
Simulation CPU 0 warning: IPC 0.032637 < 0.05
Simulation CPU 0 warning: IPC 0.034519 < 0.05
Simulation CPU 0 warning: IPC 0.037366 < 0.05
Simulation CPU 0 warning: IPC 0.036102 < 0.05
Simulation CPU 0 warning: IPC 0.03537 < 0.05
Simulation CPU 0 warning: IPC 0.032786 < 0.05
Simulation CPU 0 warning: IPC 0.031192 < 0.05
Simulation CPU 0 warning: IPC 0.032841 < 0.05
Simulation CPU 0 warning: IPC 0.034215 < 0.05
Simulation CPU 0 warning: IPC 0.030613 < 0.05
Simulation CPU 0 warning: IPC 0.034408 < 0.05
Simulation CPU 0 warning: IPC 0.03044 < 0.05
Simulation CPU 0 warning: IPC 0.030673 < 0.05
Simulation CPU 0 warning: IPC 0.032365 < 0.05
Simulation CPU 0 warning: IPC 0.032908 < 0.05
Simulation CPU 0 warning: IPC 0.027679 < 0.05
Simulation CPU 0 warning: IPC 0.031292 < 0.05
Simulation CPU 0 warning: IPC 0.02802 < 0.05
Simulation CPU 0 warning: IPC 0.027873 < 0.05
Simulation CPU 0 warning: IPC 0.03053 < 0.05
Simulation CPU 0 warning: IPC 0.033276 < 0.05
Simulation CPU 0 warning: IPC 0.033771 < 0.05
Simulation CPU 0 warning: IPC 0.03367 < 0.05
Simulation CPU 0 warning: IPC 0.035503 < 0.05
Simulation CPU 0 warning: IPC 0.033972 < 0.05
Simulation CPU 0 warning: IPC 0.034615 < 0.05
Simulation CPU 0 warning: IPC 0.033567 < 0.05
Simulation CPU 0 warning: IPC 0.035099 < 0.05
Simulation CPU 0 warning: IPC 0.030555 < 0.05
Simulation CPU 0 warning: IPC 0.032438 < 0.05
Simulation CPU 0 warning: IPC 0.031995 < 0.05
Simulation CPU 0 warning: IPC 0.031798 < 0.05
Simulation CPU 0 warning: IPC 0.034768 < 0.05
Simulation CPU 0 warning: IPC 0.032311 < 0.05
Simulation CPU 0 warning: IPC 0.03182 < 0.05
Simulation CPU 0 warning: IPC 0.033706 < 0.05
Simulation CPU 0 warning: IPC 0.032352 < 0.05
Simulation CPU 0 warning: IPC 0.02949 < 0.05
Simulation CPU 0 warning: IPC 0.032046 < 0.05
Simulation CPU 0 warning: IPC 0.029317 < 0.05
Simulation CPU 0 warning: IPC 0.033937 < 0.05
Simulation CPU 0 warning: IPC 0.035647 < 0.05
Simulation CPU 0 warning: IPC 0.032209 < 0.05
Simulation CPU 0 warning: IPC 0.03497 < 0.05
Simulation CPU 0 warning: IPC 0.031959 < 0.05
Simulation CPU 0 warning: IPC 0.034079 < 0.05
Simulation CPU 0 warning: IPC 0.036215 < 0.05
Simulation CPU 0 warning: IPC 0.031567 < 0.05
Simulation CPU 0 warning: IPC 0.027557 < 0.05
Simulation CPU 0 warning: IPC 0.035057 < 0.05
Simulation CPU 0 warning: IPC 0.033001 < 0.05
Simulation CPU 0 warning: IPC 0.031258 < 0.05
Simulation CPU 0 warning: IPC 0.034621 < 0.05
Simulation CPU 0 warning: IPC 0.032113 < 0.05
Simulation CPU 0 warning: IPC 0.034674 < 0.05
Simulation CPU 0 warning: IPC 0.036295 < 0.05
Simulation CPU 0 warning: IPC 0.032979 < 0.05
Simulation CPU 0 warning: IPC 0.033492 < 0.05
Simulation CPU 0 warning: IPC 0.033206 < 0.05
Simulation CPU 0 warning: IPC 0.031393 < 0.05
Simulation CPU 0 warning: IPC 0.031448 < 0.05
Simulation CPU 0 warning: IPC 0.034399 < 0.05
Simulation CPU 0 warning: IPC 0.031984 < 0.05
Simulation CPU 0 warning: IPC 0.034412 < 0.05
Simulation CPU 0 warning: IPC 0.026402 < 0.05
Simulation CPU 0 warning: IPC 0.033899 < 0.05
Simulation CPU 0 warning: IPC 0.034901 < 0.05
Simulation CPU 0 warning: IPC 0.034201 < 0.05
Simulation CPU 0 warning: IPC 0.033574 < 0.05
Simulation CPU 0 warning: IPC 0.032289 < 0.05
Simulation CPU 0 warning: IPC 0.032671 < 0.05
Simulation CPU 0 warning: IPC 0.035268 < 0.05
Simulation CPU 0 warning: IPC 0.032066 < 0.05
Simulation CPU 0 warning: IPC 0.034537 < 0.05
Simulation CPU 0 warning: IPC 0.028759 < 0.05
Simulation CPU 0 warning: IPC 0.027385 < 0.05
Simulation CPU 0 warning: IPC 0.036076 < 0.05
Simulation CPU 0 warning: IPC 0.032705 < 0.05
Simulation CPU 0 warning: IPC 0.031683 < 0.05
Simulation CPU 0 warning: IPC 0.034185 < 0.05
Simulation CPU 0 warning: IPC 0.032087 < 0.05
Simulation CPU 0 warning: IPC 0.032122 < 0.05
Simulation CPU 0 warning: IPC 0.029328 < 0.05
Simulation CPU 0 warning: IPC 0.03041 < 0.05
Simulation CPU 0 warning: IPC 0.032514 < 0.05
Simulation CPU 0 warning: IPC 0.034322 < 0.05
Simulation CPU 0 warning: IPC 0.031553 < 0.05
Simulation CPU 0 warning: IPC 0.027457 < 0.05
Simulation CPU 0 warning: IPC 0.031773 < 0.05
Simulation CPU 0 warning: IPC 0.031359 < 0.05
Simulation CPU 0 warning: IPC 0.032072 < 0.05
Simulation CPU 0 warning: IPC 0.031589 < 0.05
Simulation CPU 0 warning: IPC 0.032564 < 0.05
Simulation CPU 0 warning: IPC 0.031456 < 0.05
Simulation CPU 0 warning: IPC 0.032332 < 0.05
Simulation CPU 0 warning: IPC 0.03289 < 0.05
Simulation CPU 0 warning: IPC 0.032743 < 0.05
Simulation CPU 0 warning: IPC 0.036952 < 0.05
Simulation CPU 0 warning: IPC 0.033912 < 0.05
Simulation CPU 0 warning: IPC 0.02642 < 0.05
Simulation CPU 0 warning: IPC 0.032218 < 0.05
Simulation CPU 0 warning: IPC 0.030171 < 0.05
Simulation CPU 0 warning: IPC 0.031987 < 0.05
Simulation CPU 0 warning: IPC 0.030358 < 0.05
Simulation CPU 0 warning: IPC 0.026979 < 0.05
Simulation CPU 0 warning: IPC 0.030366 < 0.05
Simulation CPU 0 warning: IPC 0.029278 < 0.05
Simulation CPU 0 warning: IPC 0.031623 < 0.05
Simulation CPU 0 warning: IPC 0.031991 < 0.05
Simulation CPU 0 warning: IPC 0.030355 < 0.05
Simulation CPU 0 warning: IPC 0.034075 < 0.05
Simulation CPU 0 warning: IPC 0.031494 < 0.05
Simulation CPU 0 warning: IPC 0.032259 < 0.05
Simulation CPU 0 warning: IPC 0.031753 < 0.05
Simulation CPU 0 warning: IPC 0.030762 < 0.05
Simulation CPU 0 warning: IPC 0.03154 < 0.05
Simulation CPU 0 warning: IPC 0.031018 < 0.05
Simulation CPU 0 warning: IPC 0.033832 < 0.05
Simulation CPU 0 warning: IPC 0.032932 < 0.05
Simulation CPU 0 warning: IPC 0.029539 < 0.05
Simulation CPU 0 warning: IPC 0.031215 < 0.05
Simulation CPU 0 warning: IPC 0.033021 < 0.05
Simulation CPU 0 warning: IPC 0.029659 < 0.05
Simulation CPU 0 warning: IPC 0.0301 < 0.05
Simulation CPU 0 warning: IPC 0.033953 < 0.05
Simulation CPU 0 warning: IPC 0.032902 < 0.05
Simulation CPU 0 warning: IPC 0.031988 < 0.05
Simulation CPU 0 warning: IPC 0.030398 < 0.05
Simulation CPU 0 warning: IPC 0.031878 < 0.05
Simulation CPU 0 warning: IPC 0.034688 < 0.05
Simulation CPU 0 warning: IPC 0.030382 < 0.05
Simulation CPU 0 warning: IPC 0.032258 < 0.05
Simulation CPU 0 warning: IPC 0.029588 < 0.05
Simulation CPU 0 warning: IPC 0.030383 < 0.05
Simulation CPU 0 warning: IPC 0.030849 < 0.05
Simulation CPU 0 warning: IPC 0.031283 < 0.05
Simulation CPU 0 warning: IPC 0.032595 < 0.05
Simulation CPU 0 warning: IPC 0.032066 < 0.05
Simulation CPU 0 warning: IPC 0.030922 < 0.05
Simulation CPU 0 warning: IPC 0.029757 < 0.05
Simulation CPU 0 warning: IPC 0.032341 < 0.05
Simulation CPU 0 warning: IPC 0.028312 < 0.05
Simulation CPU 0 warning: IPC 0.032961 < 0.05
Simulation CPU 0 warning: IPC 0.031628 < 0.05
Simulation CPU 0 warning: IPC 0.031915 < 0.05
Simulation CPU 0 warning: IPC 0.031586 < 0.05
Simulation CPU 0 warning: IPC 0.02993 < 0.05
Simulation CPU 0 warning: IPC 0.030769 < 0.05
Simulation CPU 0 warning: IPC 0.032643 < 0.05
Simulation CPU 0 warning: IPC 0.033294 < 0.05
Simulation finished CPU 0 instructions: 50000000 cycles: 1553047198 cumulative IPC: 0.03219 (Simulation time: 02 hr 04 min 05 sec)
Simulation complete CPU 0 instructions: 50000000 cycles: 1553047198 cumulative IPC: 0.03219 (Simulation time: 02 hr 04 min 05 sec)

ChampSim completed all CPUs

=== Simulation ===
CPU 0 runs /data2/zcq/champsim_traces_gap/pr.twitter-2741B.champsimtrace.xz

Region of Interest Statistics

CPU 0 cumulative IPC: 0.03219 instructions: 50000000 cycles: 1553047198
CPU 0 Branch Prediction Accuracy: 97.26% MPKI: 5.297 Average ROB Occupancy at Mispredict: 259.8
Branch type MPKI
BRANCH_DIRECT_JUMP: 0
BRANCH_INDIRECT: 0
BRANCH_CONDITIONAL: 5.297
BRANCH_DIRECT_CALL: 0
BRANCH_INDIRECT_CALL: 0
BRANCH_RETURN: 0

cpu0->cpu0_STLB TOTAL        ACCESS:    8425040 HIT:    1312541 MISS:    7112499 MSHR_MERGE:          0
cpu0->cpu0_STLB LOAD         ACCESS:    8425040 HIT:    1312541 MISS:    7112499 MSHR_MERGE:          0
cpu0->cpu0_STLB RFO          ACCESS:          0 HIT:          0 MISS:          0 MSHR_MERGE:          0
cpu0->cpu0_STLB PREFETCH     ACCESS:          0 HIT:          0 MISS:          0 MSHR_MERGE:          0
cpu0->cpu0_STLB WRITE        ACCESS:          0 HIT:          0 MISS:          0 MSHR_MERGE:          0
cpu0->cpu0_STLB TRANSLATION  ACCESS:          0 HIT:          0 MISS:          0 MSHR_MERGE:          0
cpu0->cpu0_STLB PREFETCH REQUESTED:          0 ISSUED:          0 USEFUL:          0 USELESS:          0 LATE:          0
cpu0->cpu0_STLB AVERAGE MISS LATENCY: 25.25 cycles
cpu0->cpu0_L2C TOTAL        ACCESS:   14796406 HIT:    4168298 MISS:   10628108 MSHR_MERGE:          0
cpu0->cpu0_L2C LOAD         ACCESS:    8999375 HIT:     889066 MISS:    8110309 MSHR_MERGE:          0
cpu0->cpu0_L2C RFO          ACCESS:       7925 HIT:       7386 MISS:        539 MSHR_MERGE:          0
cpu0->cpu0_L2C PREFETCH     ACCESS:          0 HIT:          0 MISS:          0 MSHR_MERGE:          0
cpu0->cpu0_L2C WRITE        ACCESS:      31136 HIT:      31134 MISS:          2 MSHR_MERGE:          0
cpu0->cpu0_L2C TRANSLATION  ACCESS:    5757970 HIT:    3240712 MISS:    2517258 MSHR_MERGE:          0
cpu0->cpu0_L2C PREFETCH REQUESTED:          0 ISSUED:          0 USEFUL:          0 USELESS:          0 LATE:          0
cpu0->cpu0_L2C AVERAGE MISS LATENCY: 125 cycles
cpu0->cpu0_L1I TOTAL        ACCESS:    6022699 HIT:    6022699 MISS:          0 MSHR_MERGE:          0
cpu0->cpu0_L1I LOAD         ACCESS:    6022699 HIT:    6022699 MISS:          0 MSHR_MERGE:          0
cpu0->cpu0_L1I RFO          ACCESS:          0 HIT:          0 MISS:          0 MSHR_MERGE:          0
cpu0->cpu0_L1I PREFETCH     ACCESS:          0 HIT:          0 MISS:          0 MSHR_MERGE:          0
cpu0->cpu0_L1I WRITE        ACCESS:          0 HIT:          0 MISS:          0 MSHR_MERGE:          0
cpu0->cpu0_L1I TRANSLATION  ACCESS:          0 HIT:          0 MISS:          0 MSHR_MERGE:          0
cpu0->cpu0_L1I PREFETCH REQUESTED:          0 ISSUED:          0 USEFUL:          0 USELESS:          0 LATE:          0
cpu0->cpu0_L1I AVERAGE MISS LATENCY: - cycles
cpu0->cpu0_L1D TOTAL        ACCESS:   34937736 HIT:   19212068 MISS:   15725668 MSHR_MERGE:     960398
cpu0->cpu0_L1D LOAD         ACCESS:   18901909 HIT:    8965916 MISS:    9935993 MSHR_MERGE:     936618
cpu0->cpu0_L1D RFO          ACCESS:          0 HIT:          0 MISS:          0 MSHR_MERGE:          0
cpu0->cpu0_L1D PREFETCH     ACCESS:          0 HIT:          0 MISS:          0 MSHR_MERGE:          0
cpu0->cpu0_L1D WRITE        ACCESS:     297354 HIT:     265652 MISS:      31702 MSHR_MERGE:      23777
cpu0->cpu0_L1D TRANSLATION  ACCESS:   15738473 HIT:    9980500 MISS:    5757973 MSHR_MERGE:          3
cpu0->cpu0_L1D PREFETCH REQUESTED:          0 ISSUED:          0 USEFUL:          0 USELESS:          0 LATE:          0
cpu0->cpu0_L1D AVERAGE MISS LATENCY: 98.71 cycles
cpu0->cpu0_ITLB TOTAL        ACCESS:    6022698 HIT:    6022698 MISS:          0 MSHR_MERGE:          0
cpu0->cpu0_ITLB LOAD         ACCESS:    6022698 HIT:    6022698 MISS:          0 MSHR_MERGE:          0
cpu0->cpu0_ITLB RFO          ACCESS:          0 HIT:          0 MISS:          0 MSHR_MERGE:          0
cpu0->cpu0_ITLB PREFETCH     ACCESS:          0 HIT:          0 MISS:          0 MSHR_MERGE:          0
cpu0->cpu0_ITLB WRITE        ACCESS:          0 HIT:          0 MISS:          0 MSHR_MERGE:          0
cpu0->cpu0_ITLB TRANSLATION  ACCESS:          0 HIT:          0 MISS:          0 MSHR_MERGE:          0
cpu0->cpu0_ITLB PREFETCH REQUESTED:          0 ISSUED:          0 USEFUL:          0 USELESS:          0 LATE:          0
cpu0->cpu0_ITLB AVERAGE MISS LATENCY: - cycles
cpu0->cpu0_DTLB TOTAL        ACCESS:   19192759 HIT:   10724650 MISS:    8468109 MSHR_MERGE:      43069
cpu0->cpu0_DTLB LOAD         ACCESS:   19192759 HIT:   10724650 MISS:    8468109 MSHR_MERGE:      43069
cpu0->cpu0_DTLB RFO          ACCESS:          0 HIT:          0 MISS:          0 MSHR_MERGE:          0
cpu0->cpu0_DTLB PREFETCH     ACCESS:          0 HIT:          0 MISS:          0 MSHR_MERGE:          0
cpu0->cpu0_DTLB WRITE        ACCESS:          0 HIT:          0 MISS:          0 MSHR_MERGE:          0
cpu0->cpu0_DTLB TRANSLATION  ACCESS:          0 HIT:          0 MISS:          0 MSHR_MERGE:          0
cpu0->cpu0_DTLB PREFETCH REQUESTED:          0 ISSUED:          0 USEFUL:          0 USELESS:          0 LATE:          0
cpu0->cpu0_DTLB AVERAGE MISS LATENCY: 27.16 cycles
cpu0->LLC TOTAL        ACCESS:   10645514 HIT:    4140316 MISS:    6505198 MSHR_MERGE:          0
cpu0->LLC LOAD         ACCESS:    8110309 HIT:    1666811 MISS:    6443498 MSHR_MERGE:          0
cpu0->LLC RFO          ACCESS:        539 HIT:        539 MISS:          0 MSHR_MERGE:          0
cpu0->LLC PREFETCH     ACCESS:          0 HIT:          0 MISS:          0 MSHR_MERGE:          0
cpu0->LLC WRITE        ACCESS:      17408 HIT:       4672 MISS:      12736 MSHR_MERGE:          0
cpu0->LLC TRANSLATION  ACCESS:    2517258 HIT:    2468294 MISS:      48964 MSHR_MERGE:          0
cpu0->LLC PREFETCH REQUESTED:          0 ISSUED:          0 USEFUL:          0 USELESS:          0 LATE:          0
cpu0->LLC AVERAGE MISS LATENCY: 178.8 cycles

DRAM Statistics

Channel 0 RQ ROW_BUFFER_HIT:       9313
  ROW_BUFFER_MISS:    6483148
  AVG DBUS CONGESTED CYCLE: 17.06
Channel 0 WQ ROW_BUFFER_HIT:       3351
  ROW_BUFFER_MISS:      12960
  FULL:          0
Channel 0 REFRESHES ISSUED:     129421

[ROI Statistics]
[System Configuration]
num_cpus 1
cpu_freq 4000
fetch_width 6
decode_width 6
dispatch_width 6
execute_width 6
lq_width 2
sq_width 2
retire_width 6
scheduler_size 128
branch_mispredict_penalty 15
rob_size 352
lq_size 128
sq_size 72
ifetch_buffer_size 64
decode_buffer_size 32
dispatch_buffer_size 32
register_file_size 288
decode_latency 1
dispatch_latency 1
schedule_latency 1
execute_latency 1
page_size 4096
block_size 64
core_0_itlb_set 16
core_0_itlb_way 4
core_0_itlb_rq_size 16
core_0_itlb_wq_size 16
core_0_itlb_pq_size 0
core_0_itlb_mshr_size 8
core_0_itlb_hit_latency 1
core_0_itlb_fill_latency 1
core_0_itlb_max_tag_check 2
core_0_itlb_max_fill 2
core_0_dtlb_set 16
core_0_dtlb_way 4
core_0_dtlb_rq_size 16
core_0_dtlb_wq_size 16
core_0_dtlb_pq_size 0
core_0_dtlb_mshr_size 8
core_0_dtlb_hit_latency 1
core_0_dtlb_fill_latency 1
core_0_dtlb_max_tag_check 2
core_0_dtlb_max_fill 2
core_0_stlb_set 128
core_0_stlb_way 12
core_0_stlb_rq_size 32
core_0_stlb_wq_size 32
core_0_stlb_pq_size 0
core_0_stlb_mshr_size 16
core_0_stlb_hit_latency 4
core_0_stlb_fill_latency 4
core_0_stlb_max_tag_check 1
core_0_stlb_max_fill 1
core_0_l1i_set 64
core_0_l1i_way 8
core_0_l1i_rq_size 64
core_0_l1i_wq_size 64
core_0_l1i_pq_size 32
core_0_l1i_mshr_size 8
core_0_l1i_hit_latency 2
core_0_l1i_fill_latency 2
core_0_l1i_max_tag_check 2
core_0_l1i_max_fill 2
core_0_l1d_set 64
core_0_l1d_way 12
core_0_l1d_rq_size 64
core_0_l1d_wq_size 64
core_0_l1d_pq_size 8
core_0_l1d_mshr_size 16
core_0_l1d_hit_latency 2
core_0_l1d_fill_latency 3
core_0_l1d_max_tag_check 2
core_0_l1d_max_fill 2
core_0_l2c_set 1024
core_0_l2c_way 8
core_0_l2c_rq_size 32
core_0_l2c_wq_size 32
core_0_l2c_pq_size 16
core_0_l2c_mshr_size 32
core_0_l2c_hit_latency 5
core_0_l2c_fill_latency 5
core_0_l2c_max_tag_check 1
core_0_l2c_max_fill 1
llc_set 2048
llc_way 16
llc_rq_size 32
llc_wq_size 32
llc_pq_size 32
llc_mshr_size 64
llc_hit_latency 10
llc_fill_latency 10
llc_max_tag_check 1
llc_max_fill 1
dram_channels 1
dram_ranks 1
dram_bankgroups 8
dram_banks 4
dram_rows 65536
dram_columns 1024
dram_channel_width 8
dram_rq_size 64
dram_wq_size 64
dram_size 17179869184
core_0_itlb_prefetcher no
core_0_dtlb_prefetcher no
core_0_stlb_prefetcher no
core_0_l1i_prefetcher no
core_0_l1d_prefetcher no
core_0_l2c_prefetcher no
llc_prefetcher no
llc_replacement drrip

Core_0_instructions 50000000
Core_0_cycles 1553047198
Core_0_IPC 0.0321948
Core_0_branch_prediction_accuracy 97.257
Core_0_branch_MPKI 5.29726
Core_0_average_ROB_occupancy_at_mispredict 259.768

Core_0_ITLB_total_access 6022698
Core_0_ITLB_total_hit 6022698
Core_0_ITLB_total_miss 0
Core_0_ITLB_total_MPKI 0
Core_0_ITLB_total_miss_rate 0
Core_0_ITLB_demand_access 6022698
Core_0_ITLB_demand_hit 6022698
Core_0_ITLB_demand_miss 0
Core_0_ITLB_demand_MPKI 0
Core_0_ITLB_demand_miss_rate 0
Core_0_ITLB_load_access 6022698
Core_0_ITLB_load_hit 6022698
Core_0_ITLB_load_miss 0
Core_0_ITLB_load_MPKI 0
Core_0_ITLB_load_miss_rate 0
Core_0_ITLB_rfo_access 0
Core_0_ITLB_rfo_hit 0
Core_0_ITLB_rfo_miss 0
Core_0_ITLB_rfo_MPKI 0
Core_0_ITLB_rfo_miss_rate 0
Core_0_ITLB_prefetch_access 0
Core_0_ITLB_prefetch_hit 0
Core_0_ITLB_prefetch_miss 0
Core_0_ITLB_prefetch_MPKI 0
Core_0_ITLB_prefetch_miss_rate 0
Core_0_ITLB_writeback_access 0
Core_0_ITLB_writeback_hit 0
Core_0_ITLB_writeback_miss 0
Core_0_ITLB_writeback_MPKI 0
Core_0_ITLB_writeback_miss_rate 0
Core_0_ITLB_prefetch_requested 0
Core_0_ITLB_prefetch_issued 0
Core_0_ITLB_prefetch_useful 0
Core_0_ITLB_prefetch_useless 0
Core_0_ITLB_prefetch_late 0
Core_0_ITLB_prefetch_accuracy 0
Core_0_ITLB_prefetch_coverage 0

Core_0_DTLB_total_access 19192759
Core_0_DTLB_total_hit 10724650
Core_0_DTLB_total_miss 8468109
Core_0_DTLB_total_MPKI 169.362
Core_0_DTLB_total_miss_rate 0.441214
Core_0_DTLB_demand_access 19192759
Core_0_DTLB_demand_hit 10724650
Core_0_DTLB_demand_miss 8468109
Core_0_DTLB_demand_MPKI 169.362
Core_0_DTLB_demand_miss_rate 0.441214
Core_0_DTLB_load_access 19192759
Core_0_DTLB_load_hit 10724650
Core_0_DTLB_load_miss 8468109
Core_0_DTLB_load_MPKI 169.362
Core_0_DTLB_load_miss_rate 0.441214
Core_0_DTLB_rfo_access 0
Core_0_DTLB_rfo_hit 0
Core_0_DTLB_rfo_miss 0
Core_0_DTLB_rfo_MPKI 0
Core_0_DTLB_rfo_miss_rate 0
Core_0_DTLB_prefetch_access 0
Core_0_DTLB_prefetch_hit 0
Core_0_DTLB_prefetch_miss 0
Core_0_DTLB_prefetch_MPKI 0
Core_0_DTLB_prefetch_miss_rate 0
Core_0_DTLB_writeback_access 0
Core_0_DTLB_writeback_hit 0
Core_0_DTLB_writeback_miss 0
Core_0_DTLB_writeback_MPKI 0
Core_0_DTLB_writeback_miss_rate 0
Core_0_DTLB_prefetch_requested 0
Core_0_DTLB_prefetch_issued 0
Core_0_DTLB_prefetch_useful 0
Core_0_DTLB_prefetch_useless 0
Core_0_DTLB_prefetch_late 0
Core_0_DTLB_prefetch_accuracy 0
Core_0_DTLB_prefetch_coverage 0

Core_0_STLB_total_access 8425040
Core_0_STLB_total_hit 1312541
Core_0_STLB_total_miss 7112499
Core_0_STLB_total_MPKI 142.25
Core_0_STLB_total_miss_rate 0.84421
Core_0_STLB_demand_access 8425040
Core_0_STLB_demand_hit 1312541
Core_0_STLB_demand_miss 7112499
Core_0_STLB_demand_MPKI 142.25
Core_0_STLB_demand_miss_rate 0.84421
Core_0_STLB_load_access 8425040
Core_0_STLB_load_hit 1312541
Core_0_STLB_load_miss 7112499
Core_0_STLB_load_MPKI 142.25
Core_0_STLB_load_miss_rate 0.84421
Core_0_STLB_rfo_access 0
Core_0_STLB_rfo_hit 0
Core_0_STLB_rfo_miss 0
Core_0_STLB_rfo_MPKI 0
Core_0_STLB_rfo_miss_rate 0
Core_0_STLB_prefetch_access 0
Core_0_STLB_prefetch_hit 0
Core_0_STLB_prefetch_miss 0
Core_0_STLB_prefetch_MPKI 0
Core_0_STLB_prefetch_miss_rate 0
Core_0_STLB_writeback_access 0
Core_0_STLB_writeback_hit 0
Core_0_STLB_writeback_miss 0
Core_0_STLB_writeback_MPKI 0
Core_0_STLB_writeback_miss_rate 0
Core_0_STLB_prefetch_requested 0
Core_0_STLB_prefetch_issued 0
Core_0_STLB_prefetch_useful 0
Core_0_STLB_prefetch_useless 0
Core_0_STLB_prefetch_late 0
Core_0_STLB_prefetch_accuracy 0
Core_0_STLB_prefetch_coverage 0

Core_0_L1I_total_access 6022699
Core_0_L1I_total_hit 6022699
Core_0_L1I_total_miss 0
Core_0_L1I_total_MPKI 0
Core_0_L1I_total_miss_rate 0
Core_0_L1I_demand_access 6022699
Core_0_L1I_demand_hit 6022699
Core_0_L1I_demand_miss 0
Core_0_L1I_demand_MPKI 0
Core_0_L1I_demand_miss_rate 0
Core_0_L1I_load_access 6022699
Core_0_L1I_load_hit 6022699
Core_0_L1I_load_miss 0
Core_0_L1I_load_MPKI 0
Core_0_L1I_load_miss_rate 0
Core_0_L1I_rfo_access 0
Core_0_L1I_rfo_hit 0
Core_0_L1I_rfo_miss 0
Core_0_L1I_rfo_MPKI 0
Core_0_L1I_rfo_miss_rate 0
Core_0_L1I_prefetch_access 0
Core_0_L1I_prefetch_hit 0
Core_0_L1I_prefetch_miss 0
Core_0_L1I_prefetch_MPKI 0
Core_0_L1I_prefetch_miss_rate 0
Core_0_L1I_writeback_access 0
Core_0_L1I_writeback_hit 0
Core_0_L1I_writeback_miss 0
Core_0_L1I_writeback_MPKI 0
Core_0_L1I_writeback_miss_rate 0
Core_0_L1I_prefetch_requested 0
Core_0_L1I_prefetch_issued 0
Core_0_L1I_prefetch_useful 0
Core_0_L1I_prefetch_useless 0
Core_0_L1I_prefetch_late 0
Core_0_L1I_prefetch_accuracy 0
Core_0_L1I_prefetch_coverage 0

Core_0_L1D_total_access 19199263
Core_0_L1D_total_hit 9231568
Core_0_L1D_total_miss 9967695
Core_0_L1D_total_MPKI 199.354
Core_0_L1D_total_miss_rate 0.519171
Core_0_L1D_demand_access 18901909
Core_0_L1D_demand_hit 8965916
Core_0_L1D_demand_miss 9935993
Core_0_L1D_demand_MPKI 198.72
Core_0_L1D_demand_miss_rate 0.525661
Core_0_L1D_load_access 18901909
Core_0_L1D_load_hit 8965916
Core_0_L1D_load_miss 9935993
Core_0_L1D_load_MPKI 198.72
Core_0_L1D_load_miss_rate 0.525661
Core_0_L1D_rfo_access 0
Core_0_L1D_rfo_hit 0
Core_0_L1D_rfo_miss 0
Core_0_L1D_rfo_MPKI 0
Core_0_L1D_rfo_miss_rate 0
Core_0_L1D_prefetch_access 0
Core_0_L1D_prefetch_hit 0
Core_0_L1D_prefetch_miss 0
Core_0_L1D_prefetch_MPKI 0
Core_0_L1D_prefetch_miss_rate 0
Core_0_L1D_writeback_access 297354
Core_0_L1D_writeback_hit 265652
Core_0_L1D_writeback_miss 31702
Core_0_L1D_writeback_MPKI 0.63404
Core_0_L1D_writeback_miss_rate 0.106614
Core_0_L1D_prefetch_requested 0
Core_0_L1D_prefetch_issued 0
Core_0_L1D_prefetch_useful 0
Core_0_L1D_prefetch_useless 0
Core_0_L1D_prefetch_late 0
Core_0_L1D_prefetch_accuracy 0
Core_0_L1D_prefetch_coverage 0

Core_0_L2C_total_access 9038436
Core_0_L2C_total_hit 927586
Core_0_L2C_total_miss 8110850
Core_0_L2C_total_MPKI 162.217
Core_0_L2C_total_miss_rate 0.897373
Core_0_L2C_demand_access 9007300
Core_0_L2C_demand_hit 896452
Core_0_L2C_demand_miss 8110848
Core_0_L2C_demand_MPKI 162.217
Core_0_L2C_demand_miss_rate 0.900475
Core_0_L2C_load_access 8999375
Core_0_L2C_load_hit 889066
Core_0_L2C_load_miss 8110309
Core_0_L2C_load_MPKI 162.206
Core_0_L2C_load_miss_rate 0.901208
Core_0_L2C_rfo_access 7925
Core_0_L2C_rfo_hit 7386
Core_0_L2C_rfo_miss 539
Core_0_L2C_rfo_MPKI 0.01078
Core_0_L2C_rfo_miss_rate 0.0680126
Core_0_L2C_prefetch_access 0
Core_0_L2C_prefetch_hit 0
Core_0_L2C_prefetch_miss 0
Core_0_L2C_prefetch_MPKI 0
Core_0_L2C_prefetch_miss_rate 0
Core_0_L2C_writeback_access 31136
Core_0_L2C_writeback_hit 31134
Core_0_L2C_writeback_miss 2
Core_0_L2C_writeback_MPKI 4e-05
Core_0_L2C_writeback_miss_rate 6.42343e-05
Core_0_L2C_prefetch_requested 0
Core_0_L2C_prefetch_issued 0
Core_0_L2C_prefetch_useful 0
Core_0_L2C_prefetch_useless 0
Core_0_L2C_prefetch_late 0
Core_0_L2C_prefetch_accuracy 0
Core_0_L2C_prefetch_coverage 0

Core_0_LLC_total_access 8128256
Core_0_LLC_total_hit 1672022
Core_0_LLC_total_miss 6456234
Core_0_LLC_total_MPKI 129.125
Core_0_LLC_total_miss_rate 0.794295
Core_0_LLC_demand_access 8110848
Core_0_LLC_demand_hit 1667350
Core_0_LLC_demand_miss 6443498
Core_0_LLC_demand_MPKI 128.87
Core_0_LLC_demand_miss_rate 0.79443
Core_0_LLC_load_access 8110309
Core_0_LLC_load_hit 1666811
Core_0_LLC_load_miss 6443498
Core_0_LLC_load_MPKI 128.87
Core_0_LLC_load_miss_rate 0.794482
Core_0_LLC_rfo_access 539
Core_0_LLC_rfo_hit 539
Core_0_LLC_rfo_miss 0
Core_0_LLC_rfo_MPKI 0
Core_0_LLC_rfo_miss_rate 0
Core_0_LLC_prefetch_access 0
Core_0_LLC_prefetch_hit 0
Core_0_LLC_prefetch_miss 0
Core_0_LLC_prefetch_MPKI 0
Core_0_LLC_prefetch_miss_rate 0
Core_0_LLC_writeback_access 17408
Core_0_LLC_writeback_hit 4672
Core_0_LLC_writeback_miss 12736
Core_0_LLC_writeback_MPKI 0.25472
Core_0_LLC_writeback_miss_rate 0.731618
Core_0_LLC_prefetch_requested 0
Core_0_LLC_prefetch_issued 0
Core_0_LLC_prefetch_useful 0
Core_0_LLC_prefetch_useless 0
Core_0_LLC_prefetch_late 0
Core_0_LLC_prefetch_accuracy 0
Core_0_LLC_prefetch_coverage 0

[DRAM Statistics]
Channel_0_RQ_row_buffer_hit 9313
Channel_0_RQ_row_buffer_miss 6483148
Channel_0_WQ_row_buffer_hit 3351
Channel_0_WQ_row_buffer_miss 12960
Channel_0_WQ_full 0
Channel_0_dbus_congested 1343395
DRAM_total_RQ_row_buffer_hit 9313
DRAM_total_RQ_row_buffer_miss 6483148
DRAM_total_WQ_row_buffer_hit 3351
DRAM_total_WQ_row_buffer_miss 12960
DRAM_total_WQ_full 0
DRAM_total_dbus_congested 1343395
DRAM_avg_congested_cycle 17.0572

====== DRAM_RQ_TRAFFIC ========
DRAM_RQ_READ_TRAFFIC_BREAKDOWN:
data_demand_read.count = 6443498
data_demand_read.share = 99.25%

inst_demand_read.count = 0
inst_demand_read.share = 0.00%

cache_inst_prefetch.count = 0
cache_inst_prefetch.share = 0.00%

cache_data_prefetch.count = 0
cache_data_prefetch.share = 0.00%

stlb_data_demand.count = 48964
stlb_data_demand.share = 0.75%

stlb_inst_demand.count = 0
stlb_inst_demand.share = 0.00%

stlb_l1i_pref.count = 0
stlb_l1i_pref.share = 0.00%

stlb_l1d_pref.count = 0
stlb_l1d_pref.share = 0.00%

DRAM_RQ_READ_TRAFFIC_SUMMARY:
cache_demand.count = 6443498
cache_demand.share = 99.25%

cache_prefetch.count = 0
cache_prefetch.share = 0.00%

stlb_demand.count = 48964
stlb_demand.share = 0.75%

stlb_prefetch.count = 0
stlb_prefetch.share = 0.00%

DRAM_RQ_READ_TRAFFIC_DEBUG:
total_classified_read.count = 6492462
unclassified_read.count = 0
total_read_with_other.count = 6492462

classified_plus_unclassified_check.count = 6492462
dram_rq_read_total_observed.count = 6492462
dram_rq_read_total_observed.per_1K_instructions = 129.849

STLB_MISS_PTW_DRAM_TOUCH_BREAKDOWN:
stlb_miss_total.count = 7112499

stlb_miss_touch_dram.count = 48951
stlb_miss_touch_dram.share = 0.69%

stlb_miss_no_dram_touch.count = 7063548
stlb_miss_no_dram_touch.share = 99.31%

STLB_MISS_PTW_DRAM_TOUCH_DEBUG:
stlb_miss_touch_plus_no_touch.count = 7112499
stlb_miss_total_check.count = 7112499

======STLB miss causes ========
Core_0_STLB_miss_cause_breakdown
Core_0_STLB_cause_Demand_Data_miss 7112499
Core_0_STLB_cause_Demand_Data_miss_rate 0.84421
Core_0_STLB_cause_Demand_Instruction_miss 0
Core_0_STLB_cause_Demand_Instruction_miss_rate 0
Core_0_STLB_cause_L1D_Prefetch_miss 0
Core_0_STLB_cause_L1D_Prefetch_miss_rate 0
Core_0_STLB_cause_L1I_Prefetch_miss 0
Core_0_STLB_cause_L1I_Prefetch_miss_rate 0
Core_0_STLB_cause_Other_miss 0
Core_0_STLB_cause_Other_miss_rate 0
Core_0_STLB_Demand_miss 7112499
Core_0_STLB_Demand_miss_rate 0.84421
Core_0_STLB_L1D_Prefetch_miss 0
Core_0_STLB_L1D_Prefetch_miss_rate 0
Core_0_STLB_Other_miss 0
Core_0_STLB_Other_miss_rate 0
