[VMEM] WARNING: physical memory size is smaller than virtual memory size.

*** ChampSim Multicore Out-of-Order Simulator ***
Warmup Instructions: 20000000
Simulation Instructions: 50000000
Number of CPUs: 1
Page size: 4096
Core 0: /data2/zcq/champsim_traces_gap/pr.twitter-2161B.champsimtrace.xz
Off-chip DRAM Size: 16 GiB Channels: 1 Width: 64-bit Data Rate: 3205 MT/s
Warmup halting CPU 0 at instruction 20000001 cycle 9961634 for remainder of phase
Warmup finished CPU 0 instructions: 20000001 cycles: 9961634 cumulative IPC: 2.008 (Simulation time: 00 hr 02 min 10 sec)
Warmup complete CPU 0 instructions: 20000001 cycles: 9961634 cumulative IPC: 2.008 (Simulation time: 00 hr 02 min 10 sec)
Simulation CPU 0 warning: IPC 0.032915 < 0.05
Simulation CPU 0 warning: IPC 0.031477 < 0.05
Simulation CPU 0 warning: IPC 0.032154 < 0.05
Simulation CPU 0 warning: IPC 0.030937 < 0.05
Simulation CPU 0 warning: IPC 0.033861 < 0.05
Simulation CPU 0 warning: IPC 0.029942 < 0.05
Simulation CPU 0 warning: IPC 0.031479 < 0.05
Simulation CPU 0 warning: IPC 0.029259 < 0.05
Simulation CPU 0 warning: IPC 0.032115 < 0.05
Simulation CPU 0 warning: IPC 0.031771 < 0.05
Simulation CPU 0 warning: IPC 0.032023 < 0.05
Simulation CPU 0 warning: IPC 0.031481 < 0.05
Simulation CPU 0 warning: IPC 0.033183 < 0.05
Simulation CPU 0 warning: IPC 0.035097 < 0.05
Simulation CPU 0 warning: IPC 0.030267 < 0.05
Simulation CPU 0 warning: IPC 0.033054 < 0.05
Simulation CPU 0 warning: IPC 0.034144 < 0.05
Simulation CPU 0 warning: IPC 0.03049 < 0.05
Simulation CPU 0 warning: IPC 0.030663 < 0.05
Simulation CPU 0 warning: IPC 0.030188 < 0.05
Simulation CPU 0 warning: IPC 0.035921 < 0.05
Simulation CPU 0 warning: IPC 0.037772 < 0.05
Simulation CPU 0 warning: IPC 0.034755 < 0.05
Simulation CPU 0 warning: IPC 0.036729 < 0.05
Simulation CPU 0 warning: IPC 0.037096 < 0.05
Simulation CPU 0 warning: IPC 0.038867 < 0.05
Simulation CPU 0 warning: IPC 0.037472 < 0.05
Simulation CPU 0 warning: IPC 0.031103 < 0.05
Simulation CPU 0 warning: IPC 0.027235 < 0.05
Simulation CPU 0 warning: IPC 0.028018 < 0.05
Simulation CPU 0 warning: IPC 0.030213 < 0.05
Simulation CPU 0 warning: IPC 0.030457 < 0.05
Simulation CPU 0 warning: IPC 0.028946 < 0.05
Simulation CPU 0 warning: IPC 0.033041 < 0.05
Simulation CPU 0 warning: IPC 0.049543 < 0.05
Simulation CPU 0 warning: IPC 0.048574 < 0.05
Simulation CPU 0 warning: IPC 0.040453 < 0.05
Simulation CPU 0 warning: IPC 0.043641 < 0.05
Simulation CPU 0 warning: IPC 0.02893 < 0.05
Simulation CPU 0 warning: IPC 0.031853 < 0.05
Simulation CPU 0 warning: IPC 0.025298 < 0.05
Simulation CPU 0 warning: IPC 0.024846 < 0.05
Simulation CPU 0 warning: IPC 0.031298 < 0.05
Simulation CPU 0 warning: IPC 0.032957 < 0.05
Simulation CPU 0 warning: IPC 0.026137 < 0.05
Simulation CPU 0 warning: IPC 0.029354 < 0.05
Simulation CPU 0 warning: IPC 0.037892 < 0.05
Simulation CPU 0 warning: IPC 0.040282 < 0.05
Simulation CPU 0 warning: IPC 0.045615 < 0.05
Simulation CPU 0 warning: IPC 0.048529 < 0.05
Simulation CPU 0 warning: IPC 0.047326 < 0.05
Simulation CPU 0 warning: IPC 0.032355 < 0.05
Simulation CPU 0 warning: IPC 0.041193 < 0.05
Simulation CPU 0 warning: IPC 0.048335 < 0.05
Simulation CPU 0 warning: IPC 0.029581 < 0.05
Simulation CPU 0 warning: IPC 0.046805 < 0.05
Simulation CPU 0 warning: IPC 0.045618 < 0.05
Simulation CPU 0 warning: IPC 0.049457 < 0.05
Simulation finished CPU 0 instructions: 50000001 cycles: 988309442 cumulative IPC: 0.05059 (Simulation time: 01 hr 21 min 17 sec)
Simulation complete CPU 0 instructions: 50000001 cycles: 988309442 cumulative IPC: 0.05059 (Simulation time: 01 hr 21 min 17 sec)

ChampSim completed all CPUs

=== Simulation ===
CPU 0 runs /data2/zcq/champsim_traces_gap/pr.twitter-2161B.champsimtrace.xz

Region of Interest Statistics

CPU 0 cumulative IPC: 0.05059 instructions: 50000001 cycles: 988309442
CPU 0 Branch Prediction Accuracy: 98.3% MPKI: 3.322 Average ROB Occupancy at Mispredict: 257.9
Branch type MPKI
BRANCH_DIRECT_JUMP: 0
BRANCH_INDIRECT: 0
BRANCH_CONDITIONAL: 3.322
BRANCH_DIRECT_CALL: 0
BRANCH_INDIRECT_CALL: 0
BRANCH_RETURN: 0

cpu0->cpu0_STLB TOTAL        ACCESS:    4168474 HIT:     873085 MISS:    3295389 MSHR_MERGE:          0
cpu0->cpu0_STLB LOAD         ACCESS:    4168474 HIT:     873085 MISS:    3295389 MSHR_MERGE:          0
cpu0->cpu0_STLB RFO          ACCESS:          0 HIT:          0 MISS:          0 MSHR_MERGE:          0
cpu0->cpu0_STLB PREFETCH     ACCESS:          0 HIT:          0 MISS:          0 MSHR_MERGE:          0
cpu0->cpu0_STLB WRITE        ACCESS:          0 HIT:          0 MISS:          0 MSHR_MERGE:          0
cpu0->cpu0_STLB TRANSLATION  ACCESS:          0 HIT:          0 MISS:          0 MSHR_MERGE:          0
cpu0->cpu0_STLB PREFETCH REQUESTED:          0 ISSUED:          0 USEFUL:          0 USELESS:          0 LATE:          0
cpu0->cpu0_STLB AVERAGE MISS LATENCY: 29.7 cycles
cpu0->cpu0_L2C TOTAL        ACCESS:    8375654 HIT:    2003818 MISS:    6371836 MSHR_MERGE:          0
cpu0->cpu0_L2C LOAD         ACCESS:    5440111 HIT:     639005 MISS:    4801106 MSHR_MERGE:          0
cpu0->cpu0_L2C RFO          ACCESS:       5035 HIT:       4847 MISS:        188 MSHR_MERGE:          0
cpu0->cpu0_L2C PREFETCH     ACCESS:          0 HIT:          0 MISS:          0 MSHR_MERGE:          0
cpu0->cpu0_L2C WRITE        ACCESS:      20201 HIT:      20201 MISS:          0 MSHR_MERGE:          0
cpu0->cpu0_L2C TRANSLATION  ACCESS:    2910307 HIT:    1339765 MISS:    1570542 MSHR_MERGE:          0
cpu0->cpu0_L2C PREFETCH REQUESTED:          0 ISSUED:          0 USEFUL:          0 USELESS:          0 LATE:          0
cpu0->cpu0_L2C AVERAGE MISS LATENCY: 142.2 cycles
cpu0->cpu0_L1I TOTAL        ACCESS:    7587514 HIT:    7587514 MISS:          0 MSHR_MERGE:          0
cpu0->cpu0_L1I LOAD         ACCESS:    7587514 HIT:    7587514 MISS:          0 MSHR_MERGE:          0
cpu0->cpu0_L1I RFO          ACCESS:          0 HIT:          0 MISS:          0 MSHR_MERGE:          0
cpu0->cpu0_L1I PREFETCH     ACCESS:          0 HIT:          0 MISS:          0 MSHR_MERGE:          0
cpu0->cpu0_L1I WRITE        ACCESS:          0 HIT:          0 MISS:          0 MSHR_MERGE:          0
cpu0->cpu0_L1I TRANSLATION  ACCESS:          0 HIT:          0 MISS:          0 MSHR_MERGE:          0
cpu0->cpu0_L1I PREFETCH REQUESTED:          0 ISSUED:          0 USEFUL:          0 USELESS:          0 LATE:          0
cpu0->cpu0_L1I AVERAGE MISS LATENCY: - cycles
cpu0->cpu0_L1D TOTAL        ACCESS:   26918571 HIT:   16165780 MISS:   10752791 MSHR_MERGE:    2397340
cpu0->cpu0_L1D LOAD         ACCESS:   19312854 HIT:   11485476 MISS:    7827378 MSHR_MERGE:    2387269
cpu0->cpu0_L1D RFO          ACCESS:          0 HIT:          0 MISS:          0 MSHR_MERGE:          0
cpu0->cpu0_L1D PREFETCH     ACCESS:          0 HIT:          0 MISS:          0 MSHR_MERGE:          0
cpu0->cpu0_L1D WRITE        ACCESS:     186444 HIT:     171339 MISS:      15105 MSHR_MERGE:      10070
cpu0->cpu0_L1D TRANSLATION  ACCESS:    7419273 HIT:    4508965 MISS:    2910308 MSHR_MERGE:          1
cpu0->cpu0_L1D PREFETCH REQUESTED:          0 ISSUED:          0 USEFUL:          0 USELESS:          0 LATE:          0
cpu0->cpu0_L1D AVERAGE MISS LATENCY: 117.2 cycles
cpu0->cpu0_ITLB TOTAL        ACCESS:    7587512 HIT:    7587512 MISS:          0 MSHR_MERGE:          0
cpu0->cpu0_ITLB LOAD         ACCESS:    7587512 HIT:    7587512 MISS:          0 MSHR_MERGE:          0
cpu0->cpu0_ITLB RFO          ACCESS:          0 HIT:          0 MISS:          0 MSHR_MERGE:          0
cpu0->cpu0_ITLB PREFETCH     ACCESS:          0 HIT:          0 MISS:          0 MSHR_MERGE:          0
cpu0->cpu0_ITLB WRITE        ACCESS:          0 HIT:          0 MISS:          0 MSHR_MERGE:          0
cpu0->cpu0_ITLB TRANSLATION  ACCESS:          0 HIT:          0 MISS:          0 MSHR_MERGE:          0
cpu0->cpu0_ITLB PREFETCH REQUESTED:          0 ISSUED:          0 USEFUL:          0 USELESS:          0 LATE:          0
cpu0->cpu0_ITLB AVERAGE MISS LATENCY: - cycles
cpu0->cpu0_DTLB TOTAL        ACCESS:   19494979 HIT:   15276659 MISS:    4218320 MSHR_MERGE:      49846
cpu0->cpu0_DTLB LOAD         ACCESS:   19494979 HIT:   15276659 MISS:    4218320 MSHR_MERGE:      49846
cpu0->cpu0_DTLB RFO          ACCESS:          0 HIT:          0 MISS:          0 MSHR_MERGE:          0
cpu0->cpu0_DTLB PREFETCH     ACCESS:          0 HIT:          0 MISS:          0 MSHR_MERGE:          0
cpu0->cpu0_DTLB WRITE        ACCESS:          0 HIT:          0 MISS:          0 MSHR_MERGE:          0
cpu0->cpu0_DTLB TRANSLATION  ACCESS:          0 HIT:          0 MISS:          0 MSHR_MERGE:          0
cpu0->cpu0_DTLB PREFETCH REQUESTED:          0 ISSUED:          0 USEFUL:          0 USELESS:          0 LATE:          0
cpu0->cpu0_DTLB AVERAGE MISS LATENCY: 29.27 cycles
cpu0->LLC TOTAL        ACCESS:    6382426 HIT:    1893280 MISS:    4489146 MSHR_MERGE:          0
cpu0->LLC LOAD         ACCESS:    4801106 HIT:     366302 MISS:    4434804 MSHR_MERGE:          0
cpu0->LLC RFO          ACCESS:        188 HIT:        188 MISS:          0 MSHR_MERGE:          0
cpu0->LLC PREFETCH     ACCESS:          0 HIT:          0 MISS:          0 MSHR_MERGE:          0
cpu0->LLC WRITE        ACCESS:      10590 HIT:       2369 MISS:       8221 MSHR_MERGE:          0
cpu0->LLC TRANSLATION  ACCESS:    1570542 HIT:    1524421 MISS:      46121 MSHR_MERGE:          0
cpu0->LLC PREFETCH REQUESTED:          0 ISSUED:          0 USEFUL:          0 USELESS:          0 LATE:          0
cpu0->LLC AVERAGE MISS LATENCY: 179.5 cycles

DRAM Statistics

Channel 0 RQ ROW_BUFFER_HIT:      48779
  ROW_BUFFER_MISS:    4432146
  AVG DBUS CONGESTED CYCLE: 18.1
Channel 0 WQ ROW_BUFFER_HIT:       2172
  ROW_BUFFER_MISS:       8327
  FULL:          0
Channel 0 REFRESHES ISSUED:      82359

[ROI Statistics]
[System Configuration]
num_cpus 1
cpu_freq 4000
fetch_width 6
decode_width 6
dispatch_width 6
execute_width 6
lq_width 2
sq_width 2
retire_width 6
scheduler_size 128
branch_mispredict_penalty 15
rob_size 352
lq_size 128
sq_size 72
ifetch_buffer_size 64
decode_buffer_size 32
dispatch_buffer_size 32
register_file_size 288
decode_latency 1
dispatch_latency 1
schedule_latency 1
execute_latency 1
page_size 4096
block_size 64
core_0_itlb_set 16
core_0_itlb_way 4
core_0_itlb_rq_size 16
core_0_itlb_wq_size 16
core_0_itlb_pq_size 0
core_0_itlb_mshr_size 8
core_0_itlb_hit_latency 1
core_0_itlb_fill_latency 1
core_0_itlb_max_tag_check 2
core_0_itlb_max_fill 2
core_0_dtlb_set 16
core_0_dtlb_way 4
core_0_dtlb_rq_size 16
core_0_dtlb_wq_size 16
core_0_dtlb_pq_size 0
core_0_dtlb_mshr_size 8
core_0_dtlb_hit_latency 1
core_0_dtlb_fill_latency 1
core_0_dtlb_max_tag_check 2
core_0_dtlb_max_fill 2
core_0_stlb_set 128
core_0_stlb_way 12
core_0_stlb_rq_size 32
core_0_stlb_wq_size 32
core_0_stlb_pq_size 0
core_0_stlb_mshr_size 16
core_0_stlb_hit_latency 4
core_0_stlb_fill_latency 4
core_0_stlb_max_tag_check 1
core_0_stlb_max_fill 1
core_0_l1i_set 64
core_0_l1i_way 8
core_0_l1i_rq_size 64
core_0_l1i_wq_size 64
core_0_l1i_pq_size 32
core_0_l1i_mshr_size 8
core_0_l1i_hit_latency 2
core_0_l1i_fill_latency 2
core_0_l1i_max_tag_check 2
core_0_l1i_max_fill 2
core_0_l1d_set 64
core_0_l1d_way 12
core_0_l1d_rq_size 64
core_0_l1d_wq_size 64
core_0_l1d_pq_size 8
core_0_l1d_mshr_size 16
core_0_l1d_hit_latency 2
core_0_l1d_fill_latency 3
core_0_l1d_max_tag_check 2
core_0_l1d_max_fill 2
core_0_l2c_set 1024
core_0_l2c_way 8
core_0_l2c_rq_size 32
core_0_l2c_wq_size 32
core_0_l2c_pq_size 16
core_0_l2c_mshr_size 32
core_0_l2c_hit_latency 5
core_0_l2c_fill_latency 5
core_0_l2c_max_tag_check 1
core_0_l2c_max_fill 1
llc_set 2048
llc_way 16
llc_rq_size 32
llc_wq_size 32
llc_pq_size 32
llc_mshr_size 64
llc_hit_latency 10
llc_fill_latency 10
llc_max_tag_check 1
llc_max_fill 1
dram_channels 1
dram_ranks 1
dram_bankgroups 8
dram_banks 4
dram_rows 65536
dram_columns 1024
dram_channel_width 8
dram_rq_size 64
dram_wq_size 64
dram_size 17179869184
core_0_itlb_prefetcher no
core_0_dtlb_prefetcher no
core_0_stlb_prefetcher no
core_0_l1i_prefetcher no
core_0_l1d_prefetcher no
core_0_l2c_prefetcher no
llc_prefetcher no
llc_replacement drrip

Core_0_instructions 50000001
Core_0_cycles 988309442
Core_0_IPC 0.0505914
Core_0_branch_prediction_accuracy 98.302
Core_0_branch_MPKI 3.32186
Core_0_average_ROB_occupancy_at_mispredict 257.871

Core_0_ITLB_total_access 7587512
Core_0_ITLB_total_hit 7587512
Core_0_ITLB_total_miss 0
Core_0_ITLB_total_MPKI 0
Core_0_ITLB_total_miss_rate 0
Core_0_ITLB_demand_access 7587512
Core_0_ITLB_demand_hit 7587512
Core_0_ITLB_demand_miss 0
Core_0_ITLB_demand_MPKI 0
Core_0_ITLB_demand_miss_rate 0
Core_0_ITLB_load_access 7587512
Core_0_ITLB_load_hit 7587512
Core_0_ITLB_load_miss 0
Core_0_ITLB_load_MPKI 0
Core_0_ITLB_load_miss_rate 0
Core_0_ITLB_rfo_access 0
Core_0_ITLB_rfo_hit 0
Core_0_ITLB_rfo_miss 0
Core_0_ITLB_rfo_MPKI 0
Core_0_ITLB_rfo_miss_rate 0
Core_0_ITLB_prefetch_access 0
Core_0_ITLB_prefetch_hit 0
Core_0_ITLB_prefetch_miss 0
Core_0_ITLB_prefetch_MPKI 0
Core_0_ITLB_prefetch_miss_rate 0
Core_0_ITLB_writeback_access 0
Core_0_ITLB_writeback_hit 0
Core_0_ITLB_writeback_miss 0
Core_0_ITLB_writeback_MPKI 0
Core_0_ITLB_writeback_miss_rate 0
Core_0_ITLB_prefetch_requested 0
Core_0_ITLB_prefetch_issued 0
Core_0_ITLB_prefetch_useful 0
Core_0_ITLB_prefetch_useless 0
Core_0_ITLB_prefetch_late 0
Core_0_ITLB_prefetch_accuracy 0
Core_0_ITLB_prefetch_coverage 0

Core_0_DTLB_total_access 19494979
Core_0_DTLB_total_hit 15276659
Core_0_DTLB_total_miss 4218320
Core_0_DTLB_total_MPKI 84.3664
Core_0_DTLB_total_miss_rate 0.21638
Core_0_DTLB_demand_access 19494979
Core_0_DTLB_demand_hit 15276659
Core_0_DTLB_demand_miss 4218320
Core_0_DTLB_demand_MPKI 84.3664
Core_0_DTLB_demand_miss_rate 0.21638
Core_0_DTLB_load_access 19494979
Core_0_DTLB_load_hit 15276659
Core_0_DTLB_load_miss 4218320
Core_0_DTLB_load_MPKI 84.3664
Core_0_DTLB_load_miss_rate 0.21638
Core_0_DTLB_rfo_access 0
Core_0_DTLB_rfo_hit 0
Core_0_DTLB_rfo_miss 0
Core_0_DTLB_rfo_MPKI 0
Core_0_DTLB_rfo_miss_rate 0
Core_0_DTLB_prefetch_access 0
Core_0_DTLB_prefetch_hit 0
Core_0_DTLB_prefetch_miss 0
Core_0_DTLB_prefetch_MPKI 0
Core_0_DTLB_prefetch_miss_rate 0
Core_0_DTLB_writeback_access 0
Core_0_DTLB_writeback_hit 0
Core_0_DTLB_writeback_miss 0
Core_0_DTLB_writeback_MPKI 0
Core_0_DTLB_writeback_miss_rate 0
Core_0_DTLB_prefetch_requested 0
Core_0_DTLB_prefetch_issued 0
Core_0_DTLB_prefetch_useful 0
Core_0_DTLB_prefetch_useless 0
Core_0_DTLB_prefetch_late 0
Core_0_DTLB_prefetch_accuracy 0
Core_0_DTLB_prefetch_coverage 0

Core_0_STLB_total_access 4168474
Core_0_STLB_total_hit 873085
Core_0_STLB_total_miss 3295389
Core_0_STLB_total_MPKI 65.9078
Core_0_STLB_total_miss_rate 0.79055
Core_0_STLB_demand_access 4168474
Core_0_STLB_demand_hit 873085
Core_0_STLB_demand_miss 3295389
Core_0_STLB_demand_MPKI 65.9078
Core_0_STLB_demand_miss_rate 0.79055
Core_0_STLB_load_access 4168474
Core_0_STLB_load_hit 873085
Core_0_STLB_load_miss 3295389
Core_0_STLB_load_MPKI 65.9078
Core_0_STLB_load_miss_rate 0.79055
Core_0_STLB_rfo_access 0
Core_0_STLB_rfo_hit 0
Core_0_STLB_rfo_miss 0
Core_0_STLB_rfo_MPKI 0
Core_0_STLB_rfo_miss_rate 0
Core_0_STLB_prefetch_access 0
Core_0_STLB_prefetch_hit 0
Core_0_STLB_prefetch_miss 0
Core_0_STLB_prefetch_MPKI 0
Core_0_STLB_prefetch_miss_rate 0
Core_0_STLB_writeback_access 0
Core_0_STLB_writeback_hit 0
Core_0_STLB_writeback_miss 0
Core_0_STLB_writeback_MPKI 0
Core_0_STLB_writeback_miss_rate 0
Core_0_STLB_prefetch_requested 0
Core_0_STLB_prefetch_issued 0
Core_0_STLB_prefetch_useful 0
Core_0_STLB_prefetch_useless 0
Core_0_STLB_prefetch_late 0
Core_0_STLB_prefetch_accuracy 0
Core_0_STLB_prefetch_coverage 0

Core_0_L1I_total_access 7587514
Core_0_L1I_total_hit 7587514
Core_0_L1I_total_miss 0
Core_0_L1I_total_MPKI 0
Core_0_L1I_total_miss_rate 0
Core_0_L1I_demand_access 7587514
Core_0_L1I_demand_hit 7587514
Core_0_L1I_demand_miss 0
Core_0_L1I_demand_MPKI 0
Core_0_L1I_demand_miss_rate 0
Core_0_L1I_load_access 7587514
Core_0_L1I_load_hit 7587514
Core_0_L1I_load_miss 0
Core_0_L1I_load_MPKI 0
Core_0_L1I_load_miss_rate 0
Core_0_L1I_rfo_access 0
Core_0_L1I_rfo_hit 0
Core_0_L1I_rfo_miss 0
Core_0_L1I_rfo_MPKI 0
Core_0_L1I_rfo_miss_rate 0
Core_0_L1I_prefetch_access 0
Core_0_L1I_prefetch_hit 0
Core_0_L1I_prefetch_miss 0
Core_0_L1I_prefetch_MPKI 0
Core_0_L1I_prefetch_miss_rate 0
Core_0_L1I_writeback_access 0
Core_0_L1I_writeback_hit 0
Core_0_L1I_writeback_miss 0
Core_0_L1I_writeback_MPKI 0
Core_0_L1I_writeback_miss_rate 0
Core_0_L1I_prefetch_requested 0
Core_0_L1I_prefetch_issued 0
Core_0_L1I_prefetch_useful 0
Core_0_L1I_prefetch_useless 0
Core_0_L1I_prefetch_late 0
Core_0_L1I_prefetch_accuracy 0
Core_0_L1I_prefetch_coverage 0

Core_0_L1D_total_access 19499298
Core_0_L1D_total_hit 11656815
Core_0_L1D_total_miss 7842483
Core_0_L1D_total_MPKI 156.85
Core_0_L1D_total_miss_rate 0.402193
Core_0_L1D_demand_access 19312854
Core_0_L1D_demand_hit 11485476
Core_0_L1D_demand_miss 7827378
Core_0_L1D_demand_MPKI 156.548
Core_0_L1D_demand_miss_rate 0.405294
Core_0_L1D_load_access 19312854
Core_0_L1D_load_hit 11485476
Core_0_L1D_load_miss 7827378
Core_0_L1D_load_MPKI 156.548
Core_0_L1D_load_miss_rate 0.405294
Core_0_L1D_rfo_access 0
Core_0_L1D_rfo_hit 0
Core_0_L1D_rfo_miss 0
Core_0_L1D_rfo_MPKI 0
Core_0_L1D_rfo_miss_rate 0
Core_0_L1D_prefetch_access 0
Core_0_L1D_prefetch_hit 0
Core_0_L1D_prefetch_miss 0
Core_0_L1D_prefetch_MPKI 0
Core_0_L1D_prefetch_miss_rate 0
Core_0_L1D_writeback_access 186444
Core_0_L1D_writeback_hit 171339
Core_0_L1D_writeback_miss 15105
Core_0_L1D_writeback_MPKI 0.3021
Core_0_L1D_writeback_miss_rate 0.0810163
Core_0_L1D_prefetch_requested 0
Core_0_L1D_prefetch_issued 0
Core_0_L1D_prefetch_useful 0
Core_0_L1D_prefetch_useless 0
Core_0_L1D_prefetch_late 0
Core_0_L1D_prefetch_accuracy 0
Core_0_L1D_prefetch_coverage 0

Core_0_L2C_total_access 5465347
Core_0_L2C_total_hit 664053
Core_0_L2C_total_miss 4801294
Core_0_L2C_total_MPKI 96.0259
Core_0_L2C_total_miss_rate 0.878498
Core_0_L2C_demand_access 5445146
Core_0_L2C_demand_hit 643852
Core_0_L2C_demand_miss 4801294
Core_0_L2C_demand_MPKI 96.0259
Core_0_L2C_demand_miss_rate 0.881757
Core_0_L2C_load_access 5440111
Core_0_L2C_load_hit 639005
Core_0_L2C_load_miss 4801106
Core_0_L2C_load_MPKI 96.0221
Core_0_L2C_load_miss_rate 0.882538
Core_0_L2C_rfo_access 5035
Core_0_L2C_rfo_hit 4847
Core_0_L2C_rfo_miss 188
Core_0_L2C_rfo_MPKI 0.00376
Core_0_L2C_rfo_miss_rate 0.0373386
Core_0_L2C_prefetch_access 0
Core_0_L2C_prefetch_hit 0
Core_0_L2C_prefetch_miss 0
Core_0_L2C_prefetch_MPKI 0
Core_0_L2C_prefetch_miss_rate 0
Core_0_L2C_writeback_access 20201
Core_0_L2C_writeback_hit 20201
Core_0_L2C_writeback_miss 0
Core_0_L2C_writeback_MPKI 0
Core_0_L2C_writeback_miss_rate 0
Core_0_L2C_prefetch_requested 0
Core_0_L2C_prefetch_issued 0
Core_0_L2C_prefetch_useful 0
Core_0_L2C_prefetch_useless 0
Core_0_L2C_prefetch_late 0
Core_0_L2C_prefetch_accuracy 0
Core_0_L2C_prefetch_coverage 0

Core_0_LLC_total_access 4811884
Core_0_LLC_total_hit 368859
Core_0_LLC_total_miss 4443025
Core_0_LLC_total_MPKI 88.8605
Core_0_LLC_total_miss_rate 0.923344
Core_0_LLC_demand_access 4801294
Core_0_LLC_demand_hit 366490
Core_0_LLC_demand_miss 4434804
Core_0_LLC_demand_MPKI 88.6961
Core_0_LLC_demand_miss_rate 0.923668
Core_0_LLC_load_access 4801106
Core_0_LLC_load_hit 366302
Core_0_LLC_load_miss 4434804
Core_0_LLC_load_MPKI 88.6961
Core_0_LLC_load_miss_rate 0.923705
Core_0_LLC_rfo_access 188
Core_0_LLC_rfo_hit 188
Core_0_LLC_rfo_miss 0
Core_0_LLC_rfo_MPKI 0
Core_0_LLC_rfo_miss_rate 0
Core_0_LLC_prefetch_access 0
Core_0_LLC_prefetch_hit 0
Core_0_LLC_prefetch_miss 0
Core_0_LLC_prefetch_MPKI 0
Core_0_LLC_prefetch_miss_rate 0
Core_0_LLC_writeback_access 10590
Core_0_LLC_writeback_hit 2369
Core_0_LLC_writeback_miss 8221
Core_0_LLC_writeback_MPKI 0.16442
Core_0_LLC_writeback_miss_rate 0.776298
Core_0_LLC_prefetch_requested 0
Core_0_LLC_prefetch_issued 0
Core_0_LLC_prefetch_useful 0
Core_0_LLC_prefetch_useless 0
Core_0_LLC_prefetch_late 0
Core_0_LLC_prefetch_accuracy 0
Core_0_LLC_prefetch_coverage 0

[DRAM Statistics]
Channel_0_RQ_row_buffer_hit 48779
Channel_0_RQ_row_buffer_miss 4432146
Channel_0_WQ_row_buffer_hit 2172
Channel_0_WQ_row_buffer_miss 8327
Channel_0_WQ_full 0
Channel_0_dbus_congested 2701151
DRAM_total_RQ_row_buffer_hit 48779
DRAM_total_RQ_row_buffer_miss 4432146
DRAM_total_WQ_row_buffer_hit 2172
DRAM_total_WQ_row_buffer_miss 8327
DRAM_total_WQ_full 0
DRAM_total_dbus_congested 2701151
DRAM_avg_congested_cycle 18.1011

====== DRAM_RQ_TRAFFIC ========
DRAM_RQ_READ_TRAFFIC_BREAKDOWN:
data_demand_read.count = 4434804
data_demand_read.share = 98.97%

inst_demand_read.count = 0
inst_demand_read.share = 0.00%

cache_inst_prefetch.count = 0
cache_inst_prefetch.share = 0.00%

cache_data_prefetch.count = 0
cache_data_prefetch.share = 0.00%

stlb_data_demand.count = 46121
stlb_data_demand.share = 1.03%

stlb_inst_demand.count = 0
stlb_inst_demand.share = 0.00%

stlb_l1i_pref.count = 0
stlb_l1i_pref.share = 0.00%

stlb_l1d_pref.count = 0
stlb_l1d_pref.share = 0.00%

DRAM_RQ_READ_TRAFFIC_SUMMARY:
cache_demand.count = 4434804
cache_demand.share = 98.97%

cache_prefetch.count = 0
cache_prefetch.share = 0.00%

stlb_demand.count = 46121
stlb_demand.share = 1.03%

stlb_prefetch.count = 0
stlb_prefetch.share = 0.00%

DRAM_RQ_READ_TRAFFIC_DEBUG:
total_classified_read.count = 4480925
unclassified_read.count = 0
total_read_with_other.count = 4480925

classified_plus_unclassified_check.count = 4480925
dram_rq_read_total_observed.count = 4480925
dram_rq_read_total_observed.per_1K_instructions = 89.6185

STLB_MISS_PTW_DRAM_TOUCH_BREAKDOWN:
stlb_miss_total.count = 3295389

stlb_miss_touch_dram.count = 46082
stlb_miss_touch_dram.share = 1.40%

stlb_miss_no_dram_touch.count = 3249307
stlb_miss_no_dram_touch.share = 98.60%

STLB_MISS_PTW_DRAM_TOUCH_DEBUG:
stlb_miss_touch_plus_no_touch.count = 3295389
stlb_miss_total_check.count = 3295389

======STLB miss causes ========
Core_0_STLB_miss_cause_breakdown
Core_0_STLB_cause_Demand_Data_miss 3295389
Core_0_STLB_cause_Demand_Data_miss_rate 0.79055
Core_0_STLB_cause_Demand_Instruction_miss 0
Core_0_STLB_cause_Demand_Instruction_miss_rate 0
Core_0_STLB_cause_L1D_Prefetch_miss 0
Core_0_STLB_cause_L1D_Prefetch_miss_rate 0
Core_0_STLB_cause_L1I_Prefetch_miss 0
Core_0_STLB_cause_L1I_Prefetch_miss_rate 0
Core_0_STLB_cause_Other_miss 0
Core_0_STLB_cause_Other_miss_rate 0
Core_0_STLB_Demand_miss 3295389
Core_0_STLB_Demand_miss_rate 0.79055
Core_0_STLB_L1D_Prefetch_miss 0
Core_0_STLB_L1D_Prefetch_miss_rate 0
Core_0_STLB_Other_miss 0
Core_0_STLB_Other_miss_rate 0
