[VMEM] WARNING: physical memory size is smaller than virtual memory size.

*** ChampSim Multicore Out-of-Order Simulator ***
Warmup Instructions: 20000000
Simulation Instructions: 50000000
Number of CPUs: 1
Page size: 4096
Core 0: /data2/zcq/champsim_traces_gap/pr.urand-2209B.champsimtrace.xz
Off-chip DRAM Size: 16 GiB Channels: 1 Width: 64-bit Data Rate: 3205 MT/s
Warmup halting CPU 0 at instruction 20000005 cycle 17618393 for remainder of phase
Warmup finished CPU 0 instructions: 20000005 cycles: 17618393 cumulative IPC: 1.135 (Simulation time: 00 hr 03 min 42 sec)
Warmup complete CPU 0 instructions: 20000005 cycles: 17618393 cumulative IPC: 1.135 (Simulation time: 00 hr 03 min 42 sec)
Simulation CPU 0 warning: IPC 0.021645 < 0.05
Simulation CPU 0 warning: IPC 0.021605 < 0.05
Simulation CPU 0 warning: IPC 0.021578 < 0.05
Simulation CPU 0 warning: IPC 0.021655 < 0.05
Simulation CPU 0 warning: IPC 0.021598 < 0.05
Simulation CPU 0 warning: IPC 0.021614 < 0.05
Simulation CPU 0 warning: IPC 0.021628 < 0.05
Simulation CPU 0 warning: IPC 0.021591 < 0.05
Simulation CPU 0 warning: IPC 0.021617 < 0.05
Simulation CPU 0 warning: IPC 0.021669 < 0.05
Simulation CPU 0 warning: IPC 0.021647 < 0.05
Simulation CPU 0 warning: IPC 0.021667 < 0.05
Simulation CPU 0 warning: IPC 0.021642 < 0.05
Simulation CPU 0 warning: IPC 0.021611 < 0.05
Simulation CPU 0 warning: IPC 0.021584 < 0.05
Simulation CPU 0 warning: IPC 0.021635 < 0.05
Simulation CPU 0 warning: IPC 0.02165 < 0.05
Simulation CPU 0 warning: IPC 0.021642 < 0.05
Simulation CPU 0 warning: IPC 0.021635 < 0.05
Simulation CPU 0 warning: IPC 0.021625 < 0.05
Simulation CPU 0 warning: IPC 0.021611 < 0.05
Simulation CPU 0 warning: IPC 0.021606 < 0.05
Simulation CPU 0 warning: IPC 0.021607 < 0.05
Simulation CPU 0 warning: IPC 0.021662 < 0.05
Simulation CPU 0 warning: IPC 0.02161 < 0.05
Simulation CPU 0 warning: IPC 0.021622 < 0.05
Simulation CPU 0 warning: IPC 0.021622 < 0.05
Simulation CPU 0 warning: IPC 0.021679 < 0.05
Simulation CPU 0 warning: IPC 0.021599 < 0.05
Simulation CPU 0 warning: IPC 0.021606 < 0.05
Simulation CPU 0 warning: IPC 0.021611 < 0.05
Simulation CPU 0 warning: IPC 0.021656 < 0.05
Simulation CPU 0 warning: IPC 0.021648 < 0.05
Simulation CPU 0 warning: IPC 0.021656 < 0.05
Simulation CPU 0 warning: IPC 0.021643 < 0.05
Simulation CPU 0 warning: IPC 0.021623 < 0.05
Simulation CPU 0 warning: IPC 0.021584 < 0.05
Simulation CPU 0 warning: IPC 0.021595 < 0.05
Simulation CPU 0 warning: IPC 0.021566 < 0.05
Simulation CPU 0 warning: IPC 0.021607 < 0.05
Simulation CPU 0 warning: IPC 0.021635 < 0.05
Simulation CPU 0 warning: IPC 0.021634 < 0.05
Simulation CPU 0 warning: IPC 0.02161 < 0.05
Simulation CPU 0 warning: IPC 0.021618 < 0.05
Simulation CPU 0 warning: IPC 0.021657 < 0.05
Simulation CPU 0 warning: IPC 0.021628 < 0.05
Simulation CPU 0 warning: IPC 0.021642 < 0.05
Simulation CPU 0 warning: IPC 0.021663 < 0.05
Simulation CPU 0 warning: IPC 0.021646 < 0.05
Simulation CPU 0 warning: IPC 0.021646 < 0.05
Simulation CPU 0 warning: IPC 0.021618 < 0.05
Simulation CPU 0 warning: IPC 0.021601 < 0.05
Simulation CPU 0 warning: IPC 0.021623 < 0.05
Simulation CPU 0 warning: IPC 0.021626 < 0.05
Simulation CPU 0 warning: IPC 0.021652 < 0.05
Simulation CPU 0 warning: IPC 0.021647 < 0.05
Simulation CPU 0 warning: IPC 0.021559 < 0.05
Simulation CPU 0 warning: IPC 0.021622 < 0.05
Simulation CPU 0 warning: IPC 0.021591 < 0.05
Simulation CPU 0 warning: IPC 0.021605 < 0.05
Simulation CPU 0 warning: IPC 0.021623 < 0.05
Simulation CPU 0 warning: IPC 0.021693 < 0.05
Simulation CPU 0 warning: IPC 0.021663 < 0.05
Simulation CPU 0 warning: IPC 0.021638 < 0.05
Simulation CPU 0 warning: IPC 0.021625 < 0.05
Simulation CPU 0 warning: IPC 0.021634 < 0.05
Simulation CPU 0 warning: IPC 0.021606 < 0.05
Simulation CPU 0 warning: IPC 0.021613 < 0.05
Simulation CPU 0 warning: IPC 0.021598 < 0.05
Simulation CPU 0 warning: IPC 0.02159 < 0.05
Simulation CPU 0 warning: IPC 0.021647 < 0.05
Simulation CPU 0 warning: IPC 0.021613 < 0.05
Simulation CPU 0 warning: IPC 0.021665 < 0.05
Simulation CPU 0 warning: IPC 0.021625 < 0.05
Simulation CPU 0 warning: IPC 0.021665 < 0.05
Simulation CPU 0 warning: IPC 0.021621 < 0.05
Simulation CPU 0 warning: IPC 0.021639 < 0.05
Simulation CPU 0 warning: IPC 0.021636 < 0.05
Simulation CPU 0 warning: IPC 0.021605 < 0.05
Simulation CPU 0 warning: IPC 0.021643 < 0.05
Simulation CPU 0 warning: IPC 0.021629 < 0.05
Simulation CPU 0 warning: IPC 0.021605 < 0.05
Simulation CPU 0 warning: IPC 0.021625 < 0.05
Simulation CPU 0 warning: IPC 0.021582 < 0.05
Simulation CPU 0 warning: IPC 0.021638 < 0.05
Simulation CPU 0 warning: IPC 0.021621 < 0.05
Simulation CPU 0 warning: IPC 0.021599 < 0.05
Simulation CPU 0 warning: IPC 0.021614 < 0.05
Simulation CPU 0 warning: IPC 0.021649 < 0.05
Simulation CPU 0 warning: IPC 0.021627 < 0.05
Simulation CPU 0 warning: IPC 0.021605 < 0.05
Simulation CPU 0 warning: IPC 0.021631 < 0.05
Simulation CPU 0 warning: IPC 0.021618 < 0.05
Simulation CPU 0 warning: IPC 0.021654 < 0.05
Simulation CPU 0 warning: IPC 0.021608 < 0.05
Simulation CPU 0 warning: IPC 0.021665 < 0.05
Simulation CPU 0 warning: IPC 0.021625 < 0.05
Simulation CPU 0 warning: IPC 0.021635 < 0.05
Simulation CPU 0 warning: IPC 0.021628 < 0.05
Simulation CPU 0 warning: IPC 0.021682 < 0.05
Simulation CPU 0 warning: IPC 0.021667 < 0.05
Simulation CPU 0 warning: IPC 0.021662 < 0.05
Simulation CPU 0 warning: IPC 0.021632 < 0.05
Simulation CPU 0 warning: IPC 0.021634 < 0.05
Simulation CPU 0 warning: IPC 0.021579 < 0.05
Simulation CPU 0 warning: IPC 0.021637 < 0.05
Simulation CPU 0 warning: IPC 0.021625 < 0.05
Simulation CPU 0 warning: IPC 0.021626 < 0.05
Simulation CPU 0 warning: IPC 0.021643 < 0.05
Simulation CPU 0 warning: IPC 0.021576 < 0.05
Simulation CPU 0 warning: IPC 0.021594 < 0.05
Simulation CPU 0 warning: IPC 0.021616 < 0.05
Simulation CPU 0 warning: IPC 0.021634 < 0.05
Simulation CPU 0 warning: IPC 0.021564 < 0.05
Simulation CPU 0 warning: IPC 0.021594 < 0.05
Simulation CPU 0 warning: IPC 0.021624 < 0.05
Simulation CPU 0 warning: IPC 0.021575 < 0.05
Simulation CPU 0 warning: IPC 0.021596 < 0.05
Simulation CPU 0 warning: IPC 0.021612 < 0.05
Simulation CPU 0 warning: IPC 0.021568 < 0.05
Simulation CPU 0 warning: IPC 0.021558 < 0.05
Simulation CPU 0 warning: IPC 0.021638 < 0.05
Simulation CPU 0 warning: IPC 0.021631 < 0.05
Simulation CPU 0 warning: IPC 0.021608 < 0.05
Simulation CPU 0 warning: IPC 0.02165 < 0.05
Simulation CPU 0 warning: IPC 0.021635 < 0.05
Simulation CPU 0 warning: IPC 0.021622 < 0.05
Simulation CPU 0 warning: IPC 0.021642 < 0.05
Simulation CPU 0 warning: IPC 0.021601 < 0.05
Simulation CPU 0 warning: IPC 0.021613 < 0.05
Simulation CPU 0 warning: IPC 0.021639 < 0.05
Simulation CPU 0 warning: IPC 0.02165 < 0.05
Simulation CPU 0 warning: IPC 0.021607 < 0.05
Simulation CPU 0 warning: IPC 0.021615 < 0.05
Simulation CPU 0 warning: IPC 0.021636 < 0.05
Simulation CPU 0 warning: IPC 0.021672 < 0.05
Simulation CPU 0 warning: IPC 0.021644 < 0.05
Simulation CPU 0 warning: IPC 0.021647 < 0.05
Simulation CPU 0 warning: IPC 0.021585 < 0.05
Simulation CPU 0 warning: IPC 0.021631 < 0.05
Simulation CPU 0 warning: IPC 0.021601 < 0.05
Simulation CPU 0 warning: IPC 0.021604 < 0.05
Simulation CPU 0 warning: IPC 0.021592 < 0.05
Simulation CPU 0 warning: IPC 0.021618 < 0.05
Simulation CPU 0 warning: IPC 0.021637 < 0.05
Simulation CPU 0 warning: IPC 0.021625 < 0.05
Simulation CPU 0 warning: IPC 0.021626 < 0.05
Simulation CPU 0 warning: IPC 0.021651 < 0.05
Simulation CPU 0 warning: IPC 0.021657 < 0.05
Simulation CPU 0 warning: IPC 0.021637 < 0.05
Simulation CPU 0 warning: IPC 0.021628 < 0.05
Simulation CPU 0 warning: IPC 0.021673 < 0.05
Simulation CPU 0 warning: IPC 0.021649 < 0.05
Simulation CPU 0 warning: IPC 0.021637 < 0.05
Simulation CPU 0 warning: IPC 0.021623 < 0.05
Simulation CPU 0 warning: IPC 0.021618 < 0.05
Simulation CPU 0 warning: IPC 0.021619 < 0.05
Simulation CPU 0 warning: IPC 0.021636 < 0.05
Simulation CPU 0 warning: IPC 0.021625 < 0.05
Simulation CPU 0 warning: IPC 0.021595 < 0.05
Simulation CPU 0 warning: IPC 0.021598 < 0.05
Simulation CPU 0 warning: IPC 0.021608 < 0.05
Simulation CPU 0 warning: IPC 0.021646 < 0.05
Simulation CPU 0 warning: IPC 0.02161 < 0.05
Simulation CPU 0 warning: IPC 0.02165 < 0.05
Simulation CPU 0 warning: IPC 0.021626 < 0.05
Simulation CPU 0 warning: IPC 0.021647 < 0.05
Simulation CPU 0 warning: IPC 0.02162 < 0.05
Simulation CPU 0 warning: IPC 0.021652 < 0.05
Simulation CPU 0 warning: IPC 0.021636 < 0.05
Simulation CPU 0 warning: IPC 0.021655 < 0.05
Simulation CPU 0 warning: IPC 0.021635 < 0.05
Simulation CPU 0 warning: IPC 0.021625 < 0.05
Simulation CPU 0 warning: IPC 0.021587 < 0.05
Simulation CPU 0 warning: IPC 0.021625 < 0.05
Simulation CPU 0 warning: IPC 0.021623 < 0.05
Simulation CPU 0 warning: IPC 0.021627 < 0.05
Simulation CPU 0 warning: IPC 0.021597 < 0.05
Simulation CPU 0 warning: IPC 0.021663 < 0.05
Simulation CPU 0 warning: IPC 0.021632 < 0.05
Simulation CPU 0 warning: IPC 0.021664 < 0.05
Simulation CPU 0 warning: IPC 0.021671 < 0.05
Simulation CPU 0 warning: IPC 0.021645 < 0.05
Simulation CPU 0 warning: IPC 0.021626 < 0.05
Simulation CPU 0 warning: IPC 0.021652 < 0.05
Simulation CPU 0 warning: IPC 0.021634 < 0.05
Simulation CPU 0 warning: IPC 0.021678 < 0.05
Simulation CPU 0 warning: IPC 0.021654 < 0.05
Simulation CPU 0 warning: IPC 0.021635 < 0.05
Simulation CPU 0 warning: IPC 0.02164 < 0.05
Simulation CPU 0 warning: IPC 0.021613 < 0.05
Simulation CPU 0 warning: IPC 0.021653 < 0.05
Simulation CPU 0 warning: IPC 0.021627 < 0.05
Simulation CPU 0 warning: IPC 0.021636 < 0.05
Simulation CPU 0 warning: IPC 0.021642 < 0.05
Simulation CPU 0 warning: IPC 0.02165 < 0.05
Simulation CPU 0 warning: IPC 0.021611 < 0.05
Simulation CPU 0 warning: IPC 0.021642 < 0.05
Simulation CPU 0 warning: IPC 0.02159 < 0.05
Simulation CPU 0 warning: IPC 0.021633 < 0.05
Simulation CPU 0 warning: IPC 0.021563 < 0.05
Simulation CPU 0 warning: IPC 0.021661 < 0.05
Simulation CPU 0 warning: IPC 0.021639 < 0.05
Simulation CPU 0 warning: IPC 0.021653 < 0.05
Simulation CPU 0 warning: IPC 0.021633 < 0.05
Simulation CPU 0 warning: IPC 0.021627 < 0.05
Simulation CPU 0 warning: IPC 0.021621 < 0.05
Simulation CPU 0 warning: IPC 0.021628 < 0.05
Simulation CPU 0 warning: IPC 0.021669 < 0.05
Simulation CPU 0 warning: IPC 0.021627 < 0.05
Simulation CPU 0 warning: IPC 0.021648 < 0.05
Simulation CPU 0 warning: IPC 0.021656 < 0.05
Simulation CPU 0 warning: IPC 0.02161 < 0.05
Simulation CPU 0 warning: IPC 0.021619 < 0.05
Simulation CPU 0 warning: IPC 0.021642 < 0.05
Simulation CPU 0 warning: IPC 0.021688 < 0.05
Simulation CPU 0 warning: IPC 0.021659 < 0.05
Simulation CPU 0 warning: IPC 0.021664 < 0.05
Simulation CPU 0 warning: IPC 0.021632 < 0.05
Simulation CPU 0 warning: IPC 0.021628 < 0.05
Simulation CPU 0 warning: IPC 0.021637 < 0.05
Simulation CPU 0 warning: IPC 0.021604 < 0.05
Simulation CPU 0 warning: IPC 0.021594 < 0.05
Simulation CPU 0 warning: IPC 0.02166 < 0.05
Simulation CPU 0 warning: IPC 0.021667 < 0.05
Simulation CPU 0 warning: IPC 0.021652 < 0.05
Simulation CPU 0 warning: IPC 0.02163 < 0.05
Simulation CPU 0 warning: IPC 0.021616 < 0.05
Simulation CPU 0 warning: IPC 0.021622 < 0.05
Simulation CPU 0 warning: IPC 0.021602 < 0.05
Simulation CPU 0 warning: IPC 0.021609 < 0.05
Simulation finished CPU 0 instructions: 50000004 cycles: 2311837756 cumulative IPC: 0.02163 (Simulation time: 02 hr 49 min 55 sec)
Simulation complete CPU 0 instructions: 50000004 cycles: 2311837756 cumulative IPC: 0.02163 (Simulation time: 02 hr 49 min 55 sec)

ChampSim completed all CPUs

=== Simulation ===
CPU 0 runs /data2/zcq/champsim_traces_gap/pr.urand-2209B.champsimtrace.xz

Region of Interest Statistics

CPU 0 cumulative IPC: 0.02163 instructions: 50000004 cycles: 2311837756
CPU 0 Branch Prediction Accuracy: 97.02% MPKI: 5.68 Average ROB Occupancy at Mispredict: 346.1
Branch type MPKI
BRANCH_DIRECT_JUMP: 0
BRANCH_INDIRECT: 0
BRANCH_CONDITIONAL: 5.68
BRANCH_DIRECT_CALL: 0
BRANCH_INDIRECT_CALL: 0
BRANCH_RETURN: 0

cpu0->cpu0_STLB TOTAL        ACCESS:    9103023 HIT:     230365 MISS:    8872658 MSHR_MERGE:          0
cpu0->cpu0_STLB LOAD         ACCESS:    9103023 HIT:     230365 MISS:    8872658 MSHR_MERGE:          0
cpu0->cpu0_STLB RFO          ACCESS:          0 HIT:          0 MISS:          0 MSHR_MERGE:          0
cpu0->cpu0_STLB PREFETCH     ACCESS:          0 HIT:          0 MISS:          0 MSHR_MERGE:          0
cpu0->cpu0_STLB WRITE        ACCESS:          0 HIT:          0 MISS:          0 MSHR_MERGE:          0
cpu0->cpu0_STLB TRANSLATION  ACCESS:          0 HIT:          0 MISS:          0 MSHR_MERGE:          0
cpu0->cpu0_STLB PREFETCH REQUESTED:          0 ISSUED:          0 USEFUL:          0 USELESS:          0 LATE:          0
cpu0->cpu0_STLB AVERAGE MISS LATENCY: 37.22 cycles
cpu0->cpu0_L2C TOTAL        ACCESS:   18376044 HIT:    1852215 MISS:   16523829 MSHR_MERGE:          0
cpu0->cpu0_L2C LOAD         ACCESS:    9598926 HIT:      37472 MISS:    9561454 MSHR_MERGE:          0
cpu0->cpu0_L2C RFO          ACCESS:       8738 HIT:       8504 MISS:        234 MSHR_MERGE:          0
cpu0->cpu0_L2C PREFETCH     ACCESS:          0 HIT:          0 MISS:          0 MSHR_MERGE:          0
cpu0->cpu0_L2C WRITE        ACCESS:      30578 HIT:      30573 MISS:          5 MSHR_MERGE:          0
cpu0->cpu0_L2C TRANSLATION  ACCESS:    8737802 HIT:    1775666 MISS:    6962136 MSHR_MERGE:          0
cpu0->cpu0_L2C PREFETCH REQUESTED:          0 ISSUED:          0 USEFUL:          0 USELESS:          0 LATE:          0
cpu0->cpu0_L2C AVERAGE MISS LATENCY: 121.5 cycles
cpu0->cpu0_L1I TOTAL        ACCESS:     176537 HIT:     176537 MISS:          0 MSHR_MERGE:          0
cpu0->cpu0_L1I LOAD         ACCESS:     176537 HIT:     176537 MISS:          0 MSHR_MERGE:          0
cpu0->cpu0_L1I RFO          ACCESS:          0 HIT:          0 MISS:          0 MSHR_MERGE:          0
cpu0->cpu0_L1I PREFETCH     ACCESS:          0 HIT:          0 MISS:          0 MSHR_MERGE:          0
cpu0->cpu0_L1I WRITE        ACCESS:          0 HIT:          0 MISS:          0 MSHR_MERGE:          0
cpu0->cpu0_L1I TRANSLATION  ACCESS:          0 HIT:          0 MISS:          0 MSHR_MERGE:          0
cpu0->cpu0_L1I PREFETCH REQUESTED:          0 ISSUED:          0 USEFUL:          0 USELESS:          0 LATE:          0
cpu0->cpu0_L1I AVERAGE MISS LATENCY: - cycles
cpu0->cpu0_L1D TOTAL        ACCESS:   44682129 HIT:   25972698 MISS:   18709431 MSHR_MERGE:     363966
cpu0->cpu0_L1D LOAD         ACCESS:   18812111 HIT:    8866699 MISS:    9945412 MSHR_MERGE:     346487
cpu0->cpu0_L1D RFO          ACCESS:          0 HIT:          0 MISS:          0 MSHR_MERGE:          0
cpu0->cpu0_L1D PREFETCH     ACCESS:          0 HIT:          0 MISS:          0 MSHR_MERGE:          0
cpu0->cpu0_L1D WRITE        ACCESS:     318917 HIT:     292703 MISS:      26214 MSHR_MERGE:      17476
cpu0->cpu0_L1D TRANSLATION  ACCESS:   25551101 HIT:   16813296 MISS:    8737805 MSHR_MERGE:          3
cpu0->cpu0_L1D PREFETCH REQUESTED:          0 ISSUED:          0 USEFUL:          0 USELESS:          0 LATE:          0
cpu0->cpu0_L1D AVERAGE MISS LATENCY: 118.3 cycles
cpu0->cpu0_ITLB TOTAL        ACCESS:     176530 HIT:     176530 MISS:          0 MSHR_MERGE:          0
cpu0->cpu0_ITLB LOAD         ACCESS:     176530 HIT:     176530 MISS:          0 MSHR_MERGE:          0
cpu0->cpu0_ITLB RFO          ACCESS:          0 HIT:          0 MISS:          0 MSHR_MERGE:          0
cpu0->cpu0_ITLB PREFETCH     ACCESS:          0 HIT:          0 MISS:          0 MSHR_MERGE:          0
cpu0->cpu0_ITLB WRITE        ACCESS:          0 HIT:          0 MISS:          0 MSHR_MERGE:          0
cpu0->cpu0_ITLB TRANSLATION  ACCESS:          0 HIT:          0 MISS:          0 MSHR_MERGE:          0
cpu0->cpu0_ITLB PREFETCH REQUESTED:          0 ISSUED:          0 USEFUL:          0 USELESS:          0 LATE:          0
cpu0->cpu0_ITLB AVERAGE MISS LATENCY: - cycles
cpu0->cpu0_DTLB TOTAL        ACCESS:   19126653 HIT:    9993451 MISS:    9133202 MSHR_MERGE:      30180
cpu0->cpu0_DTLB LOAD         ACCESS:   19126653 HIT:    9993451 MISS:    9133202 MSHR_MERGE:      30180
cpu0->cpu0_DTLB RFO          ACCESS:          0 HIT:          0 MISS:          0 MSHR_MERGE:          0
cpu0->cpu0_DTLB PREFETCH     ACCESS:          0 HIT:          0 MISS:          0 MSHR_MERGE:          0
cpu0->cpu0_DTLB WRITE        ACCESS:          0 HIT:          0 MISS:          0 MSHR_MERGE:          0
cpu0->cpu0_DTLB TRANSLATION  ACCESS:          0 HIT:          0 MISS:          0 MSHR_MERGE:          0
cpu0->cpu0_DTLB PREFETCH REQUESTED:          0 ISSUED:          0 USEFUL:          0 USELESS:          0 LATE:          0
cpu0->cpu0_DTLB AVERAGE MISS LATENCY: 42.25 cycles
cpu0->LLC TOTAL        ACCESS:   16541770 HIT:    6844843 MISS:    9696927 MSHR_MERGE:          0
cpu0->LLC LOAD         ACCESS:    9561454 HIT:      15254 MISS:    9546200 MSHR_MERGE:          0
cpu0->LLC RFO          ACCESS:        234 HIT:        234 MISS:          0 MSHR_MERGE:          0
cpu0->LLC PREFETCH     ACCESS:          0 HIT:          0 MISS:          0 MSHR_MERGE:          0
cpu0->LLC WRITE        ACCESS:      17946 HIT:       4207 MISS:      13739 MSHR_MERGE:          0
cpu0->LLC TRANSLATION  ACCESS:    6962136 HIT:    6825148 MISS:     136988 MSHR_MERGE:          0
cpu0->LLC PREFETCH REQUESTED:          0 ISSUED:          0 USEFUL:          0 USELESS:          0 LATE:          0
cpu0->LLC AVERAGE MISS LATENCY: 180.5 cycles

DRAM Statistics

Channel 0 RQ ROW_BUFFER_HIT:        102
  ROW_BUFFER_MISS:    9683086
  AVG DBUS CONGESTED CYCLE: 18.42
Channel 0 WQ ROW_BUFFER_HIT:       1366
  ROW_BUFFER_MISS:      16224
  FULL:          0
Channel 0 REFRESHES ISSUED:     192653

[ROI Statistics]
[System Configuration]
num_cpus 1
cpu_freq 4000
fetch_width 6
decode_width 6
dispatch_width 6
execute_width 6
lq_width 2
sq_width 2
retire_width 6
scheduler_size 128
branch_mispredict_penalty 15
rob_size 352
lq_size 128
sq_size 72
ifetch_buffer_size 64
decode_buffer_size 32
dispatch_buffer_size 32
register_file_size 288
decode_latency 1
dispatch_latency 1
schedule_latency 1
execute_latency 1
page_size 4096
block_size 64
core_0_itlb_set 16
core_0_itlb_way 4
core_0_itlb_rq_size 16
core_0_itlb_wq_size 16
core_0_itlb_pq_size 0
core_0_itlb_mshr_size 8
core_0_itlb_hit_latency 1
core_0_itlb_fill_latency 1
core_0_itlb_max_tag_check 2
core_0_itlb_max_fill 2
core_0_dtlb_set 16
core_0_dtlb_way 4
core_0_dtlb_rq_size 16
core_0_dtlb_wq_size 16
core_0_dtlb_pq_size 0
core_0_dtlb_mshr_size 8
core_0_dtlb_hit_latency 1
core_0_dtlb_fill_latency 1
core_0_dtlb_max_tag_check 2
core_0_dtlb_max_fill 2
core_0_stlb_set 128
core_0_stlb_way 12
core_0_stlb_rq_size 32
core_0_stlb_wq_size 32
core_0_stlb_pq_size 0
core_0_stlb_mshr_size 16
core_0_stlb_hit_latency 4
core_0_stlb_fill_latency 4
core_0_stlb_max_tag_check 1
core_0_stlb_max_fill 1
core_0_l1i_set 64
core_0_l1i_way 8
core_0_l1i_rq_size 64
core_0_l1i_wq_size 64
core_0_l1i_pq_size 32
core_0_l1i_mshr_size 8
core_0_l1i_hit_latency 2
core_0_l1i_fill_latency 2
core_0_l1i_max_tag_check 2
core_0_l1i_max_fill 2
core_0_l1d_set 64
core_0_l1d_way 12
core_0_l1d_rq_size 64
core_0_l1d_wq_size 64
core_0_l1d_pq_size 8
core_0_l1d_mshr_size 16
core_0_l1d_hit_latency 2
core_0_l1d_fill_latency 3
core_0_l1d_max_tag_check 2
core_0_l1d_max_fill 2
core_0_l2c_set 1024
core_0_l2c_way 8
core_0_l2c_rq_size 32
core_0_l2c_wq_size 32
core_0_l2c_pq_size 16
core_0_l2c_mshr_size 32
core_0_l2c_hit_latency 5
core_0_l2c_fill_latency 5
core_0_l2c_max_tag_check 1
core_0_l2c_max_fill 1
llc_set 2048
llc_way 16
llc_rq_size 32
llc_wq_size 32
llc_pq_size 32
llc_mshr_size 64
llc_hit_latency 10
llc_fill_latency 10
llc_max_tag_check 1
llc_max_fill 1
dram_channels 1
dram_ranks 1
dram_bankgroups 8
dram_banks 4
dram_rows 65536
dram_columns 1024
dram_channel_width 8
dram_rq_size 64
dram_wq_size 64
dram_size 17179869184
core_0_itlb_prefetcher no
core_0_dtlb_prefetcher no
core_0_stlb_prefetcher no
core_0_l1i_prefetcher no
core_0_l1d_prefetcher no
core_0_l2c_prefetcher no
llc_prefetcher no
llc_replacement drrip

Core_0_instructions 50000004
Core_0_cycles 2311837756
Core_0_IPC 0.0216278
Core_0_branch_prediction_accuracy 97.0249
Core_0_branch_MPKI 5.68034
Core_0_average_ROB_occupancy_at_mispredict 346.071

Core_0_ITLB_total_access 176530
Core_0_ITLB_total_hit 176530
Core_0_ITLB_total_miss 0
Core_0_ITLB_total_MPKI 0
Core_0_ITLB_total_miss_rate 0
Core_0_ITLB_demand_access 176530
Core_0_ITLB_demand_hit 176530
Core_0_ITLB_demand_miss 0
Core_0_ITLB_demand_MPKI 0
Core_0_ITLB_demand_miss_rate 0
Core_0_ITLB_load_access 176530
Core_0_ITLB_load_hit 176530
Core_0_ITLB_load_miss 0
Core_0_ITLB_load_MPKI 0
Core_0_ITLB_load_miss_rate 0
Core_0_ITLB_rfo_access 0
Core_0_ITLB_rfo_hit 0
Core_0_ITLB_rfo_miss 0
Core_0_ITLB_rfo_MPKI 0
Core_0_ITLB_rfo_miss_rate 0
Core_0_ITLB_prefetch_access 0
Core_0_ITLB_prefetch_hit 0
Core_0_ITLB_prefetch_miss 0
Core_0_ITLB_prefetch_MPKI 0
Core_0_ITLB_prefetch_miss_rate 0
Core_0_ITLB_writeback_access 0
Core_0_ITLB_writeback_hit 0
Core_0_ITLB_writeback_miss 0
Core_0_ITLB_writeback_MPKI 0
Core_0_ITLB_writeback_miss_rate 0
Core_0_ITLB_prefetch_requested 0
Core_0_ITLB_prefetch_issued 0
Core_0_ITLB_prefetch_useful 0
Core_0_ITLB_prefetch_useless 0
Core_0_ITLB_prefetch_late 0
Core_0_ITLB_prefetch_accuracy 0
Core_0_ITLB_prefetch_coverage 0

Core_0_DTLB_total_access 19126653
Core_0_DTLB_total_hit 9993451
Core_0_DTLB_total_miss 9133202
Core_0_DTLB_total_MPKI 182.664
Core_0_DTLB_total_miss_rate 0.477512
Core_0_DTLB_demand_access 19126653
Core_0_DTLB_demand_hit 9993451
Core_0_DTLB_demand_miss 9133202
Core_0_DTLB_demand_MPKI 182.664
Core_0_DTLB_demand_miss_rate 0.477512
Core_0_DTLB_load_access 19126653
Core_0_DTLB_load_hit 9993451
Core_0_DTLB_load_miss 9133202
Core_0_DTLB_load_MPKI 182.664
Core_0_DTLB_load_miss_rate 0.477512
Core_0_DTLB_rfo_access 0
Core_0_DTLB_rfo_hit 0
Core_0_DTLB_rfo_miss 0
Core_0_DTLB_rfo_MPKI 0
Core_0_DTLB_rfo_miss_rate 0
Core_0_DTLB_prefetch_access 0
Core_0_DTLB_prefetch_hit 0
Core_0_DTLB_prefetch_miss 0
Core_0_DTLB_prefetch_MPKI 0
Core_0_DTLB_prefetch_miss_rate 0
Core_0_DTLB_writeback_access 0
Core_0_DTLB_writeback_hit 0
Core_0_DTLB_writeback_miss 0
Core_0_DTLB_writeback_MPKI 0
Core_0_DTLB_writeback_miss_rate 0
Core_0_DTLB_prefetch_requested 0
Core_0_DTLB_prefetch_issued 0
Core_0_DTLB_prefetch_useful 0
Core_0_DTLB_prefetch_useless 0
Core_0_DTLB_prefetch_late 0
Core_0_DTLB_prefetch_accuracy 0
Core_0_DTLB_prefetch_coverage 0

Core_0_STLB_total_access 9103023
Core_0_STLB_total_hit 230365
Core_0_STLB_total_miss 8872658
Core_0_STLB_total_MPKI 177.453
Core_0_STLB_total_miss_rate 0.974694
Core_0_STLB_demand_access 9103023
Core_0_STLB_demand_hit 230365
Core_0_STLB_demand_miss 8872658
Core_0_STLB_demand_MPKI 177.453
Core_0_STLB_demand_miss_rate 0.974694
Core_0_STLB_load_access 9103023
Core_0_STLB_load_hit 230365
Core_0_STLB_load_miss 8872658
Core_0_STLB_load_MPKI 177.453
Core_0_STLB_load_miss_rate 0.974694
Core_0_STLB_rfo_access 0
Core_0_STLB_rfo_hit 0
Core_0_STLB_rfo_miss 0
Core_0_STLB_rfo_MPKI 0
Core_0_STLB_rfo_miss_rate 0
Core_0_STLB_prefetch_access 0
Core_0_STLB_prefetch_hit 0
Core_0_STLB_prefetch_miss 0
Core_0_STLB_prefetch_MPKI 0
Core_0_STLB_prefetch_miss_rate 0
Core_0_STLB_writeback_access 0
Core_0_STLB_writeback_hit 0
Core_0_STLB_writeback_miss 0
Core_0_STLB_writeback_MPKI 0
Core_0_STLB_writeback_miss_rate 0
Core_0_STLB_prefetch_requested 0
Core_0_STLB_prefetch_issued 0
Core_0_STLB_prefetch_useful 0
Core_0_STLB_prefetch_useless 0
Core_0_STLB_prefetch_late 0
Core_0_STLB_prefetch_accuracy 0
Core_0_STLB_prefetch_coverage 0

Core_0_L1I_total_access 176537
Core_0_L1I_total_hit 176537
Core_0_L1I_total_miss 0
Core_0_L1I_total_MPKI 0
Core_0_L1I_total_miss_rate 0
Core_0_L1I_demand_access 176537
Core_0_L1I_demand_hit 176537
Core_0_L1I_demand_miss 0
Core_0_L1I_demand_MPKI 0
Core_0_L1I_demand_miss_rate 0
Core_0_L1I_load_access 176537
Core_0_L1I_load_hit 176537
Core_0_L1I_load_miss 0
Core_0_L1I_load_MPKI 0
Core_0_L1I_load_miss_rate 0
Core_0_L1I_rfo_access 0
Core_0_L1I_rfo_hit 0
Core_0_L1I_rfo_miss 0
Core_0_L1I_rfo_MPKI 0
Core_0_L1I_rfo_miss_rate 0
Core_0_L1I_prefetch_access 0
Core_0_L1I_prefetch_hit 0
Core_0_L1I_prefetch_miss 0
Core_0_L1I_prefetch_MPKI 0
Core_0_L1I_prefetch_miss_rate 0
Core_0_L1I_writeback_access 0
Core_0_L1I_writeback_hit 0
Core_0_L1I_writeback_miss 0
Core_0_L1I_writeback_MPKI 0
Core_0_L1I_writeback_miss_rate 0
Core_0_L1I_prefetch_requested 0
Core_0_L1I_prefetch_issued 0
Core_0_L1I_prefetch_useful 0
Core_0_L1I_prefetch_useless 0
Core_0_L1I_prefetch_late 0
Core_0_L1I_prefetch_accuracy 0
Core_0_L1I_prefetch_coverage 0

Core_0_L1D_total_access 19131028
Core_0_L1D_total_hit 9159402
Core_0_L1D_total_miss 9971626
Core_0_L1D_total_MPKI 199.433
Core_0_L1D_total_miss_rate 0.521228
Core_0_L1D_demand_access 18812111
Core_0_L1D_demand_hit 8866699
Core_0_L1D_demand_miss 9945412
Core_0_L1D_demand_MPKI 198.908
Core_0_L1D_demand_miss_rate 0.528671
Core_0_L1D_load_access 18812111
Core_0_L1D_load_hit 8866699
Core_0_L1D_load_miss 9945412
Core_0_L1D_load_MPKI 198.908
Core_0_L1D_load_miss_rate 0.528671
Core_0_L1D_rfo_access 0
Core_0_L1D_rfo_hit 0
Core_0_L1D_rfo_miss 0
Core_0_L1D_rfo_MPKI 0
Core_0_L1D_rfo_miss_rate 0
Core_0_L1D_prefetch_access 0
Core_0_L1D_prefetch_hit 0
Core_0_L1D_prefetch_miss 0
Core_0_L1D_prefetch_MPKI 0
Core_0_L1D_prefetch_miss_rate 0
Core_0_L1D_writeback_access 318917
Core_0_L1D_writeback_hit 292703
Core_0_L1D_writeback_miss 26214
Core_0_L1D_writeback_MPKI 0.52428
Core_0_L1D_writeback_miss_rate 0.0821969
Core_0_L1D_prefetch_requested 0
Core_0_L1D_prefetch_issued 0
Core_0_L1D_prefetch_useful 0
Core_0_L1D_prefetch_useless 0
Core_0_L1D_prefetch_late 0
Core_0_L1D_prefetch_accuracy 0
Core_0_L1D_prefetch_coverage 0

Core_0_L2C_total_access 9638242
Core_0_L2C_total_hit 76549
Core_0_L2C_total_miss 9561693
Core_0_L2C_total_MPKI 191.234
Core_0_L2C_total_miss_rate 0.992058
Core_0_L2C_demand_access 9607664
Core_0_L2C_demand_hit 45976
Core_0_L2C_demand_miss 9561688
Core_0_L2C_demand_MPKI 191.234
Core_0_L2C_demand_miss_rate 0.995215
Core_0_L2C_load_access 9598926
Core_0_L2C_load_hit 37472
Core_0_L2C_load_miss 9561454
Core_0_L2C_load_MPKI 191.229
Core_0_L2C_load_miss_rate 0.996096
Core_0_L2C_rfo_access 8738
Core_0_L2C_rfo_hit 8504
Core_0_L2C_rfo_miss 234
Core_0_L2C_rfo_MPKI 0.00468
Core_0_L2C_rfo_miss_rate 0.0267796
Core_0_L2C_prefetch_access 0
Core_0_L2C_prefetch_hit 0
Core_0_L2C_prefetch_miss 0
Core_0_L2C_prefetch_MPKI 0
Core_0_L2C_prefetch_miss_rate 0
Core_0_L2C_writeback_access 30578
Core_0_L2C_writeback_hit 30573
Core_0_L2C_writeback_miss 5
Core_0_L2C_writeback_MPKI 0.0001
Core_0_L2C_writeback_miss_rate 0.000163516
Core_0_L2C_prefetch_requested 0
Core_0_L2C_prefetch_issued 0
Core_0_L2C_prefetch_useful 0
Core_0_L2C_prefetch_useless 0
Core_0_L2C_prefetch_late 0
Core_0_L2C_prefetch_accuracy 0
Core_0_L2C_prefetch_coverage 0

Core_0_LLC_total_access 9579634
Core_0_LLC_total_hit 19695
Core_0_LLC_total_miss 9559939
Core_0_LLC_total_MPKI 191.199
Core_0_LLC_total_miss_rate 0.997944
Core_0_LLC_demand_access 9561688
Core_0_LLC_demand_hit 15488
Core_0_LLC_demand_miss 9546200
Core_0_LLC_demand_MPKI 190.924
Core_0_LLC_demand_miss_rate 0.99838
Core_0_LLC_load_access 9561454
Core_0_LLC_load_hit 15254
Core_0_LLC_load_miss 9546200
Core_0_LLC_load_MPKI 190.924
Core_0_LLC_load_miss_rate 0.998405
Core_0_LLC_rfo_access 234
Core_0_LLC_rfo_hit 234
Core_0_LLC_rfo_miss 0
Core_0_LLC_rfo_MPKI 0
Core_0_LLC_rfo_miss_rate 0
Core_0_LLC_prefetch_access 0
Core_0_LLC_prefetch_hit 0
Core_0_LLC_prefetch_miss 0
Core_0_LLC_prefetch_MPKI 0
Core_0_LLC_prefetch_miss_rate 0
Core_0_LLC_writeback_access 17946
Core_0_LLC_writeback_hit 4207
Core_0_LLC_writeback_miss 13739
Core_0_LLC_writeback_MPKI 0.27478
Core_0_LLC_writeback_miss_rate 0.765575
Core_0_LLC_prefetch_requested 0
Core_0_LLC_prefetch_issued 0
Core_0_LLC_prefetch_useful 0
Core_0_LLC_prefetch_useless 0
Core_0_LLC_prefetch_late 0
Core_0_LLC_prefetch_accuracy 0
Core_0_LLC_prefetch_coverage 0

[DRAM Statistics]
Channel_0_RQ_row_buffer_hit 102
Channel_0_RQ_row_buffer_miss 9683086
Channel_0_WQ_row_buffer_hit 1366
Channel_0_WQ_row_buffer_miss 16224
Channel_0_WQ_full 0
Channel_0_dbus_congested 11961856
DRAM_total_RQ_row_buffer_hit 102
DRAM_total_RQ_row_buffer_miss 9683086
DRAM_total_WQ_row_buffer_hit 1366
DRAM_total_WQ_row_buffer_miss 16224
DRAM_total_WQ_full 0
DRAM_total_dbus_congested 11961856
DRAM_avg_congested_cycle 18.4229

====== DRAM_RQ_TRAFFIC ========
DRAM_RQ_READ_TRAFFIC_BREAKDOWN:
data_demand_read.count = 9546200
data_demand_read.share = 98.59%

inst_demand_read.count = 0
inst_demand_read.share = 0.00%

cache_inst_prefetch.count = 0
cache_inst_prefetch.share = 0.00%

cache_data_prefetch.count = 0
cache_data_prefetch.share = 0.00%

stlb_data_demand.count = 136988
stlb_data_demand.share = 1.41%

stlb_inst_demand.count = 0
stlb_inst_demand.share = 0.00%

stlb_l1i_pref.count = 0
stlb_l1i_pref.share = 0.00%

stlb_l1d_pref.count = 0
stlb_l1d_pref.share = 0.00%

DRAM_RQ_READ_TRAFFIC_SUMMARY:
cache_demand.count = 9546200
cache_demand.share = 98.59%

cache_prefetch.count = 0
cache_prefetch.share = 0.00%

stlb_demand.count = 136988
stlb_demand.share = 1.41%

stlb_prefetch.count = 0
stlb_prefetch.share = 0.00%

DRAM_RQ_READ_TRAFFIC_DEBUG:
total_classified_read.count = 9683188
unclassified_read.count = 0
total_read_with_other.count = 9683188

classified_plus_unclassified_check.count = 9683188
dram_rq_read_total_observed.count = 9683188
dram_rq_read_total_observed.per_1K_instructions = 193.664

STLB_MISS_PTW_DRAM_TOUCH_BREAKDOWN:
stlb_miss_total.count = 8872658

stlb_miss_touch_dram.count = 136951
stlb_miss_touch_dram.share = 1.54%

stlb_miss_no_dram_touch.count = 8735707
stlb_miss_no_dram_touch.share = 98.46%

STLB_MISS_PTW_DRAM_TOUCH_DEBUG:
stlb_miss_touch_plus_no_touch.count = 8872658
stlb_miss_total_check.count = 8872658

======STLB miss causes ========
Core_0_STLB_miss_cause_breakdown
Core_0_STLB_cause_Demand_Data_miss 8872658
Core_0_STLB_cause_Demand_Data_miss_rate 0.974694
Core_0_STLB_cause_Demand_Instruction_miss 0
Core_0_STLB_cause_Demand_Instruction_miss_rate 0
Core_0_STLB_cause_L1D_Prefetch_miss 0
Core_0_STLB_cause_L1D_Prefetch_miss_rate 0
Core_0_STLB_cause_L1I_Prefetch_miss 0
Core_0_STLB_cause_L1I_Prefetch_miss_rate 0
Core_0_STLB_cause_Other_miss 0
Core_0_STLB_cause_Other_miss_rate 0
Core_0_STLB_Demand_miss 8872658
Core_0_STLB_Demand_miss_rate 0.974694
Core_0_STLB_L1D_Prefetch_miss 0
Core_0_STLB_L1D_Prefetch_miss_rate 0
Core_0_STLB_Other_miss 0
Core_0_STLB_Other_miss_rate 0
