[VMEM] WARNING: physical memory size is smaller than virtual memory size.

*** ChampSim Multicore Out-of-Order Simulator ***
Warmup Instructions: 20000000
Simulation Instructions: 50000000
Number of CPUs: 1
Page size: 4096
Core 0: /data2/zcq/champsim_traces_gap/pr.web-3076B.champsimtrace.xz
Off-chip DRAM Size: 16 GiB Channels: 1 Width: 64-bit Data Rate: 3205 MT/s
Warmup halting CPU 0 at instruction 20000004 cycle 4734283 for remainder of phase
Warmup finished CPU 0 instructions: 20000004 cycles: 4734283 cumulative IPC: 4.225 (Simulation time: 00 hr 01 min 02 sec)
Warmup complete CPU 0 instructions: 20000004 cycles: 4734283 cumulative IPC: 4.225 (Simulation time: 00 hr 01 min 02 sec)
Simulation finished CPU 0 instructions: 50000001 cycles: 84464839 cumulative IPC: 0.592 (Simulation time: 00 hr 09 min 49 sec)
Simulation complete CPU 0 instructions: 50000001 cycles: 84464839 cumulative IPC: 0.592 (Simulation time: 00 hr 09 min 49 sec)

ChampSim completed all CPUs

=== Simulation ===
CPU 0 runs /data2/zcq/champsim_traces_gap/pr.web-3076B.champsimtrace.xz

Region of Interest Statistics

CPU 0 cumulative IPC: 0.592 instructions: 50000001 cycles: 84464839
CPU 0 Branch Prediction Accuracy: 97.87% MPKI: 3.968 Average ROB Occupancy at Mispredict: 178.7
Branch type MPKI
BRANCH_DIRECT_JUMP: 2e-05
BRANCH_INDIRECT: 0
BRANCH_CONDITIONAL: 3.968
BRANCH_DIRECT_CALL: 0
BRANCH_INDIRECT_CALL: 0
BRANCH_RETURN: 0

cpu0->cpu0_STLB TOTAL        ACCESS:      40343 HIT:      25302 MISS:      15041 MSHR_MERGE:          0
cpu0->cpu0_STLB LOAD         ACCESS:      40343 HIT:      25302 MISS:      15041 MSHR_MERGE:          0
cpu0->cpu0_STLB RFO          ACCESS:          0 HIT:          0 MISS:          0 MSHR_MERGE:          0
cpu0->cpu0_STLB PREFETCH     ACCESS:          0 HIT:          0 MISS:          0 MSHR_MERGE:          0
cpu0->cpu0_STLB WRITE        ACCESS:          0 HIT:          0 MISS:          0 MSHR_MERGE:          0
cpu0->cpu0_STLB TRANSLATION  ACCESS:          0 HIT:          0 MISS:          0 MSHR_MERGE:          0
cpu0->cpu0_STLB PREFETCH REQUESTED:          0 ISSUED:          0 USEFUL:          0 USELESS:          0 LATE:          0
cpu0->cpu0_STLB AVERAGE MISS LATENCY: 256.5 cycles
cpu0->cpu0_L2C TOTAL        ACCESS:    1207201 HIT:     414162 MISS:     793039 MSHR_MERGE:          0
cpu0->cpu0_L2C LOAD         ACCESS:    1172617 HIT:     384528 MISS:     788089 MSHR_MERGE:          0
cpu0->cpu0_L2C RFO          ACCESS:        892 HIT:        871 MISS:         21 MSHR_MERGE:          0
cpu0->cpu0_L2C PREFETCH     ACCESS:          0 HIT:          0 MISS:          0 MSHR_MERGE:          0
cpu0->cpu0_L2C WRITE        ACCESS:      27146 HIT:      27125 MISS:         21 MSHR_MERGE:          0
cpu0->cpu0_L2C TRANSLATION  ACCESS:       6546 HIT:       1638 MISS:       4908 MSHR_MERGE:          0
cpu0->cpu0_L2C PREFETCH REQUESTED:          0 ISSUED:          0 USEFUL:          0 USELESS:          0 LATE:          0
cpu0->cpu0_L2C AVERAGE MISS LATENCY: 159.6 cycles
cpu0->cpu0_L1I TOTAL        ACCESS:    6668880 HIT:    6668879 MISS:          1 MSHR_MERGE:          0
cpu0->cpu0_L1I LOAD         ACCESS:    6668880 HIT:    6668879 MISS:          1 MSHR_MERGE:          0
cpu0->cpu0_L1I RFO          ACCESS:          0 HIT:          0 MISS:          0 MSHR_MERGE:          0
cpu0->cpu0_L1I PREFETCH     ACCESS:          0 HIT:          0 MISS:          0 MSHR_MERGE:          0
cpu0->cpu0_L1I WRITE        ACCESS:          0 HIT:          0 MISS:          0 MSHR_MERGE:          0
cpu0->cpu0_L1I TRANSLATION  ACCESS:          0 HIT:          0 MISS:          0 MSHR_MERGE:          0
cpu0->cpu0_L1I PREFETCH REQUESTED:          0 ISSUED:          0 USEFUL:          0 USELESS:          0 LATE:          0
cpu0->cpu0_L1I AVERAGE MISS LATENCY: 224 cycles
cpu0->cpu0_L1D TOTAL        ACCESS:   18650591 HIT:   10122955 MISS:    8527636 MSHR_MERGE:    7347582
cpu0->cpu0_L1D LOAD         ACCESS:   18144788 HIT:    9626382 MISS:    8518406 MSHR_MERGE:    7345790
cpu0->cpu0_L1D RFO          ACCESS:          0 HIT:          0 MISS:          0 MSHR_MERGE:          0
cpu0->cpu0_L1D PREFETCH     ACCESS:          0 HIT:          0 MISS:          0 MSHR_MERGE:          0
cpu0->cpu0_L1D WRITE        ACCESS:     474136 HIT:     471452 MISS:       2684 MSHR_MERGE:       1792
cpu0->cpu0_L1D TRANSLATION  ACCESS:      31667 HIT:      25121 MISS:       6546 MSHR_MERGE:          0
cpu0->cpu0_L1D PREFETCH REQUESTED:          0 ISSUED:          0 USEFUL:          0 USELESS:          0 LATE:          0
cpu0->cpu0_L1D AVERAGE MISS LATENCY: 115.9 cycles
cpu0->cpu0_ITLB TOTAL        ACCESS:    6636558 HIT:    6636558 MISS:          0 MSHR_MERGE:          0
cpu0->cpu0_ITLB LOAD         ACCESS:    6636558 HIT:    6636558 MISS:          0 MSHR_MERGE:          0
cpu0->cpu0_ITLB RFO          ACCESS:          0 HIT:          0 MISS:          0 MSHR_MERGE:          0
cpu0->cpu0_ITLB PREFETCH     ACCESS:          0 HIT:          0 MISS:          0 MSHR_MERGE:          0
cpu0->cpu0_ITLB WRITE        ACCESS:          0 HIT:          0 MISS:          0 MSHR_MERGE:          0
cpu0->cpu0_ITLB TRANSLATION  ACCESS:          0 HIT:          0 MISS:          0 MSHR_MERGE:          0
cpu0->cpu0_ITLB PREFETCH REQUESTED:          0 ISSUED:          0 USEFUL:          0 USELESS:          0 LATE:          0
cpu0->cpu0_ITLB AVERAGE MISS LATENCY: - cycles
cpu0->cpu0_DTLB TOTAL        ACCESS:   18591371 HIT:   18433057 MISS:     158314 MSHR_MERGE:     117971
cpu0->cpu0_DTLB LOAD         ACCESS:   18591371 HIT:   18433057 MISS:     158314 MSHR_MERGE:     117971
cpu0->cpu0_DTLB RFO          ACCESS:          0 HIT:          0 MISS:          0 MSHR_MERGE:          0
cpu0->cpu0_DTLB PREFETCH     ACCESS:          0 HIT:          0 MISS:          0 MSHR_MERGE:          0
cpu0->cpu0_DTLB WRITE        ACCESS:          0 HIT:          0 MISS:          0 MSHR_MERGE:          0
cpu0->cpu0_DTLB TRANSLATION  ACCESS:          0 HIT:          0 MISS:          0 MSHR_MERGE:          0
cpu0->cpu0_DTLB PREFETCH REQUESTED:          0 ISSUED:          0 USEFUL:          0 USELESS:          0 LATE:          0
cpu0->cpu0_DTLB AVERAGE MISS LATENCY: 101 cycles
cpu0->LLC TOTAL        ACCESS:     818679 HIT:     150121 MISS:     668558 MSHR_MERGE:          0
cpu0->LLC LOAD         ACCESS:     788089 HIT:     127556 MISS:     660533 MSHR_MERGE:          0
cpu0->LLC RFO          ACCESS:         21 HIT:         18 MISS:          3 MSHR_MERGE:          0
cpu0->LLC PREFETCH     ACCESS:          0 HIT:          0 MISS:          0 MSHR_MERGE:          0
cpu0->LLC WRITE        ACCESS:      25661 HIT:      21930 MISS:       3731 MSHR_MERGE:          0
cpu0->LLC TRANSLATION  ACCESS:       4908 HIT:        617 MISS:       4291 MSHR_MERGE:          0
cpu0->LLC PREFETCH REQUESTED:          0 ISSUED:          0 USEFUL:          0 USELESS:          0 LATE:          0
cpu0->LLC AVERAGE MISS LATENCY: 170.5 cycles

DRAM Statistics

Channel 0 RQ ROW_BUFFER_HIT:     126486
  ROW_BUFFER_MISS:     538340
  AVG DBUS CONGESTED CYCLE: 23.38
Channel 0 WQ ROW_BUFFER_HIT:      10119
  ROW_BUFFER_MISS:      13312
  FULL:          0
Channel 0 REFRESHES ISSUED:       7039

[ROI Statistics]
[System Configuration]
num_cpus 1
cpu_freq 4000
fetch_width 6
decode_width 6
dispatch_width 6
execute_width 6
lq_width 2
sq_width 2
retire_width 6
scheduler_size 128
branch_mispredict_penalty 15
rob_size 352
lq_size 128
sq_size 72
ifetch_buffer_size 64
decode_buffer_size 32
dispatch_buffer_size 32
register_file_size 288
decode_latency 1
dispatch_latency 1
schedule_latency 1
execute_latency 1
page_size 4096
block_size 64
core_0_itlb_set 16
core_0_itlb_way 4
core_0_itlb_rq_size 16
core_0_itlb_wq_size 16
core_0_itlb_pq_size 0
core_0_itlb_mshr_size 8
core_0_itlb_hit_latency 1
core_0_itlb_fill_latency 1
core_0_itlb_max_tag_check 2
core_0_itlb_max_fill 2
core_0_dtlb_set 16
core_0_dtlb_way 4
core_0_dtlb_rq_size 16
core_0_dtlb_wq_size 16
core_0_dtlb_pq_size 0
core_0_dtlb_mshr_size 8
core_0_dtlb_hit_latency 1
core_0_dtlb_fill_latency 1
core_0_dtlb_max_tag_check 2
core_0_dtlb_max_fill 2
core_0_stlb_set 128
core_0_stlb_way 12
core_0_stlb_rq_size 32
core_0_stlb_wq_size 32
core_0_stlb_pq_size 0
core_0_stlb_mshr_size 16
core_0_stlb_hit_latency 4
core_0_stlb_fill_latency 4
core_0_stlb_max_tag_check 1
core_0_stlb_max_fill 1
core_0_l1i_set 64
core_0_l1i_way 8
core_0_l1i_rq_size 64
core_0_l1i_wq_size 64
core_0_l1i_pq_size 32
core_0_l1i_mshr_size 8
core_0_l1i_hit_latency 2
core_0_l1i_fill_latency 2
core_0_l1i_max_tag_check 2
core_0_l1i_max_fill 2
core_0_l1d_set 64
core_0_l1d_way 12
core_0_l1d_rq_size 64
core_0_l1d_wq_size 64
core_0_l1d_pq_size 8
core_0_l1d_mshr_size 16
core_0_l1d_hit_latency 2
core_0_l1d_fill_latency 3
core_0_l1d_max_tag_check 2
core_0_l1d_max_fill 2
core_0_l2c_set 1024
core_0_l2c_way 8
core_0_l2c_rq_size 32
core_0_l2c_wq_size 32
core_0_l2c_pq_size 16
core_0_l2c_mshr_size 32
core_0_l2c_hit_latency 5
core_0_l2c_fill_latency 5
core_0_l2c_max_tag_check 1
core_0_l2c_max_fill 1
llc_set 2048
llc_way 16
llc_rq_size 32
llc_wq_size 32
llc_pq_size 32
llc_mshr_size 64
llc_hit_latency 10
llc_fill_latency 10
llc_max_tag_check 1
llc_max_fill 1
dram_channels 1
dram_ranks 1
dram_bankgroups 8
dram_banks 4
dram_rows 65536
dram_columns 1024
dram_channel_width 8
dram_rq_size 64
dram_wq_size 64
dram_size 17179869184
core_0_itlb_prefetcher no
core_0_dtlb_prefetcher no
core_0_stlb_prefetcher no
core_0_l1i_prefetcher no
core_0_l1d_prefetcher no
core_0_l2c_prefetcher no
llc_prefetcher no
llc_replacement drrip

Core_0_instructions 50000001
Core_0_cycles 84464839
Core_0_IPC 0.591962
Core_0_branch_prediction_accuracy 97.8727
Core_0_branch_MPKI 3.96778
Core_0_average_ROB_occupancy_at_mispredict 178.723

Core_0_ITLB_total_access 6636558
Core_0_ITLB_total_hit 6636558
Core_0_ITLB_total_miss 0
Core_0_ITLB_total_MPKI 0
Core_0_ITLB_total_miss_rate 0
Core_0_ITLB_demand_access 6636558
Core_0_ITLB_demand_hit 6636558
Core_0_ITLB_demand_miss 0
Core_0_ITLB_demand_MPKI 0
Core_0_ITLB_demand_miss_rate 0
Core_0_ITLB_load_access 6636558
Core_0_ITLB_load_hit 6636558
Core_0_ITLB_load_miss 0
Core_0_ITLB_load_MPKI 0
Core_0_ITLB_load_miss_rate 0
Core_0_ITLB_rfo_access 0
Core_0_ITLB_rfo_hit 0
Core_0_ITLB_rfo_miss 0
Core_0_ITLB_rfo_MPKI 0
Core_0_ITLB_rfo_miss_rate 0
Core_0_ITLB_prefetch_access 0
Core_0_ITLB_prefetch_hit 0
Core_0_ITLB_prefetch_miss 0
Core_0_ITLB_prefetch_MPKI 0
Core_0_ITLB_prefetch_miss_rate 0
Core_0_ITLB_writeback_access 0
Core_0_ITLB_writeback_hit 0
Core_0_ITLB_writeback_miss 0
Core_0_ITLB_writeback_MPKI 0
Core_0_ITLB_writeback_miss_rate 0
Core_0_ITLB_prefetch_requested 0
Core_0_ITLB_prefetch_issued 0
Core_0_ITLB_prefetch_useful 0
Core_0_ITLB_prefetch_useless 0
Core_0_ITLB_prefetch_late 0
Core_0_ITLB_prefetch_accuracy 0
Core_0_ITLB_prefetch_coverage 0

Core_0_DTLB_total_access 18591371
Core_0_DTLB_total_hit 18433057
Core_0_DTLB_total_miss 158314
Core_0_DTLB_total_MPKI 3.16628
Core_0_DTLB_total_miss_rate 0.00851546
Core_0_DTLB_demand_access 18591371
Core_0_DTLB_demand_hit 18433057
Core_0_DTLB_demand_miss 158314
Core_0_DTLB_demand_MPKI 3.16628
Core_0_DTLB_demand_miss_rate 0.00851546
Core_0_DTLB_load_access 18591371
Core_0_DTLB_load_hit 18433057
Core_0_DTLB_load_miss 158314
Core_0_DTLB_load_MPKI 3.16628
Core_0_DTLB_load_miss_rate 0.00851546
Core_0_DTLB_rfo_access 0
Core_0_DTLB_rfo_hit 0
Core_0_DTLB_rfo_miss 0
Core_0_DTLB_rfo_MPKI 0
Core_0_DTLB_rfo_miss_rate 0
Core_0_DTLB_prefetch_access 0
Core_0_DTLB_prefetch_hit 0
Core_0_DTLB_prefetch_miss 0
Core_0_DTLB_prefetch_MPKI 0
Core_0_DTLB_prefetch_miss_rate 0
Core_0_DTLB_writeback_access 0
Core_0_DTLB_writeback_hit 0
Core_0_DTLB_writeback_miss 0
Core_0_DTLB_writeback_MPKI 0
Core_0_DTLB_writeback_miss_rate 0
Core_0_DTLB_prefetch_requested 0
Core_0_DTLB_prefetch_issued 0
Core_0_DTLB_prefetch_useful 0
Core_0_DTLB_prefetch_useless 0
Core_0_DTLB_prefetch_late 0
Core_0_DTLB_prefetch_accuracy 0
Core_0_DTLB_prefetch_coverage 0

Core_0_STLB_total_access 40343
Core_0_STLB_total_hit 25302
Core_0_STLB_total_miss 15041
Core_0_STLB_total_MPKI 0.30082
Core_0_STLB_total_miss_rate 0.372828
Core_0_STLB_demand_access 40343
Core_0_STLB_demand_hit 25302
Core_0_STLB_demand_miss 15041
Core_0_STLB_demand_MPKI 0.30082
Core_0_STLB_demand_miss_rate 0.372828
Core_0_STLB_load_access 40343
Core_0_STLB_load_hit 25302
Core_0_STLB_load_miss 15041
Core_0_STLB_load_MPKI 0.30082
Core_0_STLB_load_miss_rate 0.372828
Core_0_STLB_rfo_access 0
Core_0_STLB_rfo_hit 0
Core_0_STLB_rfo_miss 0
Core_0_STLB_rfo_MPKI 0
Core_0_STLB_rfo_miss_rate 0
Core_0_STLB_prefetch_access 0
Core_0_STLB_prefetch_hit 0
Core_0_STLB_prefetch_miss 0
Core_0_STLB_prefetch_MPKI 0
Core_0_STLB_prefetch_miss_rate 0
Core_0_STLB_writeback_access 0
Core_0_STLB_writeback_hit 0
Core_0_STLB_writeback_miss 0
Core_0_STLB_writeback_MPKI 0
Core_0_STLB_writeback_miss_rate 0
Core_0_STLB_prefetch_requested 0
Core_0_STLB_prefetch_issued 0
Core_0_STLB_prefetch_useful 0
Core_0_STLB_prefetch_useless 0
Core_0_STLB_prefetch_late 0
Core_0_STLB_prefetch_accuracy 0
Core_0_STLB_prefetch_coverage 0

Core_0_L1I_total_access 6668880
Core_0_L1I_total_hit 6668879
Core_0_L1I_total_miss 1
Core_0_L1I_total_MPKI 2e-05
Core_0_L1I_total_miss_rate 1.4995e-07
Core_0_L1I_demand_access 6668880
Core_0_L1I_demand_hit 6668879
Core_0_L1I_demand_miss 1
Core_0_L1I_demand_MPKI 2e-05
Core_0_L1I_demand_miss_rate 1.4995e-07
Core_0_L1I_load_access 6668880
Core_0_L1I_load_hit 6668879
Core_0_L1I_load_miss 1
Core_0_L1I_load_MPKI 2e-05
Core_0_L1I_load_miss_rate 1.4995e-07
Core_0_L1I_rfo_access 0
Core_0_L1I_rfo_hit 0
Core_0_L1I_rfo_miss 0
Core_0_L1I_rfo_MPKI 0
Core_0_L1I_rfo_miss_rate 0
Core_0_L1I_prefetch_access 0
Core_0_L1I_prefetch_hit 0
Core_0_L1I_prefetch_miss 0
Core_0_L1I_prefetch_MPKI 0
Core_0_L1I_prefetch_miss_rate 0
Core_0_L1I_writeback_access 0
Core_0_L1I_writeback_hit 0
Core_0_L1I_writeback_miss 0
Core_0_L1I_writeback_MPKI 0
Core_0_L1I_writeback_miss_rate 0
Core_0_L1I_prefetch_requested 0
Core_0_L1I_prefetch_issued 0
Core_0_L1I_prefetch_useful 0
Core_0_L1I_prefetch_useless 0
Core_0_L1I_prefetch_late 0
Core_0_L1I_prefetch_accuracy 0
Core_0_L1I_prefetch_coverage 0

Core_0_L1D_total_access 18618924
Core_0_L1D_total_hit 10097834
Core_0_L1D_total_miss 8521090
Core_0_L1D_total_MPKI 170.422
Core_0_L1D_total_miss_rate 0.457657
Core_0_L1D_demand_access 18144788
Core_0_L1D_demand_hit 9626382
Core_0_L1D_demand_miss 8518406
Core_0_L1D_demand_MPKI 170.368
Core_0_L1D_demand_miss_rate 0.469468
Core_0_L1D_load_access 18144788
Core_0_L1D_load_hit 9626382
Core_0_L1D_load_miss 8518406
Core_0_L1D_load_MPKI 170.368
Core_0_L1D_load_miss_rate 0.469468
Core_0_L1D_rfo_access 0
Core_0_L1D_rfo_hit 0
Core_0_L1D_rfo_miss 0
Core_0_L1D_rfo_MPKI 0
Core_0_L1D_rfo_miss_rate 0
Core_0_L1D_prefetch_access 0
Core_0_L1D_prefetch_hit 0
Core_0_L1D_prefetch_miss 0
Core_0_L1D_prefetch_MPKI 0
Core_0_L1D_prefetch_miss_rate 0
Core_0_L1D_writeback_access 474136
Core_0_L1D_writeback_hit 471452
Core_0_L1D_writeback_miss 2684
Core_0_L1D_writeback_MPKI 0.05368
Core_0_L1D_writeback_miss_rate 0.00566082
Core_0_L1D_prefetch_requested 0
Core_0_L1D_prefetch_issued 0
Core_0_L1D_prefetch_useful 0
Core_0_L1D_prefetch_useless 0
Core_0_L1D_prefetch_late 0
Core_0_L1D_prefetch_accuracy 0
Core_0_L1D_prefetch_coverage 0

Core_0_L2C_total_access 1200655
Core_0_L2C_total_hit 412524
Core_0_L2C_total_miss 788131
Core_0_L2C_total_MPKI 15.7626
Core_0_L2C_total_miss_rate 0.656418
Core_0_L2C_demand_access 1173509
Core_0_L2C_demand_hit 385399
Core_0_L2C_demand_miss 788110
Core_0_L2C_demand_MPKI 15.7622
Core_0_L2C_demand_miss_rate 0.671584
Core_0_L2C_load_access 1172617
Core_0_L2C_load_hit 384528
Core_0_L2C_load_miss 788089
Core_0_L2C_load_MPKI 15.7618
Core_0_L2C_load_miss_rate 0.672077
Core_0_L2C_rfo_access 892
Core_0_L2C_rfo_hit 871
Core_0_L2C_rfo_miss 21
Core_0_L2C_rfo_MPKI 0.00042
Core_0_L2C_rfo_miss_rate 0.0235426
Core_0_L2C_prefetch_access 0
Core_0_L2C_prefetch_hit 0
Core_0_L2C_prefetch_miss 0
Core_0_L2C_prefetch_MPKI 0
Core_0_L2C_prefetch_miss_rate 0
Core_0_L2C_writeback_access 27146
Core_0_L2C_writeback_hit 27125
Core_0_L2C_writeback_miss 21
Core_0_L2C_writeback_MPKI 0.00042
Core_0_L2C_writeback_miss_rate 0.000773595
Core_0_L2C_prefetch_requested 0
Core_0_L2C_prefetch_issued 0
Core_0_L2C_prefetch_useful 0
Core_0_L2C_prefetch_useless 0
Core_0_L2C_prefetch_late 0
Core_0_L2C_prefetch_accuracy 0
Core_0_L2C_prefetch_coverage 0

Core_0_LLC_total_access 813771
Core_0_LLC_total_hit 149504
Core_0_LLC_total_miss 664267
Core_0_LLC_total_MPKI 13.2853
Core_0_LLC_total_miss_rate 0.816282
Core_0_LLC_demand_access 788110
Core_0_LLC_demand_hit 127574
Core_0_LLC_demand_miss 660536
Core_0_LLC_demand_MPKI 13.2107
Core_0_LLC_demand_miss_rate 0.838127
Core_0_LLC_load_access 788089
Core_0_LLC_load_hit 127556
Core_0_LLC_load_miss 660533
Core_0_LLC_load_MPKI 13.2107
Core_0_LLC_load_miss_rate 0.838145
Core_0_LLC_rfo_access 21
Core_0_LLC_rfo_hit 18
Core_0_LLC_rfo_miss 3
Core_0_LLC_rfo_MPKI 6e-05
Core_0_LLC_rfo_miss_rate 0.142857
Core_0_LLC_prefetch_access 0
Core_0_LLC_prefetch_hit 0
Core_0_LLC_prefetch_miss 0
Core_0_LLC_prefetch_MPKI 0
Core_0_LLC_prefetch_miss_rate 0
Core_0_LLC_writeback_access 25661
Core_0_LLC_writeback_hit 21930
Core_0_LLC_writeback_miss 3731
Core_0_LLC_writeback_MPKI 0.07462
Core_0_LLC_writeback_miss_rate 0.145396
Core_0_LLC_prefetch_requested 0
Core_0_LLC_prefetch_issued 0
Core_0_LLC_prefetch_useful 0
Core_0_LLC_prefetch_useless 0
Core_0_LLC_prefetch_late 0
Core_0_LLC_prefetch_accuracy 0
Core_0_LLC_prefetch_coverage 0

[DRAM Statistics]
Channel_0_RQ_row_buffer_hit 126486
Channel_0_RQ_row_buffer_miss 538340
Channel_0_WQ_row_buffer_hit 10119
Channel_0_WQ_row_buffer_miss 13312
Channel_0_WQ_full 0
Channel_0_dbus_congested 1099443
DRAM_total_RQ_row_buffer_hit 126486
DRAM_total_RQ_row_buffer_miss 538340
DRAM_total_WQ_row_buffer_hit 10119
DRAM_total_WQ_row_buffer_miss 13312
DRAM_total_WQ_full 0
DRAM_total_dbus_congested 1099443
DRAM_avg_congested_cycle 23.3805

====== DRAM_RQ_TRAFFIC ========
DRAM_RQ_READ_TRAFFIC_BREAKDOWN:
data_demand_read.count = 660535
data_demand_read.share = 99.35%

inst_demand_read.count = 1
inst_demand_read.share = 0.00%

cache_inst_prefetch.count = 0
cache_inst_prefetch.share = 0.00%

cache_data_prefetch.count = 0
cache_data_prefetch.share = 0.00%

stlb_data_demand.count = 4291
stlb_data_demand.share = 0.65%

stlb_inst_demand.count = 0
stlb_inst_demand.share = 0.00%

stlb_l1i_pref.count = 0
stlb_l1i_pref.share = 0.00%

stlb_l1d_pref.count = 0
stlb_l1d_pref.share = 0.00%

DRAM_RQ_READ_TRAFFIC_SUMMARY:
cache_demand.count = 660536
cache_demand.share = 99.35%

cache_prefetch.count = 0
cache_prefetch.share = 0.00%

stlb_demand.count = 4291
stlb_demand.share = 0.65%

stlb_prefetch.count = 0
stlb_prefetch.share = 0.00%

DRAM_RQ_READ_TRAFFIC_DEBUG:
total_classified_read.count = 664827
unclassified_read.count = 0
total_read_with_other.count = 664827

classified_plus_unclassified_check.count = 664827
dram_rq_read_total_observed.count = 664827
dram_rq_read_total_observed.per_1K_instructions = 13.2965

STLB_MISS_PTW_DRAM_TOUCH_BREAKDOWN:
stlb_miss_total.count = 15041

stlb_miss_touch_dram.count = 4201
stlb_miss_touch_dram.share = 27.93%

stlb_miss_no_dram_touch.count = 10840
stlb_miss_no_dram_touch.share = 72.07%

STLB_MISS_PTW_DRAM_TOUCH_DEBUG:
stlb_miss_touch_plus_no_touch.count = 15041
stlb_miss_total_check.count = 15041

======STLB miss causes ========
Core_0_STLB_miss_cause_breakdown
Core_0_STLB_cause_Demand_Data_miss 15041
Core_0_STLB_cause_Demand_Data_miss_rate 0.372828
Core_0_STLB_cause_Demand_Instruction_miss 0
Core_0_STLB_cause_Demand_Instruction_miss_rate 0
Core_0_STLB_cause_L1D_Prefetch_miss 0
Core_0_STLB_cause_L1D_Prefetch_miss_rate 0
Core_0_STLB_cause_L1I_Prefetch_miss 0
Core_0_STLB_cause_L1I_Prefetch_miss_rate 0
Core_0_STLB_cause_Other_miss 0
Core_0_STLB_cause_Other_miss_rate 0
Core_0_STLB_Demand_miss 15041
Core_0_STLB_Demand_miss_rate 0.372828
Core_0_STLB_L1D_Prefetch_miss 0
Core_0_STLB_L1D_Prefetch_miss_rate 0
Core_0_STLB_Other_miss 0
Core_0_STLB_Other_miss_rate 0
