[VMEM] WARNING: physical memory size is smaller than virtual memory size.

*** ChampSim Multicore Out-of-Order Simulator ***
Warmup Instructions: 20000000
Simulation Instructions: 50000000
Number of CPUs: 1
Page size: 4096
Core 0: /data0/tzh/champsim_traces/QMM/srv_61_new.xz
Off-chip DRAM Size: 16 GiB Channels: 1 Width: 64-bit Data Rate: 3205 MT/s
[BTB] WARNING: target of return is a lower address than the corresponding call. This is usually a problem with your trace.
[BTB] WARNING: target of return is a lower address than the corresponding call. This is usually a problem with your trace.
[BTB] WARNING: target of return is a lower address than the corresponding call. This is usually a problem with your trace.
[BTB] WARNING: target of return is a lower address than the corresponding call. This is usually a problem with your trace.
[BTB] WARNING: target of return is a lower address than the corresponding call. This is usually a problem with your trace.
[BTB] WARNING: target of return is a lower address than the corresponding call. This is usually a problem with your trace.
[BTB] WARNING: target of return is a lower address than the corresponding call. This is usually a problem with your trace.
[BTB] WARNING: target of return is a lower address than the corresponding call. This is usually a problem with your trace.
[BTB] WARNING: target of return is a lower address than the corresponding call. This is usually a problem with your trace.
[BTB] WARNING: target of return is a lower address than the corresponding call. This is usually a problem with your trace.
Warmup halting CPU 0 at instruction 20000003 cycle 4509245 for remainder of phase
Warmup finished CPU 0 instructions: 20000003 cycles: 4509245 cumulative IPC: 4.435 (Simulation time: 00 hr 01 min 04 sec)
Warmup complete CPU 0 instructions: 20000003 cycles: 4509245 cumulative IPC: 4.435 (Simulation time: 00 hr 01 min 04 sec)
*** Reached end of trace: (0, "/data0/tzh/champsim_traces/QMM/srv_61_new.xz")
*** Reached end of trace: (0, "/data0/tzh/champsim_traces/QMM/srv_61_new.xz")
Simulation finished CPU 0 instructions: 50000005 cycles: 32021474 cumulative IPC: 1.561 (Simulation time: 00 hr 05 min 12 sec)
Simulation complete CPU 0 instructions: 50000005 cycles: 32021474 cumulative IPC: 1.561 (Simulation time: 00 hr 05 min 12 sec)

ChampSim completed all CPUs

=== Simulation ===
CPU 0 runs /data0/tzh/champsim_traces/QMM/srv_61_new.xz

Region of Interest Statistics

CPU 0 cumulative IPC: 1.561 instructions: 50000005 cycles: 32021474
CPU 0 Branch Prediction Accuracy: 97.24% MPKI: 4.991 Average ROB Occupancy at Mispredict: 91.4
Branch type MPKI
BRANCH_DIRECT_JUMP: 0.4183
BRANCH_INDIRECT: 0.3555
BRANCH_CONDITIONAL: 2.704
BRANCH_DIRECT_CALL: 0.7413
BRANCH_INDIRECT_CALL: 0.1837
BRANCH_RETURN: 0.5882

cpu0->cpu0_STLB TOTAL        ACCESS:     812473 HIT:     698028 MISS:     114445 MSHR_MERGE:          0
cpu0->cpu0_STLB LOAD         ACCESS:     812473 HIT:     698028 MISS:     114445 MSHR_MERGE:          0
cpu0->cpu0_STLB RFO          ACCESS:          0 HIT:          0 MISS:          0 MSHR_MERGE:          0
cpu0->cpu0_STLB PREFETCH     ACCESS:          0 HIT:          0 MISS:          0 MSHR_MERGE:          0
cpu0->cpu0_STLB WRITE        ACCESS:          0 HIT:          0 MISS:          0 MSHR_MERGE:          0
cpu0->cpu0_STLB TRANSLATION  ACCESS:          0 HIT:          0 MISS:          0 MSHR_MERGE:          0
cpu0->cpu0_STLB PREFETCH REQUESTED:          0 ISSUED:          0 USEFUL:          0 USELESS:          0 LATE:          0
cpu0->cpu0_STLB AVERAGE MISS LATENCY: 30.36 cycles
cpu0->cpu0_L2C TOTAL        ACCESS:    2310869 HIT:    1263447 MISS:    1047422 MSHR_MERGE:          0
cpu0->cpu0_L2C LOAD         ACCESS:    1866984 HIT:     934074 MISS:     932910 MSHR_MERGE:          0
cpu0->cpu0_L2C RFO          ACCESS:      88551 HIT:      37495 MISS:      51056 MSHR_MERGE:          0
cpu0->cpu0_L2C PREFETCH     ACCESS:          0 HIT:          0 MISS:          0 MSHR_MERGE:          0
cpu0->cpu0_L2C WRITE        ACCESS:     258944 HIT:     256767 MISS:       2177 MSHR_MERGE:          0
cpu0->cpu0_L2C TRANSLATION  ACCESS:      96390 HIT:      35111 MISS:      61279 MSHR_MERGE:          0
cpu0->cpu0_L2C PREFETCH REQUESTED:          0 ISSUED:          0 USEFUL:          0 USELESS:          0 LATE:          0
cpu0->cpu0_L2C AVERAGE MISS LATENCY: 27.29 cycles
cpu0->cpu0_L1I TOTAL        ACCESS:    7634683 HIT:    5571088 MISS:    2063595 MSHR_MERGE:     758786
cpu0->cpu0_L1I LOAD         ACCESS:    7634683 HIT:    5571088 MISS:    2063595 MSHR_MERGE:     758786
cpu0->cpu0_L1I RFO          ACCESS:          0 HIT:          0 MISS:          0 MSHR_MERGE:          0
cpu0->cpu0_L1I PREFETCH     ACCESS:          0 HIT:          0 MISS:          0 MSHR_MERGE:          0
cpu0->cpu0_L1I WRITE        ACCESS:          0 HIT:          0 MISS:          0 MSHR_MERGE:          0
cpu0->cpu0_L1I TRANSLATION  ACCESS:          0 HIT:          0 MISS:          0 MSHR_MERGE:          0
cpu0->cpu0_L1I PREFETCH REQUESTED:          0 ISSUED:          0 USEFUL:          0 USELESS:          0 LATE:          0
cpu0->cpu0_L1I AVERAGE MISS LATENCY: 15.25 cycles
cpu0->cpu0_L1D TOTAL        ACCESS:   11912257 HIT:   10811184 MISS:    1101073 MSHR_MERGE:     353945
cpu0->cpu0_L1D LOAD         ACCESS:    6670988 HIT:    5911999 MISS:     758989 MSHR_MERGE:     196809
cpu0->cpu0_L1D RFO          ACCESS:          0 HIT:          0 MISS:          0 MSHR_MERGE:          0
cpu0->cpu0_L1D PREFETCH     ACCESS:          0 HIT:          0 MISS:          0 MSHR_MERGE:          0
cpu0->cpu0_L1D WRITE        ACCESS:    4987783 HIT:    4743922 MISS:     243861 MSHR_MERGE:     155303
cpu0->cpu0_L1D TRANSLATION  ACCESS:     253486 HIT:     155263 MISS:      98223 MSHR_MERGE:       1833
cpu0->cpu0_L1D PREFETCH REQUESTED:          0 ISSUED:          0 USEFUL:          0 USELESS:          0 LATE:          0
cpu0->cpu0_L1D AVERAGE MISS LATENCY: 33.85 cycles
cpu0->cpu0_ITLB TOTAL        ACCESS:    6475820 HIT:    5968727 MISS:     507093 MSHR_MERGE:     311680
cpu0->cpu0_ITLB LOAD         ACCESS:    6475820 HIT:    5968727 MISS:     507093 MSHR_MERGE:     311680
cpu0->cpu0_ITLB RFO          ACCESS:          0 HIT:          0 MISS:          0 MSHR_MERGE:          0
cpu0->cpu0_ITLB PREFETCH     ACCESS:          0 HIT:          0 MISS:          0 MSHR_MERGE:          0
cpu0->cpu0_ITLB WRITE        ACCESS:          0 HIT:          0 MISS:          0 MSHR_MERGE:          0
cpu0->cpu0_ITLB TRANSLATION  ACCESS:          0 HIT:          0 MISS:          0 MSHR_MERGE:          0
cpu0->cpu0_ITLB PREFETCH REQUESTED:          0 ISSUED:          0 USEFUL:          0 USELESS:          0 LATE:          0
cpu0->cpu0_ITLB AVERAGE MISS LATENCY: 10.6 cycles
cpu0->cpu0_DTLB TOTAL        ACCESS:   11001702 HIT:   10162980 MISS:     838722 MSHR_MERGE:     221662
cpu0->cpu0_DTLB LOAD         ACCESS:   11001702 HIT:   10162980 MISS:     838722 MSHR_MERGE:     221662
cpu0->cpu0_DTLB RFO          ACCESS:          0 HIT:          0 MISS:          0 MSHR_MERGE:          0
cpu0->cpu0_DTLB PREFETCH     ACCESS:          0 HIT:          0 MISS:          0 MSHR_MERGE:          0
cpu0->cpu0_DTLB WRITE        ACCESS:          0 HIT:          0 MISS:          0 MSHR_MERGE:          0
cpu0->cpu0_DTLB TRANSLATION  ACCESS:          0 HIT:          0 MISS:          0 MSHR_MERGE:          0
cpu0->cpu0_DTLB PREFETCH REQUESTED:          0 ISSUED:          0 USEFUL:          0 USELESS:          0 LATE:          0
cpu0->cpu0_DTLB AVERAGE MISS LATENCY: 9.054 cycles
cpu0->LLC TOTAL        ACCESS:    1199624 HIT:    1127877 MISS:      71747 MSHR_MERGE:          0
cpu0->LLC LOAD         ACCESS:     932910 HIT:     875800 MISS:      57110 MSHR_MERGE:          0
cpu0->LLC RFO          ACCESS:      51056 HIT:      39731 MISS:      11325 MSHR_MERGE:          0
cpu0->LLC PREFETCH     ACCESS:          0 HIT:          0 MISS:          0 MSHR_MERGE:          0
cpu0->LLC WRITE        ACCESS:     154379 HIT:     152284 MISS:       2095 MSHR_MERGE:          0
cpu0->LLC TRANSLATION  ACCESS:      61279 HIT:      60062 MISS:       1217 MSHR_MERGE:          0
cpu0->LLC PREFETCH REQUESTED:          0 ISSUED:          0 USEFUL:          0 USELESS:          0 LATE:          0
cpu0->LLC AVERAGE MISS LATENCY: 178.9 cycles

DRAM Statistics

Channel 0 RQ ROW_BUFFER_HIT:       1727
  ROW_BUFFER_MISS:      67923
  AVG DBUS CONGESTED CYCLE: 16.59
Channel 0 WQ ROW_BUFFER_HIT:      10611
  ROW_BUFFER_MISS:      42465
  FULL:          0
Channel 0 REFRESHES ISSUED:       2669

[ROI Statistics]
[System Configuration]
num_cpus 1
cpu_freq 4000
fetch_width 6
decode_width 6
dispatch_width 6
execute_width 6
lq_width 2
sq_width 2
retire_width 6
scheduler_size 128
branch_mispredict_penalty 15
rob_size 352
lq_size 128
sq_size 72
ifetch_buffer_size 64
decode_buffer_size 32
dispatch_buffer_size 32
register_file_size 288
decode_latency 1
dispatch_latency 1
schedule_latency 1
execute_latency 1
page_size 4096
block_size 64
core_0_itlb_set 16
core_0_itlb_way 4
core_0_itlb_rq_size 16
core_0_itlb_wq_size 16
core_0_itlb_pq_size 0
core_0_itlb_mshr_size 8
core_0_itlb_hit_latency 1
core_0_itlb_fill_latency 1
core_0_itlb_max_tag_check 2
core_0_itlb_max_fill 2
core_0_dtlb_set 16
core_0_dtlb_way 4
core_0_dtlb_rq_size 16
core_0_dtlb_wq_size 16
core_0_dtlb_pq_size 0
core_0_dtlb_mshr_size 8
core_0_dtlb_hit_latency 1
core_0_dtlb_fill_latency 1
core_0_dtlb_max_tag_check 2
core_0_dtlb_max_fill 2
core_0_stlb_set 128
core_0_stlb_way 12
core_0_stlb_rq_size 32
core_0_stlb_wq_size 32
core_0_stlb_pq_size 0
core_0_stlb_mshr_size 16
core_0_stlb_hit_latency 4
core_0_stlb_fill_latency 4
core_0_stlb_max_tag_check 1
core_0_stlb_max_fill 1
core_0_l1i_set 64
core_0_l1i_way 8
core_0_l1i_rq_size 64
core_0_l1i_wq_size 64
core_0_l1i_pq_size 32
core_0_l1i_mshr_size 8
core_0_l1i_hit_latency 2
core_0_l1i_fill_latency 2
core_0_l1i_max_tag_check 2
core_0_l1i_max_fill 2
core_0_l1d_set 64
core_0_l1d_way 12
core_0_l1d_rq_size 64
core_0_l1d_wq_size 64
core_0_l1d_pq_size 8
core_0_l1d_mshr_size 16
core_0_l1d_hit_latency 2
core_0_l1d_fill_latency 3
core_0_l1d_max_tag_check 2
core_0_l1d_max_fill 2
core_0_l2c_set 1024
core_0_l2c_way 8
core_0_l2c_rq_size 32
core_0_l2c_wq_size 32
core_0_l2c_pq_size 16
core_0_l2c_mshr_size 32
core_0_l2c_hit_latency 5
core_0_l2c_fill_latency 5
core_0_l2c_max_tag_check 1
core_0_l2c_max_fill 1
llc_set 2048
llc_way 16
llc_rq_size 32
llc_wq_size 32
llc_pq_size 32
llc_mshr_size 64
llc_hit_latency 10
llc_fill_latency 10
llc_max_tag_check 1
llc_max_fill 1
dram_channels 1
dram_ranks 1
dram_bankgroups 8
dram_banks 4
dram_rows 65536
dram_columns 1024
dram_channel_width 8
dram_rq_size 64
dram_wq_size 64
dram_size 17179869184
core_0_itlb_prefetcher no
core_0_dtlb_prefetcher no
core_0_stlb_prefetcher no
core_0_l1i_prefetcher no
core_0_l1d_prefetcher no
core_0_l2c_prefetcher no
llc_prefetcher no
llc_replacement drrip

Core_0_instructions 50000005
Core_0_cycles 32021474
Core_0_IPC 1.56145
Core_0_branch_prediction_accuracy 97.2421
Core_0_branch_MPKI 4.9908
Core_0_average_ROB_occupancy_at_mispredict 91.398

Core_0_ITLB_total_access 6475820
Core_0_ITLB_total_hit 5968727
Core_0_ITLB_total_miss 507093
Core_0_ITLB_total_MPKI 10.1419
Core_0_ITLB_total_miss_rate 0.0783056
Core_0_ITLB_demand_access 6475820
Core_0_ITLB_demand_hit 5968727
Core_0_ITLB_demand_miss 507093
Core_0_ITLB_demand_MPKI 10.1419
Core_0_ITLB_demand_miss_rate 0.0783056
Core_0_ITLB_load_access 6475820
Core_0_ITLB_load_hit 5968727
Core_0_ITLB_load_miss 507093
Core_0_ITLB_load_MPKI 10.1419
Core_0_ITLB_load_miss_rate 0.0783056
Core_0_ITLB_rfo_access 0
Core_0_ITLB_rfo_hit 0
Core_0_ITLB_rfo_miss 0
Core_0_ITLB_rfo_MPKI 0
Core_0_ITLB_rfo_miss_rate 0
Core_0_ITLB_prefetch_access 0
Core_0_ITLB_prefetch_hit 0
Core_0_ITLB_prefetch_miss 0
Core_0_ITLB_prefetch_MPKI 0
Core_0_ITLB_prefetch_miss_rate 0
Core_0_ITLB_writeback_access 0
Core_0_ITLB_writeback_hit 0
Core_0_ITLB_writeback_miss 0
Core_0_ITLB_writeback_MPKI 0
Core_0_ITLB_writeback_miss_rate 0
Core_0_ITLB_prefetch_requested 0
Core_0_ITLB_prefetch_issued 0
Core_0_ITLB_prefetch_useful 0
Core_0_ITLB_prefetch_useless 0
Core_0_ITLB_prefetch_late 0
Core_0_ITLB_prefetch_accuracy 0
Core_0_ITLB_prefetch_coverage 0

Core_0_DTLB_total_access 11001702
Core_0_DTLB_total_hit 10162980
Core_0_DTLB_total_miss 838722
Core_0_DTLB_total_MPKI 16.7744
Core_0_DTLB_total_miss_rate 0.0762357
Core_0_DTLB_demand_access 11001702
Core_0_DTLB_demand_hit 10162980
Core_0_DTLB_demand_miss 838722
Core_0_DTLB_demand_MPKI 16.7744
Core_0_DTLB_demand_miss_rate 0.0762357
Core_0_DTLB_load_access 11001702
Core_0_DTLB_load_hit 10162980
Core_0_DTLB_load_miss 838722
Core_0_DTLB_load_MPKI 16.7744
Core_0_DTLB_load_miss_rate 0.0762357
Core_0_DTLB_rfo_access 0
Core_0_DTLB_rfo_hit 0
Core_0_DTLB_rfo_miss 0
Core_0_DTLB_rfo_MPKI 0
Core_0_DTLB_rfo_miss_rate 0
Core_0_DTLB_prefetch_access 0
Core_0_DTLB_prefetch_hit 0
Core_0_DTLB_prefetch_miss 0
Core_0_DTLB_prefetch_MPKI 0
Core_0_DTLB_prefetch_miss_rate 0
Core_0_DTLB_writeback_access 0
Core_0_DTLB_writeback_hit 0
Core_0_DTLB_writeback_miss 0
Core_0_DTLB_writeback_MPKI 0
Core_0_DTLB_writeback_miss_rate 0
Core_0_DTLB_prefetch_requested 0
Core_0_DTLB_prefetch_issued 0
Core_0_DTLB_prefetch_useful 0
Core_0_DTLB_prefetch_useless 0
Core_0_DTLB_prefetch_late 0
Core_0_DTLB_prefetch_accuracy 0
Core_0_DTLB_prefetch_coverage 0

Core_0_STLB_total_access 812473
Core_0_STLB_total_hit 698028
Core_0_STLB_total_miss 114445
Core_0_STLB_total_MPKI 2.2889
Core_0_STLB_total_miss_rate 0.14086
Core_0_STLB_demand_access 812473
Core_0_STLB_demand_hit 698028
Core_0_STLB_demand_miss 114445
Core_0_STLB_demand_MPKI 2.2889
Core_0_STLB_demand_miss_rate 0.14086
Core_0_STLB_load_access 812473
Core_0_STLB_load_hit 698028
Core_0_STLB_load_miss 114445
Core_0_STLB_load_MPKI 2.2889
Core_0_STLB_load_miss_rate 0.14086
Core_0_STLB_rfo_access 0
Core_0_STLB_rfo_hit 0
Core_0_STLB_rfo_miss 0
Core_0_STLB_rfo_MPKI 0
Core_0_STLB_rfo_miss_rate 0
Core_0_STLB_prefetch_access 0
Core_0_STLB_prefetch_hit 0
Core_0_STLB_prefetch_miss 0
Core_0_STLB_prefetch_MPKI 0
Core_0_STLB_prefetch_miss_rate 0
Core_0_STLB_writeback_access 0
Core_0_STLB_writeback_hit 0
Core_0_STLB_writeback_miss 0
Core_0_STLB_writeback_MPKI 0
Core_0_STLB_writeback_miss_rate 0
Core_0_STLB_prefetch_requested 0
Core_0_STLB_prefetch_issued 0
Core_0_STLB_prefetch_useful 0
Core_0_STLB_prefetch_useless 0
Core_0_STLB_prefetch_late 0
Core_0_STLB_prefetch_accuracy 0
Core_0_STLB_prefetch_coverage 0

Core_0_L1I_total_access 7634683
Core_0_L1I_total_hit 5571088
Core_0_L1I_total_miss 2063595
Core_0_L1I_total_MPKI 41.2719
Core_0_L1I_total_miss_rate 0.270292
Core_0_L1I_demand_access 7634683
Core_0_L1I_demand_hit 5571088
Core_0_L1I_demand_miss 2063595
Core_0_L1I_demand_MPKI 41.2719
Core_0_L1I_demand_miss_rate 0.270292
Core_0_L1I_load_access 7634683
Core_0_L1I_load_hit 5571088
Core_0_L1I_load_miss 2063595
Core_0_L1I_load_MPKI 41.2719
Core_0_L1I_load_miss_rate 0.270292
Core_0_L1I_rfo_access 0
Core_0_L1I_rfo_hit 0
Core_0_L1I_rfo_miss 0
Core_0_L1I_rfo_MPKI 0
Core_0_L1I_rfo_miss_rate 0
Core_0_L1I_prefetch_access 0
Core_0_L1I_prefetch_hit 0
Core_0_L1I_prefetch_miss 0
Core_0_L1I_prefetch_MPKI 0
Core_0_L1I_prefetch_miss_rate 0
Core_0_L1I_writeback_access 0
Core_0_L1I_writeback_hit 0
Core_0_L1I_writeback_miss 0
Core_0_L1I_writeback_MPKI 0
Core_0_L1I_writeback_miss_rate 0
Core_0_L1I_prefetch_requested 0
Core_0_L1I_prefetch_issued 0
Core_0_L1I_prefetch_useful 0
Core_0_L1I_prefetch_useless 0
Core_0_L1I_prefetch_late 0
Core_0_L1I_prefetch_accuracy 0
Core_0_L1I_prefetch_coverage 0

Core_0_L1D_total_access 11658771
Core_0_L1D_total_hit 10655921
Core_0_L1D_total_miss 1002850
Core_0_L1D_total_MPKI 20.057
Core_0_L1D_total_miss_rate 0.0860168
Core_0_L1D_demand_access 6670988
Core_0_L1D_demand_hit 5911999
Core_0_L1D_demand_miss 758989
Core_0_L1D_demand_MPKI 15.1798
Core_0_L1D_demand_miss_rate 0.113775
Core_0_L1D_load_access 6670988
Core_0_L1D_load_hit 5911999
Core_0_L1D_load_miss 758989
Core_0_L1D_load_MPKI 15.1798
Core_0_L1D_load_miss_rate 0.113775
Core_0_L1D_rfo_access 0
Core_0_L1D_rfo_hit 0
Core_0_L1D_rfo_miss 0
Core_0_L1D_rfo_MPKI 0
Core_0_L1D_rfo_miss_rate 0
Core_0_L1D_prefetch_access 0
Core_0_L1D_prefetch_hit 0
Core_0_L1D_prefetch_miss 0
Core_0_L1D_prefetch_MPKI 0
Core_0_L1D_prefetch_miss_rate 0
Core_0_L1D_writeback_access 4987783
Core_0_L1D_writeback_hit 4743922
Core_0_L1D_writeback_miss 243861
Core_0_L1D_writeback_MPKI 4.87722
Core_0_L1D_writeback_miss_rate 0.0488917
Core_0_L1D_prefetch_requested 0
Core_0_L1D_prefetch_issued 0
Core_0_L1D_prefetch_useful 0
Core_0_L1D_prefetch_useless 0
Core_0_L1D_prefetch_late 0
Core_0_L1D_prefetch_accuracy 0
Core_0_L1D_prefetch_coverage 0

Core_0_L2C_total_access 2214479
Core_0_L2C_total_hit 1228336
Core_0_L2C_total_miss 986143
Core_0_L2C_total_MPKI 19.7229
Core_0_L2C_total_miss_rate 0.445316
Core_0_L2C_demand_access 1955535
Core_0_L2C_demand_hit 971569
Core_0_L2C_demand_miss 983966
Core_0_L2C_demand_MPKI 19.6793
Core_0_L2C_demand_miss_rate 0.50317
Core_0_L2C_load_access 1866984
Core_0_L2C_load_hit 934074
Core_0_L2C_load_miss 932910
Core_0_L2C_load_MPKI 18.6582
Core_0_L2C_load_miss_rate 0.499688
Core_0_L2C_rfo_access 88551
Core_0_L2C_rfo_hit 37495
Core_0_L2C_rfo_miss 51056
Core_0_L2C_rfo_MPKI 1.02112
Core_0_L2C_rfo_miss_rate 0.576572
Core_0_L2C_prefetch_access 0
Core_0_L2C_prefetch_hit 0
Core_0_L2C_prefetch_miss 0
Core_0_L2C_prefetch_MPKI 0
Core_0_L2C_prefetch_miss_rate 0
Core_0_L2C_writeback_access 258944
Core_0_L2C_writeback_hit 256767
Core_0_L2C_writeback_miss 2177
Core_0_L2C_writeback_MPKI 0.04354
Core_0_L2C_writeback_miss_rate 0.00840722
Core_0_L2C_prefetch_requested 0
Core_0_L2C_prefetch_issued 0
Core_0_L2C_prefetch_useful 0
Core_0_L2C_prefetch_useless 0
Core_0_L2C_prefetch_late 0
Core_0_L2C_prefetch_accuracy 0
Core_0_L2C_prefetch_coverage 0

Core_0_LLC_total_access 1138345
Core_0_LLC_total_hit 1067815
Core_0_LLC_total_miss 70530
Core_0_LLC_total_MPKI 1.4106
Core_0_LLC_total_miss_rate 0.0619584
Core_0_LLC_demand_access 983966
Core_0_LLC_demand_hit 915531
Core_0_LLC_demand_miss 68435
Core_0_LLC_demand_MPKI 1.3687
Core_0_LLC_demand_miss_rate 0.0695502
Core_0_LLC_load_access 932910
Core_0_LLC_load_hit 875800
Core_0_LLC_load_miss 57110
Core_0_LLC_load_MPKI 1.1422
Core_0_LLC_load_miss_rate 0.0612171
Core_0_LLC_rfo_access 51056
Core_0_LLC_rfo_hit 39731
Core_0_LLC_rfo_miss 11325
Core_0_LLC_rfo_MPKI 0.2265
Core_0_LLC_rfo_miss_rate 0.221815
Core_0_LLC_prefetch_access 0
Core_0_LLC_prefetch_hit 0
Core_0_LLC_prefetch_miss 0
Core_0_LLC_prefetch_MPKI 0
Core_0_LLC_prefetch_miss_rate 0
Core_0_LLC_writeback_access 154379
Core_0_LLC_writeback_hit 152284
Core_0_LLC_writeback_miss 2095
Core_0_LLC_writeback_MPKI 0.0419
Core_0_LLC_writeback_miss_rate 0.0135705
Core_0_LLC_prefetch_requested 0
Core_0_LLC_prefetch_issued 0
Core_0_LLC_prefetch_useful 0
Core_0_LLC_prefetch_useless 0
Core_0_LLC_prefetch_late 0
Core_0_LLC_prefetch_accuracy 0
Core_0_LLC_prefetch_coverage 0

[DRAM Statistics]
Channel_0_RQ_row_buffer_hit 1727
Channel_0_RQ_row_buffer_miss 67923
Channel_0_WQ_row_buffer_hit 10611
Channel_0_WQ_row_buffer_miss 42465
Channel_0_WQ_full 0
Channel_0_dbus_congested 368053
DRAM_total_RQ_row_buffer_hit 1727
DRAM_total_RQ_row_buffer_miss 67923
DRAM_total_WQ_row_buffer_hit 10611
DRAM_total_WQ_row_buffer_miss 42465
DRAM_total_WQ_full 0
DRAM_total_dbus_congested 368053
DRAM_avg_congested_cycle 16.5906

====== DRAM_RQ_TRAFFIC ========
DRAM_RQ_READ_TRAFFIC_BREAKDOWN:
data_demand_read.count = 64890
data_demand_read.share = 93.16%

inst_demand_read.count = 3545
inst_demand_read.share = 5.09%

cache_inst_prefetch.count = 0
cache_inst_prefetch.share = 0.00%

cache_data_prefetch.count = 0
cache_data_prefetch.share = 0.00%

stlb_data_demand.count = 1110
stlb_data_demand.share = 1.59%

stlb_inst_demand.count = 107
stlb_inst_demand.share = 0.15%

stlb_l1i_pref.count = 0
stlb_l1i_pref.share = 0.00%

stlb_l1d_pref.count = 0
stlb_l1d_pref.share = 0.00%

DRAM_RQ_READ_TRAFFIC_SUMMARY:
cache_demand.count = 68435
cache_demand.share = 98.25%

cache_prefetch.count = 0
cache_prefetch.share = 0.00%

stlb_demand.count = 1217
stlb_demand.share = 1.75%

stlb_prefetch.count = 0
stlb_prefetch.share = 0.00%

DRAM_RQ_READ_TRAFFIC_DEBUG:
total_classified_read.count = 69652
unclassified_read.count = 0
total_read_with_other.count = 69652

classified_plus_unclassified_check.count = 69652
dram_rq_read_total_observed.count = 69652
dram_rq_read_total_observed.per_1K_instructions = 1.39304

STLB_MISS_PTW_DRAM_TOUCH_BREAKDOWN:
stlb_miss_total.count = 114445

stlb_miss_touch_dram.count = 1172
stlb_miss_touch_dram.share = 1.02%

stlb_miss_no_dram_touch.count = 113273
stlb_miss_no_dram_touch.share = 98.98%

STLB_MISS_PTW_DRAM_TOUCH_DEBUG:
stlb_miss_touch_plus_no_touch.count = 114445
stlb_miss_total_check.count = 114445

======STLB miss causes ========
Core_0_STLB_miss_cause_breakdown
Core_0_STLB_cause_Demand_Data_miss 70944
Core_0_STLB_cause_Demand_Data_miss_rate 0.0873186
Core_0_STLB_cause_Demand_Instruction_miss 43501
Core_0_STLB_cause_Demand_Instruction_miss_rate 0.0535415
Core_0_STLB_cause_L1D_Prefetch_miss 0
Core_0_STLB_cause_L1D_Prefetch_miss_rate 0
Core_0_STLB_cause_L1I_Prefetch_miss 0
Core_0_STLB_cause_L1I_Prefetch_miss_rate 0
Core_0_STLB_cause_Other_miss 0
Core_0_STLB_cause_Other_miss_rate 0
Core_0_STLB_Demand_miss 114445
Core_0_STLB_Demand_miss_rate 0.14086
Core_0_STLB_L1D_Prefetch_miss 0
Core_0_STLB_L1D_Prefetch_miss_rate 0
Core_0_STLB_Other_miss 0
Core_0_STLB_Other_miss_rate 0
