[VMEM] WARNING: physical memory size is smaller than virtual memory size.

*** ChampSim Multicore Out-of-Order Simulator ***
Warmup Instructions: 20000000
Simulation Instructions: 50000000
Number of CPUs: 1
Page size: 4096
Core 0: /data2/zcq/champsim_traces_gap/sssp.urand-4819B.champsimtrace.xz
Off-chip DRAM Size: 16 GiB Channels: 1 Width: 64-bit Data Rate: 3205 MT/s
Warmup halting CPU 0 at instruction 20000001 cycle 21084156 for remainder of phase
Warmup finished CPU 0 instructions: 20000001 cycles: 21084156 cumulative IPC: 0.9486 (Simulation time: 00 hr 03 min 30 sec)
Warmup complete CPU 0 instructions: 20000001 cycles: 21084156 cumulative IPC: 0.9486 (Simulation time: 00 hr 03 min 30 sec)
Simulation finished CPU 0 instructions: 50000002 cycles: 328562302 cumulative IPC: 0.1522 (Simulation time: 00 hr 30 min 45 sec)
Simulation complete CPU 0 instructions: 50000002 cycles: 328562302 cumulative IPC: 0.1522 (Simulation time: 00 hr 30 min 45 sec)

ChampSim completed all CPUs

=== Simulation ===
CPU 0 runs /data2/zcq/champsim_traces_gap/sssp.urand-4819B.champsimtrace.xz

Region of Interest Statistics

CPU 0 cumulative IPC: 0.1522 instructions: 50000002 cycles: 328562302
CPU 0 Branch Prediction Accuracy: 96.71% MPKI: 4.998 Average ROB Occupancy at Mispredict: 156.2
Branch type MPKI
BRANCH_DIRECT_JUMP: 0
BRANCH_INDIRECT: 0
BRANCH_CONDITIONAL: 4.998
BRANCH_DIRECT_CALL: 0
BRANCH_INDIRECT_CALL: 0
BRANCH_RETURN: 0

cpu0->cpu0_STLB TOTAL        ACCESS:    3804009 HIT:     183360 MISS:    3620649 MSHR_MERGE:          0
cpu0->cpu0_STLB LOAD         ACCESS:    3804009 HIT:     183360 MISS:    3620649 MSHR_MERGE:          0
cpu0->cpu0_STLB RFO          ACCESS:          0 HIT:          0 MISS:          0 MSHR_MERGE:          0
cpu0->cpu0_STLB PREFETCH     ACCESS:          0 HIT:          0 MISS:          0 MSHR_MERGE:          0
cpu0->cpu0_STLB WRITE        ACCESS:          0 HIT:          0 MISS:          0 MSHR_MERGE:          0
cpu0->cpu0_STLB TRANSLATION  ACCESS:          0 HIT:          0 MISS:          0 MSHR_MERGE:          0
cpu0->cpu0_STLB PREFETCH REQUESTED:          0 ISSUED:          0 USEFUL:          0 USELESS:          0 LATE:          0
cpu0->cpu0_STLB AVERAGE MISS LATENCY: 71.54 cycles
cpu0->cpu0_L2C TOTAL        ACCESS:    8256243 HIT:    1094755 MISS:    7161488 MSHR_MERGE:          0
cpu0->cpu0_L2C LOAD         ACCESS:    4090939 HIT:      47737 MISS:    4043202 MSHR_MERGE:          0
cpu0->cpu0_L2C RFO          ACCESS:      89779 HIT:      72006 MISS:      17773 MSHR_MERGE:          0
cpu0->cpu0_L2C PREFETCH     ACCESS:          0 HIT:          0 MISS:          0 MSHR_MERGE:          0
cpu0->cpu0_L2C WRITE        ACCESS:     260216 HIT:     259826 MISS:        390 MSHR_MERGE:          0
cpu0->cpu0_L2C TRANSLATION  ACCESS:    3815309 HIT:     715186 MISS:    3100123 MSHR_MERGE:          0
cpu0->cpu0_L2C PREFETCH REQUESTED:          0 ISSUED:          0 USEFUL:          0 USELESS:          0 LATE:          0
cpu0->cpu0_L2C AVERAGE MISS LATENCY: 159.2 cycles
cpu0->cpu0_L1I TOTAL        ACCESS:     264503 HIT:     264503 MISS:          0 MSHR_MERGE:          0
cpu0->cpu0_L1I LOAD         ACCESS:     264503 HIT:     264503 MISS:          0 MSHR_MERGE:          0
cpu0->cpu0_L1I RFO          ACCESS:          0 HIT:          0 MISS:          0 MSHR_MERGE:          0
cpu0->cpu0_L1I PREFETCH     ACCESS:          0 HIT:          0 MISS:          0 MSHR_MERGE:          0
cpu0->cpu0_L1I WRITE        ACCESS:          0 HIT:          0 MISS:          0 MSHR_MERGE:          0
cpu0->cpu0_L1I TRANSLATION  ACCESS:          0 HIT:          0 MISS:          0 MSHR_MERGE:          0
cpu0->cpu0_L1I PREFETCH REQUESTED:          0 ISSUED:          0 USEFUL:          0 USELESS:          0 LATE:          0
cpu0->cpu0_L1I AVERAGE MISS LATENCY: - cycles
cpu0->cpu0_L1D TOTAL        ACCESS:   26480678 HIT:   15514038 MISS:   10966640 MSHR_MERGE:    2970609
cpu0->cpu0_L1D LOAD         ACCESS:   15998166 HIT:    8943891 MISS:    7054275 MSHR_MERGE:    2963336
cpu0->cpu0_L1D RFO          ACCESS:          0 HIT:          0 MISS:          0 MSHR_MERGE:          0
cpu0->cpu0_L1D PREFETCH     ACCESS:          0 HIT:          0 MISS:          0 MSHR_MERGE:          0
cpu0->cpu0_L1D WRITE        ACCESS:     703884 HIT:     612256 MISS:      91628 MSHR_MERGE:       1849
cpu0->cpu0_L1D TRANSLATION  ACCESS:    9778628 HIT:    5957891 MISS:    3820737 MSHR_MERGE:       5424
cpu0->cpu0_L1D PREFETCH REQUESTED:          0 ISSUED:          0 USEFUL:          0 USELESS:          0 LATE:          0
cpu0->cpu0_L1D AVERAGE MISS LATENCY: 151.5 cycles
cpu0->cpu0_ITLB TOTAL        ACCESS:     262945 HIT:     262945 MISS:          0 MSHR_MERGE:          0
cpu0->cpu0_ITLB LOAD         ACCESS:     262945 HIT:     262945 MISS:          0 MSHR_MERGE:          0
cpu0->cpu0_ITLB RFO          ACCESS:          0 HIT:          0 MISS:          0 MSHR_MERGE:          0
cpu0->cpu0_ITLB PREFETCH     ACCESS:          0 HIT:          0 MISS:          0 MSHR_MERGE:          0
cpu0->cpu0_ITLB WRITE        ACCESS:          0 HIT:          0 MISS:          0 MSHR_MERGE:          0
cpu0->cpu0_ITLB TRANSLATION  ACCESS:          0 HIT:          0 MISS:          0 MSHR_MERGE:          0
cpu0->cpu0_ITLB PREFETCH REQUESTED:          0 ISSUED:          0 USEFUL:          0 USELESS:          0 LATE:          0
cpu0->cpu0_ITLB AVERAGE MISS LATENCY: - cycles
cpu0->cpu0_DTLB TOTAL        ACCESS:   16595641 HIT:   11079397 MISS:    5516244 MSHR_MERGE:    1712235
cpu0->cpu0_DTLB LOAD         ACCESS:   16595641 HIT:   11079397 MISS:    5516244 MSHR_MERGE:    1712235
cpu0->cpu0_DTLB RFO          ACCESS:          0 HIT:          0 MISS:          0 MSHR_MERGE:          0
cpu0->cpu0_DTLB PREFETCH     ACCESS:          0 HIT:          0 MISS:          0 MSHR_MERGE:          0
cpu0->cpu0_DTLB WRITE        ACCESS:          0 HIT:          0 MISS:          0 MSHR_MERGE:          0
cpu0->cpu0_DTLB TRANSLATION  ACCESS:          0 HIT:          0 MISS:          0 MSHR_MERGE:          0
cpu0->cpu0_DTLB PREFETCH REQUESTED:          0 ISSUED:          0 USEFUL:          0 USELESS:          0 LATE:          0
cpu0->cpu0_DTLB AVERAGE MISS LATENCY: 74.19 cycles
cpu0->LLC TOTAL        ACCESS:    7312692 HIT:    2770245 MISS:    4542447 MSHR_MERGE:          0
cpu0->LLC LOAD         ACCESS:    4043202 HIT:       9297 MISS:    4033905 MSHR_MERGE:          0
cpu0->LLC RFO          ACCESS:      17773 HIT:       9172 MISS:       8601 MSHR_MERGE:          0
cpu0->LLC PREFETCH     ACCESS:          0 HIT:          0 MISS:          0 MSHR_MERGE:          0
cpu0->LLC WRITE        ACCESS:     151597 HIT:      40820 MISS:     110777 MSHR_MERGE:          0
cpu0->LLC TRANSLATION  ACCESS:    3100120 HIT:    2710956 MISS:     389164 MSHR_MERGE:          0
cpu0->LLC PREFETCH REQUESTED:          0 ISSUED:          0 USEFUL:          0 USELESS:          0 LATE:          0
cpu0->LLC AVERAGE MISS LATENCY: 226.6 cycles

DRAM Statistics

Channel 0 RQ ROW_BUFFER_HIT:         90
  ROW_BUFFER_MISS:    4431579
  AVG DBUS CONGESTED CYCLE: 8.59
Channel 0 WQ ROW_BUFFER_HIT:      37914
  ROW_BUFFER_MISS:     100825
  FULL:          0
Channel 0 REFRESHES ISSUED:      27380

[ROI Statistics]
[System Configuration]
num_cpus 1
cpu_freq 4000
fetch_width 6
decode_width 6
dispatch_width 6
execute_width 6
lq_width 2
sq_width 2
retire_width 6
scheduler_size 128
branch_mispredict_penalty 15
rob_size 352
lq_size 128
sq_size 72
ifetch_buffer_size 64
decode_buffer_size 32
dispatch_buffer_size 32
register_file_size 288
decode_latency 1
dispatch_latency 1
schedule_latency 1
execute_latency 1
page_size 4096
block_size 64
core_0_itlb_set 16
core_0_itlb_way 4
core_0_itlb_rq_size 16
core_0_itlb_wq_size 16
core_0_itlb_pq_size 0
core_0_itlb_mshr_size 8
core_0_itlb_hit_latency 1
core_0_itlb_fill_latency 1
core_0_itlb_max_tag_check 2
core_0_itlb_max_fill 2
core_0_dtlb_set 16
core_0_dtlb_way 4
core_0_dtlb_rq_size 16
core_0_dtlb_wq_size 16
core_0_dtlb_pq_size 0
core_0_dtlb_mshr_size 8
core_0_dtlb_hit_latency 1
core_0_dtlb_fill_latency 1
core_0_dtlb_max_tag_check 2
core_0_dtlb_max_fill 2
core_0_stlb_set 128
core_0_stlb_way 12
core_0_stlb_rq_size 32
core_0_stlb_wq_size 32
core_0_stlb_pq_size 0
core_0_stlb_mshr_size 16
core_0_stlb_hit_latency 4
core_0_stlb_fill_latency 4
core_0_stlb_max_tag_check 1
core_0_stlb_max_fill 1
core_0_l1i_set 64
core_0_l1i_way 8
core_0_l1i_rq_size 64
core_0_l1i_wq_size 64
core_0_l1i_pq_size 32
core_0_l1i_mshr_size 8
core_0_l1i_hit_latency 2
core_0_l1i_fill_latency 2
core_0_l1i_max_tag_check 2
core_0_l1i_max_fill 2
core_0_l1d_set 64
core_0_l1d_way 12
core_0_l1d_rq_size 64
core_0_l1d_wq_size 64
core_0_l1d_pq_size 8
core_0_l1d_mshr_size 16
core_0_l1d_hit_latency 2
core_0_l1d_fill_latency 3
core_0_l1d_max_tag_check 2
core_0_l1d_max_fill 2
core_0_l2c_set 1024
core_0_l2c_way 8
core_0_l2c_rq_size 32
core_0_l2c_wq_size 32
core_0_l2c_pq_size 16
core_0_l2c_mshr_size 32
core_0_l2c_hit_latency 5
core_0_l2c_fill_latency 5
core_0_l2c_max_tag_check 1
core_0_l2c_max_fill 1
llc_set 2048
llc_way 16
llc_rq_size 32
llc_wq_size 32
llc_pq_size 32
llc_mshr_size 64
llc_hit_latency 10
llc_fill_latency 10
llc_max_tag_check 1
llc_max_fill 1
dram_channels 1
dram_ranks 1
dram_bankgroups 8
dram_banks 4
dram_rows 65536
dram_columns 1024
dram_channel_width 8
dram_rq_size 64
dram_wq_size 64
dram_size 17179869184
core_0_itlb_prefetcher no
core_0_dtlb_prefetcher no
core_0_stlb_prefetcher no
core_0_l1i_prefetcher no
core_0_l1d_prefetcher no
core_0_l2c_prefetcher no
llc_prefetcher no
llc_replacement drrip

Core_0_instructions 50000002
Core_0_cycles 328562302
Core_0_IPC 0.152178
Core_0_branch_prediction_accuracy 96.7054
Core_0_branch_MPKI 4.99782
Core_0_average_ROB_occupancy_at_mispredict 156.169

Core_0_ITLB_total_access 262945
Core_0_ITLB_total_hit 262945
Core_0_ITLB_total_miss 0
Core_0_ITLB_total_MPKI 0
Core_0_ITLB_total_miss_rate 0
Core_0_ITLB_demand_access 262945
Core_0_ITLB_demand_hit 262945
Core_0_ITLB_demand_miss 0
Core_0_ITLB_demand_MPKI 0
Core_0_ITLB_demand_miss_rate 0
Core_0_ITLB_load_access 262945
Core_0_ITLB_load_hit 262945
Core_0_ITLB_load_miss 0
Core_0_ITLB_load_MPKI 0
Core_0_ITLB_load_miss_rate 0
Core_0_ITLB_rfo_access 0
Core_0_ITLB_rfo_hit 0
Core_0_ITLB_rfo_miss 0
Core_0_ITLB_rfo_MPKI 0
Core_0_ITLB_rfo_miss_rate 0
Core_0_ITLB_prefetch_access 0
Core_0_ITLB_prefetch_hit 0
Core_0_ITLB_prefetch_miss 0
Core_0_ITLB_prefetch_MPKI 0
Core_0_ITLB_prefetch_miss_rate 0
Core_0_ITLB_writeback_access 0
Core_0_ITLB_writeback_hit 0
Core_0_ITLB_writeback_miss 0
Core_0_ITLB_writeback_MPKI 0
Core_0_ITLB_writeback_miss_rate 0
Core_0_ITLB_prefetch_requested 0
Core_0_ITLB_prefetch_issued 0
Core_0_ITLB_prefetch_useful 0
Core_0_ITLB_prefetch_useless 0
Core_0_ITLB_prefetch_late 0
Core_0_ITLB_prefetch_accuracy 0
Core_0_ITLB_prefetch_coverage 0

Core_0_DTLB_total_access 16595641
Core_0_DTLB_total_hit 11079397
Core_0_DTLB_total_miss 5516244
Core_0_DTLB_total_MPKI 110.325
Core_0_DTLB_total_miss_rate 0.332391
Core_0_DTLB_demand_access 16595641
Core_0_DTLB_demand_hit 11079397
Core_0_DTLB_demand_miss 5516244
Core_0_DTLB_demand_MPKI 110.325
Core_0_DTLB_demand_miss_rate 0.332391
Core_0_DTLB_load_access 16595641
Core_0_DTLB_load_hit 11079397
Core_0_DTLB_load_miss 5516244
Core_0_DTLB_load_MPKI 110.325
Core_0_DTLB_load_miss_rate 0.332391
Core_0_DTLB_rfo_access 0
Core_0_DTLB_rfo_hit 0
Core_0_DTLB_rfo_miss 0
Core_0_DTLB_rfo_MPKI 0
Core_0_DTLB_rfo_miss_rate 0
Core_0_DTLB_prefetch_access 0
Core_0_DTLB_prefetch_hit 0
Core_0_DTLB_prefetch_miss 0
Core_0_DTLB_prefetch_MPKI 0
Core_0_DTLB_prefetch_miss_rate 0
Core_0_DTLB_writeback_access 0
Core_0_DTLB_writeback_hit 0
Core_0_DTLB_writeback_miss 0
Core_0_DTLB_writeback_MPKI 0
Core_0_DTLB_writeback_miss_rate 0
Core_0_DTLB_prefetch_requested 0
Core_0_DTLB_prefetch_issued 0
Core_0_DTLB_prefetch_useful 0
Core_0_DTLB_prefetch_useless 0
Core_0_DTLB_prefetch_late 0
Core_0_DTLB_prefetch_accuracy 0
Core_0_DTLB_prefetch_coverage 0

Core_0_STLB_total_access 3804009
Core_0_STLB_total_hit 183360
Core_0_STLB_total_miss 3620649
Core_0_STLB_total_MPKI 72.413
Core_0_STLB_total_miss_rate 0.951798
Core_0_STLB_demand_access 3804009
Core_0_STLB_demand_hit 183360
Core_0_STLB_demand_miss 3620649
Core_0_STLB_demand_MPKI 72.413
Core_0_STLB_demand_miss_rate 0.951798
Core_0_STLB_load_access 3804009
Core_0_STLB_load_hit 183360
Core_0_STLB_load_miss 3620649
Core_0_STLB_load_MPKI 72.413
Core_0_STLB_load_miss_rate 0.951798
Core_0_STLB_rfo_access 0
Core_0_STLB_rfo_hit 0
Core_0_STLB_rfo_miss 0
Core_0_STLB_rfo_MPKI 0
Core_0_STLB_rfo_miss_rate 0
Core_0_STLB_prefetch_access 0
Core_0_STLB_prefetch_hit 0
Core_0_STLB_prefetch_miss 0
Core_0_STLB_prefetch_MPKI 0
Core_0_STLB_prefetch_miss_rate 0
Core_0_STLB_writeback_access 0
Core_0_STLB_writeback_hit 0
Core_0_STLB_writeback_miss 0
Core_0_STLB_writeback_MPKI 0
Core_0_STLB_writeback_miss_rate 0
Core_0_STLB_prefetch_requested 0
Core_0_STLB_prefetch_issued 0
Core_0_STLB_prefetch_useful 0
Core_0_STLB_prefetch_useless 0
Core_0_STLB_prefetch_late 0
Core_0_STLB_prefetch_accuracy 0
Core_0_STLB_prefetch_coverage 0

Core_0_L1I_total_access 264503
Core_0_L1I_total_hit 264503
Core_0_L1I_total_miss 0
Core_0_L1I_total_MPKI 0
Core_0_L1I_total_miss_rate 0
Core_0_L1I_demand_access 264503
Core_0_L1I_demand_hit 264503
Core_0_L1I_demand_miss 0
Core_0_L1I_demand_MPKI 0
Core_0_L1I_demand_miss_rate 0
Core_0_L1I_load_access 264503
Core_0_L1I_load_hit 264503
Core_0_L1I_load_miss 0
Core_0_L1I_load_MPKI 0
Core_0_L1I_load_miss_rate 0
Core_0_L1I_rfo_access 0
Core_0_L1I_rfo_hit 0
Core_0_L1I_rfo_miss 0
Core_0_L1I_rfo_MPKI 0
Core_0_L1I_rfo_miss_rate 0
Core_0_L1I_prefetch_access 0
Core_0_L1I_prefetch_hit 0
Core_0_L1I_prefetch_miss 0
Core_0_L1I_prefetch_MPKI 0
Core_0_L1I_prefetch_miss_rate 0
Core_0_L1I_writeback_access 0
Core_0_L1I_writeback_hit 0
Core_0_L1I_writeback_miss 0
Core_0_L1I_writeback_MPKI 0
Core_0_L1I_writeback_miss_rate 0
Core_0_L1I_prefetch_requested 0
Core_0_L1I_prefetch_issued 0
Core_0_L1I_prefetch_useful 0
Core_0_L1I_prefetch_useless 0
Core_0_L1I_prefetch_late 0
Core_0_L1I_prefetch_accuracy 0
Core_0_L1I_prefetch_coverage 0

Core_0_L1D_total_access 16702050
Core_0_L1D_total_hit 9556147
Core_0_L1D_total_miss 7145903
Core_0_L1D_total_MPKI 142.918
Core_0_L1D_total_miss_rate 0.427846
Core_0_L1D_demand_access 15998166
Core_0_L1D_demand_hit 8943891
Core_0_L1D_demand_miss 7054275
Core_0_L1D_demand_MPKI 141.085
Core_0_L1D_demand_miss_rate 0.440943
Core_0_L1D_load_access 15998166
Core_0_L1D_load_hit 8943891
Core_0_L1D_load_miss 7054275
Core_0_L1D_load_MPKI 141.085
Core_0_L1D_load_miss_rate 0.440943
Core_0_L1D_rfo_access 0
Core_0_L1D_rfo_hit 0
Core_0_L1D_rfo_miss 0
Core_0_L1D_rfo_MPKI 0
Core_0_L1D_rfo_miss_rate 0
Core_0_L1D_prefetch_access 0
Core_0_L1D_prefetch_hit 0
Core_0_L1D_prefetch_miss 0
Core_0_L1D_prefetch_MPKI 0
Core_0_L1D_prefetch_miss_rate 0
Core_0_L1D_writeback_access 703884
Core_0_L1D_writeback_hit 612256
Core_0_L1D_writeback_miss 91628
Core_0_L1D_writeback_MPKI 1.83256
Core_0_L1D_writeback_miss_rate 0.130175
Core_0_L1D_prefetch_requested 0
Core_0_L1D_prefetch_issued 0
Core_0_L1D_prefetch_useful 0
Core_0_L1D_prefetch_useless 0
Core_0_L1D_prefetch_late 0
Core_0_L1D_prefetch_accuracy 0
Core_0_L1D_prefetch_coverage 0

Core_0_L2C_total_access 4440934
Core_0_L2C_total_hit 379569
Core_0_L2C_total_miss 4061365
Core_0_L2C_total_MPKI 81.2273
Core_0_L2C_total_miss_rate 0.914529
Core_0_L2C_demand_access 4180718
Core_0_L2C_demand_hit 119743
Core_0_L2C_demand_miss 4060975
Core_0_L2C_demand_MPKI 81.2195
Core_0_L2C_demand_miss_rate 0.971358
Core_0_L2C_load_access 4090939
Core_0_L2C_load_hit 47737
Core_0_L2C_load_miss 4043202
Core_0_L2C_load_MPKI 80.864
Core_0_L2C_load_miss_rate 0.988331
Core_0_L2C_rfo_access 89779
Core_0_L2C_rfo_hit 72006
Core_0_L2C_rfo_miss 17773
Core_0_L2C_rfo_MPKI 0.35546
Core_0_L2C_rfo_miss_rate 0.197964
Core_0_L2C_prefetch_access 0
Core_0_L2C_prefetch_hit 0
Core_0_L2C_prefetch_miss 0
Core_0_L2C_prefetch_MPKI 0
Core_0_L2C_prefetch_miss_rate 0
Core_0_L2C_writeback_access 260216
Core_0_L2C_writeback_hit 259826
Core_0_L2C_writeback_miss 390
Core_0_L2C_writeback_MPKI 0.0078
Core_0_L2C_writeback_miss_rate 0.00149875
Core_0_L2C_prefetch_requested 0
Core_0_L2C_prefetch_issued 0
Core_0_L2C_prefetch_useful 0
Core_0_L2C_prefetch_useless 0
Core_0_L2C_prefetch_late 0
Core_0_L2C_prefetch_accuracy 0
Core_0_L2C_prefetch_coverage 0

Core_0_LLC_total_access 4212572
Core_0_LLC_total_hit 59289
Core_0_LLC_total_miss 4153283
Core_0_LLC_total_MPKI 83.0657
Core_0_LLC_total_miss_rate 0.985926
Core_0_LLC_demand_access 4060975
Core_0_LLC_demand_hit 18469
Core_0_LLC_demand_miss 4042506
Core_0_LLC_demand_MPKI 80.8501
Core_0_LLC_demand_miss_rate 0.995452
Core_0_LLC_load_access 4043202
Core_0_LLC_load_hit 9297
Core_0_LLC_load_miss 4033905
Core_0_LLC_load_MPKI 80.6781
Core_0_LLC_load_miss_rate 0.997701
Core_0_LLC_rfo_access 17773
Core_0_LLC_rfo_hit 9172
Core_0_LLC_rfo_miss 8601
Core_0_LLC_rfo_MPKI 0.17202
Core_0_LLC_rfo_miss_rate 0.483936
Core_0_LLC_prefetch_access 0
Core_0_LLC_prefetch_hit 0
Core_0_LLC_prefetch_miss 0
Core_0_LLC_prefetch_MPKI 0
Core_0_LLC_prefetch_miss_rate 0
Core_0_LLC_writeback_access 151597
Core_0_LLC_writeback_hit 40820
Core_0_LLC_writeback_miss 110777
Core_0_LLC_writeback_MPKI 2.21554
Core_0_LLC_writeback_miss_rate 0.730733
Core_0_LLC_prefetch_requested 0
Core_0_LLC_prefetch_issued 0
Core_0_LLC_prefetch_useful 0
Core_0_LLC_prefetch_useless 0
Core_0_LLC_prefetch_late 0
Core_0_LLC_prefetch_accuracy 0
Core_0_LLC_prefetch_coverage 0

[DRAM Statistics]
Channel_0_RQ_row_buffer_hit 90
Channel_0_RQ_row_buffer_miss 4431579
Channel_0_WQ_row_buffer_hit 37914
Channel_0_WQ_row_buffer_miss 100825
Channel_0_WQ_full 0
Channel_0_dbus_congested 8049632
DRAM_total_RQ_row_buffer_hit 90
DRAM_total_RQ_row_buffer_miss 4431579
DRAM_total_WQ_row_buffer_hit 37914
DRAM_total_WQ_row_buffer_miss 100825
DRAM_total_WQ_full 0
DRAM_total_dbus_congested 8049632
DRAM_avg_congested_cycle 8.59003

====== DRAM_RQ_TRAFFIC ========
DRAM_RQ_READ_TRAFFIC_BREAKDOWN:
data_demand_read.count = 4042506
data_demand_read.share = 91.22%

inst_demand_read.count = 0
inst_demand_read.share = 0.00%

cache_inst_prefetch.count = 0
cache_inst_prefetch.share = 0.00%

cache_data_prefetch.count = 0
cache_data_prefetch.share = 0.00%

stlb_data_demand.count = 389164
stlb_data_demand.share = 8.78%

stlb_inst_demand.count = 0
stlb_inst_demand.share = 0.00%

stlb_l1i_pref.count = 0
stlb_l1i_pref.share = 0.00%

stlb_l1d_pref.count = 0
stlb_l1d_pref.share = 0.00%

DRAM_RQ_READ_TRAFFIC_SUMMARY:
cache_demand.count = 4042506
cache_demand.share = 91.22%

cache_prefetch.count = 0
cache_prefetch.share = 0.00%

stlb_demand.count = 389164
stlb_demand.share = 8.78%

stlb_prefetch.count = 0
stlb_prefetch.share = 0.00%

DRAM_RQ_READ_TRAFFIC_DEBUG:
total_classified_read.count = 4431670
unclassified_read.count = 0
total_read_with_other.count = 4431670

classified_plus_unclassified_check.count = 4431670
dram_rq_read_total_observed.count = 4431670
dram_rq_read_total_observed.per_1K_instructions = 88.6334

STLB_MISS_PTW_DRAM_TOUCH_BREAKDOWN:
stlb_miss_total.count = 3620642

stlb_miss_touch_dram.count = 347767
stlb_miss_touch_dram.share = 9.61%

stlb_miss_no_dram_touch.count = 3272875
stlb_miss_no_dram_touch.share = 90.39%

STLB_MISS_PTW_DRAM_TOUCH_DEBUG:
stlb_miss_touch_plus_no_touch.count = 3620642
stlb_miss_total_check.count = 3620642

======STLB miss causes ========
Core_0_STLB_miss_cause_breakdown
Core_0_STLB_cause_Demand_Data_miss 3620649
Core_0_STLB_cause_Demand_Data_miss_rate 0.951798
Core_0_STLB_cause_Demand_Instruction_miss 0
Core_0_STLB_cause_Demand_Instruction_miss_rate 0
Core_0_STLB_cause_L1D_Prefetch_miss 0
Core_0_STLB_cause_L1D_Prefetch_miss_rate 0
Core_0_STLB_cause_L1I_Prefetch_miss 0
Core_0_STLB_cause_L1I_Prefetch_miss_rate 0
Core_0_STLB_cause_Other_miss 0
Core_0_STLB_cause_Other_miss_rate 0
Core_0_STLB_Demand_miss 3620649
Core_0_STLB_Demand_miss_rate 0.951798
Core_0_STLB_L1D_Prefetch_miss 0
Core_0_STLB_L1D_Prefetch_miss_rate 0
Core_0_STLB_Other_miss 0
Core_0_STLB_Other_miss_rate 0
