[VMEM] WARNING: physical memory size is smaller than virtual memory size.

*** ChampSim Multicore Out-of-Order Simulator ***
Warmup Instructions: 20000000
Simulation Instructions: 50000000
Number of CPUs: 1
Page size: 4096
Core 0: /data2/zcq/champsim_traces_gap/tc.urand-187B.champsimtrace.xz
Off-chip DRAM Size: 16 GiB Channels: 1 Width: 64-bit Data Rate: 3205 MT/s
Warmup halting CPU 0 at instruction 20000001 cycle 13366375 for remainder of phase
Warmup finished CPU 0 instructions: 20000001 cycles: 13366375 cumulative IPC: 1.496 (Simulation time: 00 hr 02 min 10 sec)
Warmup complete CPU 0 instructions: 20000001 cycles: 13366375 cumulative IPC: 1.496 (Simulation time: 00 hr 02 min 10 sec)
Simulation finished CPU 0 instructions: 50000004 cycles: 373081549 cumulative IPC: 0.134 (Simulation time: 00 hr 23 min 16 sec)
Simulation complete CPU 0 instructions: 50000004 cycles: 373081549 cumulative IPC: 0.134 (Simulation time: 00 hr 23 min 16 sec)

ChampSim completed all CPUs

=== Simulation ===
CPU 0 runs /data2/zcq/champsim_traces_gap/tc.urand-187B.champsimtrace.xz

Region of Interest Statistics

CPU 0 cumulative IPC: 0.134 instructions: 50000004 cycles: 373081549
CPU 0 Branch Prediction Accuracy: 76.69% MPKI: 55.91 Average ROB Occupancy at Mispredict: 5.661
Branch type MPKI
BRANCH_DIRECT_JUMP: 0
BRANCH_INDIRECT: 0
BRANCH_CONDITIONAL: 55.91
BRANCH_DIRECT_CALL: 0
BRANCH_INDIRECT_CALL: 0
BRANCH_RETURN: 0

cpu0->cpu0_STLB TOTAL        ACCESS:     473268 HIT:       8241 MISS:     465027 MSHR_MERGE:          0
cpu0->cpu0_STLB LOAD         ACCESS:     473268 HIT:       8241 MISS:     465027 MSHR_MERGE:          0
cpu0->cpu0_STLB RFO          ACCESS:          0 HIT:          0 MISS:          0 MSHR_MERGE:          0
cpu0->cpu0_STLB PREFETCH     ACCESS:          0 HIT:          0 MISS:          0 MSHR_MERGE:          0
cpu0->cpu0_STLB WRITE        ACCESS:          0 HIT:          0 MISS:          0 MSHR_MERGE:          0
cpu0->cpu0_STLB TRANSLATION  ACCESS:          0 HIT:          0 MISS:          0 MSHR_MERGE:          0
cpu0->cpu0_STLB PREFETCH REQUESTED:          0 ISSUED:          0 USEFUL:          0 USELESS:          0 LATE:          0
cpu0->cpu0_STLB AVERAGE MISS LATENCY: 316 cycles
cpu0->cpu0_L2C TOTAL        ACCESS:    1370564 HIT:     190998 MISS:    1179566 MSHR_MERGE:          0
cpu0->cpu0_L2C LOAD         ACCESS:     688034 HIT:        489 MISS:     687545 MSHR_MERGE:          0
cpu0->cpu0_L2C RFO          ACCESS:        149 HIT:         62 MISS:         87 MSHR_MERGE:          0
cpu0->cpu0_L2C PREFETCH     ACCESS:          0 HIT:          0 MISS:          0 MSHR_MERGE:          0
cpu0->cpu0_L2C WRITE        ACCESS:        296 HIT:        296 MISS:          0 MSHR_MERGE:          0
cpu0->cpu0_L2C TRANSLATION  ACCESS:     682085 HIT:     190151 MISS:     491934 MSHR_MERGE:          0
cpu0->cpu0_L2C PREFETCH REQUESTED:          0 ISSUED:          0 USEFUL:          0 USELESS:          0 LATE:          0
cpu0->cpu0_L2C AVERAGE MISS LATENCY: 172 cycles
cpu0->cpu0_L1I TOTAL        ACCESS:          6 HIT:          6 MISS:          0 MSHR_MERGE:          0
cpu0->cpu0_L1I LOAD         ACCESS:          6 HIT:          6 MISS:          0 MSHR_MERGE:          0
cpu0->cpu0_L1I RFO          ACCESS:          0 HIT:          0 MISS:          0 MSHR_MERGE:          0
cpu0->cpu0_L1I PREFETCH     ACCESS:          0 HIT:          0 MISS:          0 MSHR_MERGE:          0
cpu0->cpu0_L1I WRITE        ACCESS:          0 HIT:          0 MISS:          0 MSHR_MERGE:          0
cpu0->cpu0_L1I TRANSLATION  ACCESS:          0 HIT:          0 MISS:          0 MSHR_MERGE:          0
cpu0->cpu0_L1I PREFETCH REQUESTED:          0 ISSUED:          0 USEFUL:          0 USELESS:          0 LATE:          0
cpu0->cpu0_L1I AVERAGE MISS LATENCY: - cycles
cpu0->cpu0_L1D TOTAL        ACCESS:    7646066 HIT:    6004754 MISS:    1641312 MSHR_MERGE:     271044
cpu0->cpu0_L1D LOAD         ACCESS:    6160903 HIT:    5202179 MISS:     958724 MSHR_MERGE:     270690
cpu0->cpu0_L1D RFO          ACCESS:          0 HIT:          0 MISS:          0 MSHR_MERGE:          0
cpu0->cpu0_L1D PREFETCH     ACCESS:          0 HIT:          0 MISS:          0 MSHR_MERGE:          0
cpu0->cpu0_L1D WRITE        ACCESS:        745 HIT:        447 MISS:        298 MSHR_MERGE:        149
cpu0->cpu0_L1D TRANSLATION  ACCESS:    1484418 HIT:     802128 MISS:     682290 MSHR_MERGE:        205
cpu0->cpu0_L1D PREFETCH REQUESTED:          0 ISSUED:          0 USEFUL:          0 USELESS:          0 LATE:          0
cpu0->cpu0_L1D AVERAGE MISS LATENCY: 156.9 cycles
cpu0->cpu0_ITLB TOTAL        ACCESS:          5 HIT:          5 MISS:          0 MSHR_MERGE:          0
cpu0->cpu0_ITLB LOAD         ACCESS:          5 HIT:          5 MISS:          0 MSHR_MERGE:          0
cpu0->cpu0_ITLB RFO          ACCESS:          0 HIT:          0 MISS:          0 MSHR_MERGE:          0
cpu0->cpu0_ITLB PREFETCH     ACCESS:          0 HIT:          0 MISS:          0 MSHR_MERGE:          0
cpu0->cpu0_ITLB WRITE        ACCESS:          0 HIT:          0 MISS:          0 MSHR_MERGE:          0
cpu0->cpu0_ITLB TRANSLATION  ACCESS:          0 HIT:          0 MISS:          0 MSHR_MERGE:          0
cpu0->cpu0_ITLB PREFETCH REQUESTED:          0 ISSUED:          0 USEFUL:          0 USELESS:          0 LATE:          0
cpu0->cpu0_ITLB AVERAGE MISS LATENCY: - cycles
cpu0->cpu0_DTLB TOTAL        ACCESS:    6161643 HIT:    5502371 MISS:     659272 MSHR_MERGE:     186004
cpu0->cpu0_DTLB LOAD         ACCESS:    6161643 HIT:    5502371 MISS:     659272 MSHR_MERGE:     186004
cpu0->cpu0_DTLB RFO          ACCESS:          0 HIT:          0 MISS:          0 MSHR_MERGE:          0
cpu0->cpu0_DTLB PREFETCH     ACCESS:          0 HIT:          0 MISS:          0 MSHR_MERGE:          0
cpu0->cpu0_DTLB WRITE        ACCESS:          0 HIT:          0 MISS:          0 MSHR_MERGE:          0
cpu0->cpu0_DTLB TRANSLATION  ACCESS:          0 HIT:          0 MISS:          0 MSHR_MERGE:          0
cpu0->cpu0_DTLB PREFETCH REQUESTED:          0 ISSUED:          0 USEFUL:          0 USELESS:          0 LATE:          0
cpu0->cpu0_DTLB AVERAGE MISS LATENCY: 316.5 cycles
cpu0->LLC TOTAL        ACCESS:    1179725 HIT:     116012 MISS:    1063713 MSHR_MERGE:          0
cpu0->LLC LOAD         ACCESS:     687545 HIT:        716 MISS:     686829 MSHR_MERGE:          0
cpu0->LLC RFO          ACCESS:         87 HIT:         85 MISS:          2 MSHR_MERGE:          0
cpu0->LLC PREFETCH     ACCESS:          0 HIT:          0 MISS:          0 MSHR_MERGE:          0
cpu0->LLC WRITE        ACCESS:        159 HIT:        158 MISS:          1 MSHR_MERGE:          0
cpu0->LLC TRANSLATION  ACCESS:     491934 HIT:     115053 MISS:     376881 MSHR_MERGE:          0
cpu0->LLC PREFETCH REQUESTED:          0 ISSUED:          0 USEFUL:          0 USELESS:          0 LATE:          0
cpu0->LLC AVERAGE MISS LATENCY: 173.1 cycles

DRAM Statistics

Channel 0 RQ ROW_BUFFER_HIT:         45
  ROW_BUFFER_MISS:    1063668
  AVG DBUS CONGESTED CYCLE: 2.994
Channel 0 WQ ROW_BUFFER_HIT:          1
  ROW_BUFFER_MISS:          3
  FULL:          0
Channel 0 REFRESHES ISSUED:      31090

[ROI Statistics]
[System Configuration]
num_cpus 1
cpu_freq 4000
fetch_width 6
decode_width 6
dispatch_width 6
execute_width 6
lq_width 2
sq_width 2
retire_width 6
scheduler_size 128
branch_mispredict_penalty 15
rob_size 352
lq_size 128
sq_size 72
ifetch_buffer_size 64
decode_buffer_size 32
dispatch_buffer_size 32
register_file_size 288
decode_latency 1
dispatch_latency 1
schedule_latency 1
execute_latency 1
page_size 4096
block_size 64
core_0_itlb_set 16
core_0_itlb_way 4
core_0_itlb_rq_size 16
core_0_itlb_wq_size 16
core_0_itlb_pq_size 0
core_0_itlb_mshr_size 8
core_0_itlb_hit_latency 1
core_0_itlb_fill_latency 1
core_0_itlb_max_tag_check 2
core_0_itlb_max_fill 2
core_0_dtlb_set 16
core_0_dtlb_way 4
core_0_dtlb_rq_size 16
core_0_dtlb_wq_size 16
core_0_dtlb_pq_size 0
core_0_dtlb_mshr_size 8
core_0_dtlb_hit_latency 1
core_0_dtlb_fill_latency 1
core_0_dtlb_max_tag_check 2
core_0_dtlb_max_fill 2
core_0_stlb_set 128
core_0_stlb_way 12
core_0_stlb_rq_size 32
core_0_stlb_wq_size 32
core_0_stlb_pq_size 0
core_0_stlb_mshr_size 16
core_0_stlb_hit_latency 4
core_0_stlb_fill_latency 4
core_0_stlb_max_tag_check 1
core_0_stlb_max_fill 1
core_0_l1i_set 64
core_0_l1i_way 8
core_0_l1i_rq_size 64
core_0_l1i_wq_size 64
core_0_l1i_pq_size 32
core_0_l1i_mshr_size 8
core_0_l1i_hit_latency 2
core_0_l1i_fill_latency 2
core_0_l1i_max_tag_check 2
core_0_l1i_max_fill 2
core_0_l1d_set 64
core_0_l1d_way 12
core_0_l1d_rq_size 64
core_0_l1d_wq_size 64
core_0_l1d_pq_size 8
core_0_l1d_mshr_size 16
core_0_l1d_hit_latency 2
core_0_l1d_fill_latency 3
core_0_l1d_max_tag_check 2
core_0_l1d_max_fill 2
core_0_l2c_set 1024
core_0_l2c_way 8
core_0_l2c_rq_size 32
core_0_l2c_wq_size 32
core_0_l2c_pq_size 16
core_0_l2c_mshr_size 32
core_0_l2c_hit_latency 5
core_0_l2c_fill_latency 5
core_0_l2c_max_tag_check 1
core_0_l2c_max_fill 1
llc_set 2048
llc_way 16
llc_rq_size 32
llc_wq_size 32
llc_pq_size 32
llc_mshr_size 64
llc_hit_latency 10
llc_fill_latency 10
llc_max_tag_check 1
llc_max_fill 1
dram_channels 1
dram_ranks 1
dram_bankgroups 8
dram_banks 4
dram_rows 65536
dram_columns 1024
dram_channel_width 8
dram_rq_size 64
dram_wq_size 64
dram_size 17179869184
core_0_itlb_prefetcher no
core_0_dtlb_prefetcher no
core_0_stlb_prefetcher no
core_0_l1i_prefetcher no
core_0_l1d_prefetcher no
core_0_l2c_prefetcher no
llc_prefetcher no
llc_replacement drrip

Core_0_instructions 50000004
Core_0_cycles 373081549
Core_0_IPC 0.134019
Core_0_branch_prediction_accuracy 76.6944
Core_0_branch_MPKI 55.9057
Core_0_average_ROB_occupancy_at_mispredict 5.66117

Core_0_ITLB_total_access 5
Core_0_ITLB_total_hit 5
Core_0_ITLB_total_miss 0
Core_0_ITLB_total_MPKI 0
Core_0_ITLB_total_miss_rate 0
Core_0_ITLB_demand_access 5
Core_0_ITLB_demand_hit 5
Core_0_ITLB_demand_miss 0
Core_0_ITLB_demand_MPKI 0
Core_0_ITLB_demand_miss_rate 0
Core_0_ITLB_load_access 5
Core_0_ITLB_load_hit 5
Core_0_ITLB_load_miss 0
Core_0_ITLB_load_MPKI 0
Core_0_ITLB_load_miss_rate 0
Core_0_ITLB_rfo_access 0
Core_0_ITLB_rfo_hit 0
Core_0_ITLB_rfo_miss 0
Core_0_ITLB_rfo_MPKI 0
Core_0_ITLB_rfo_miss_rate 0
Core_0_ITLB_prefetch_access 0
Core_0_ITLB_prefetch_hit 0
Core_0_ITLB_prefetch_miss 0
Core_0_ITLB_prefetch_MPKI 0
Core_0_ITLB_prefetch_miss_rate 0
Core_0_ITLB_writeback_access 0
Core_0_ITLB_writeback_hit 0
Core_0_ITLB_writeback_miss 0
Core_0_ITLB_writeback_MPKI 0
Core_0_ITLB_writeback_miss_rate 0
Core_0_ITLB_prefetch_requested 0
Core_0_ITLB_prefetch_issued 0
Core_0_ITLB_prefetch_useful 0
Core_0_ITLB_prefetch_useless 0
Core_0_ITLB_prefetch_late 0
Core_0_ITLB_prefetch_accuracy 0
Core_0_ITLB_prefetch_coverage 0

Core_0_DTLB_total_access 6161643
Core_0_DTLB_total_hit 5502371
Core_0_DTLB_total_miss 659272
Core_0_DTLB_total_MPKI 13.1854
Core_0_DTLB_total_miss_rate 0.106996
Core_0_DTLB_demand_access 6161643
Core_0_DTLB_demand_hit 5502371
Core_0_DTLB_demand_miss 659272
Core_0_DTLB_demand_MPKI 13.1854
Core_0_DTLB_demand_miss_rate 0.106996
Core_0_DTLB_load_access 6161643
Core_0_DTLB_load_hit 5502371
Core_0_DTLB_load_miss 659272
Core_0_DTLB_load_MPKI 13.1854
Core_0_DTLB_load_miss_rate 0.106996
Core_0_DTLB_rfo_access 0
Core_0_DTLB_rfo_hit 0
Core_0_DTLB_rfo_miss 0
Core_0_DTLB_rfo_MPKI 0
Core_0_DTLB_rfo_miss_rate 0
Core_0_DTLB_prefetch_access 0
Core_0_DTLB_prefetch_hit 0
Core_0_DTLB_prefetch_miss 0
Core_0_DTLB_prefetch_MPKI 0
Core_0_DTLB_prefetch_miss_rate 0
Core_0_DTLB_writeback_access 0
Core_0_DTLB_writeback_hit 0
Core_0_DTLB_writeback_miss 0
Core_0_DTLB_writeback_MPKI 0
Core_0_DTLB_writeback_miss_rate 0
Core_0_DTLB_prefetch_requested 0
Core_0_DTLB_prefetch_issued 0
Core_0_DTLB_prefetch_useful 0
Core_0_DTLB_prefetch_useless 0
Core_0_DTLB_prefetch_late 0
Core_0_DTLB_prefetch_accuracy 0
Core_0_DTLB_prefetch_coverage 0

Core_0_STLB_total_access 473268
Core_0_STLB_total_hit 8241
Core_0_STLB_total_miss 465027
Core_0_STLB_total_MPKI 9.30054
Core_0_STLB_total_miss_rate 0.982587
Core_0_STLB_demand_access 473268
Core_0_STLB_demand_hit 8241
Core_0_STLB_demand_miss 465027
Core_0_STLB_demand_MPKI 9.30054
Core_0_STLB_demand_miss_rate 0.982587
Core_0_STLB_load_access 473268
Core_0_STLB_load_hit 8241
Core_0_STLB_load_miss 465027
Core_0_STLB_load_MPKI 9.30054
Core_0_STLB_load_miss_rate 0.982587
Core_0_STLB_rfo_access 0
Core_0_STLB_rfo_hit 0
Core_0_STLB_rfo_miss 0
Core_0_STLB_rfo_MPKI 0
Core_0_STLB_rfo_miss_rate 0
Core_0_STLB_prefetch_access 0
Core_0_STLB_prefetch_hit 0
Core_0_STLB_prefetch_miss 0
Core_0_STLB_prefetch_MPKI 0
Core_0_STLB_prefetch_miss_rate 0
Core_0_STLB_writeback_access 0
Core_0_STLB_writeback_hit 0
Core_0_STLB_writeback_miss 0
Core_0_STLB_writeback_MPKI 0
Core_0_STLB_writeback_miss_rate 0
Core_0_STLB_prefetch_requested 0
Core_0_STLB_prefetch_issued 0
Core_0_STLB_prefetch_useful 0
Core_0_STLB_prefetch_useless 0
Core_0_STLB_prefetch_late 0
Core_0_STLB_prefetch_accuracy 0
Core_0_STLB_prefetch_coverage 0

Core_0_L1I_total_access 6
Core_0_L1I_total_hit 6
Core_0_L1I_total_miss 0
Core_0_L1I_total_MPKI 0
Core_0_L1I_total_miss_rate 0
Core_0_L1I_demand_access 6
Core_0_L1I_demand_hit 6
Core_0_L1I_demand_miss 0
Core_0_L1I_demand_MPKI 0
Core_0_L1I_demand_miss_rate 0
Core_0_L1I_load_access 6
Core_0_L1I_load_hit 6
Core_0_L1I_load_miss 0
Core_0_L1I_load_MPKI 0
Core_0_L1I_load_miss_rate 0
Core_0_L1I_rfo_access 0
Core_0_L1I_rfo_hit 0
Core_0_L1I_rfo_miss 0
Core_0_L1I_rfo_MPKI 0
Core_0_L1I_rfo_miss_rate 0
Core_0_L1I_prefetch_access 0
Core_0_L1I_prefetch_hit 0
Core_0_L1I_prefetch_miss 0
Core_0_L1I_prefetch_MPKI 0
Core_0_L1I_prefetch_miss_rate 0
Core_0_L1I_writeback_access 0
Core_0_L1I_writeback_hit 0
Core_0_L1I_writeback_miss 0
Core_0_L1I_writeback_MPKI 0
Core_0_L1I_writeback_miss_rate 0
Core_0_L1I_prefetch_requested 0
Core_0_L1I_prefetch_issued 0
Core_0_L1I_prefetch_useful 0
Core_0_L1I_prefetch_useless 0
Core_0_L1I_prefetch_late 0
Core_0_L1I_prefetch_accuracy 0
Core_0_L1I_prefetch_coverage 0

Core_0_L1D_total_access 6161648
Core_0_L1D_total_hit 5202626
Core_0_L1D_total_miss 959022
Core_0_L1D_total_MPKI 19.1804
Core_0_L1D_total_miss_rate 0.155644
Core_0_L1D_demand_access 6160903
Core_0_L1D_demand_hit 5202179
Core_0_L1D_demand_miss 958724
Core_0_L1D_demand_MPKI 19.1745
Core_0_L1D_demand_miss_rate 0.155614
Core_0_L1D_load_access 6160903
Core_0_L1D_load_hit 5202179
Core_0_L1D_load_miss 958724
Core_0_L1D_load_MPKI 19.1745
Core_0_L1D_load_miss_rate 0.155614
Core_0_L1D_rfo_access 0
Core_0_L1D_rfo_hit 0
Core_0_L1D_rfo_miss 0
Core_0_L1D_rfo_MPKI 0
Core_0_L1D_rfo_miss_rate 0
Core_0_L1D_prefetch_access 0
Core_0_L1D_prefetch_hit 0
Core_0_L1D_prefetch_miss 0
Core_0_L1D_prefetch_MPKI 0
Core_0_L1D_prefetch_miss_rate 0
Core_0_L1D_writeback_access 745
Core_0_L1D_writeback_hit 447
Core_0_L1D_writeback_miss 298
Core_0_L1D_writeback_MPKI 0.00596
Core_0_L1D_writeback_miss_rate 0.4
Core_0_L1D_prefetch_requested 0
Core_0_L1D_prefetch_issued 0
Core_0_L1D_prefetch_useful 0
Core_0_L1D_prefetch_useless 0
Core_0_L1D_prefetch_late 0
Core_0_L1D_prefetch_accuracy 0
Core_0_L1D_prefetch_coverage 0

Core_0_L2C_total_access 688479
Core_0_L2C_total_hit 847
Core_0_L2C_total_miss 687632
Core_0_L2C_total_MPKI 13.7526
Core_0_L2C_total_miss_rate 0.99877
Core_0_L2C_demand_access 688183
Core_0_L2C_demand_hit 551
Core_0_L2C_demand_miss 687632
Core_0_L2C_demand_MPKI 13.7526
Core_0_L2C_demand_miss_rate 0.999199
Core_0_L2C_load_access 688034
Core_0_L2C_load_hit 489
Core_0_L2C_load_miss 687545
Core_0_L2C_load_MPKI 13.7509
Core_0_L2C_load_miss_rate 0.999289
Core_0_L2C_rfo_access 149
Core_0_L2C_rfo_hit 62
Core_0_L2C_rfo_miss 87
Core_0_L2C_rfo_MPKI 0.00174
Core_0_L2C_rfo_miss_rate 0.583893
Core_0_L2C_prefetch_access 0
Core_0_L2C_prefetch_hit 0
Core_0_L2C_prefetch_miss 0
Core_0_L2C_prefetch_MPKI 0
Core_0_L2C_prefetch_miss_rate 0
Core_0_L2C_writeback_access 296
Core_0_L2C_writeback_hit 296
Core_0_L2C_writeback_miss 0
Core_0_L2C_writeback_MPKI 0
Core_0_L2C_writeback_miss_rate 0
Core_0_L2C_prefetch_requested 0
Core_0_L2C_prefetch_issued 0
Core_0_L2C_prefetch_useful 0
Core_0_L2C_prefetch_useless 0
Core_0_L2C_prefetch_late 0
Core_0_L2C_prefetch_accuracy 0
Core_0_L2C_prefetch_coverage 0

Core_0_LLC_total_access 687791
Core_0_LLC_total_hit 959
Core_0_LLC_total_miss 686832
Core_0_LLC_total_MPKI 13.7366
Core_0_LLC_total_miss_rate 0.998606
Core_0_LLC_demand_access 687632
Core_0_LLC_demand_hit 801
Core_0_LLC_demand_miss 686831
Core_0_LLC_demand_MPKI 13.7366
Core_0_LLC_demand_miss_rate 0.998835
Core_0_LLC_load_access 687545
Core_0_LLC_load_hit 716
Core_0_LLC_load_miss 686829
Core_0_LLC_load_MPKI 13.7366
Core_0_LLC_load_miss_rate 0.998959
Core_0_LLC_rfo_access 87
Core_0_LLC_rfo_hit 85
Core_0_LLC_rfo_miss 2
Core_0_LLC_rfo_MPKI 4e-05
Core_0_LLC_rfo_miss_rate 0.0229885
Core_0_LLC_prefetch_access 0
Core_0_LLC_prefetch_hit 0
Core_0_LLC_prefetch_miss 0
Core_0_LLC_prefetch_MPKI 0
Core_0_LLC_prefetch_miss_rate 0
Core_0_LLC_writeback_access 159
Core_0_LLC_writeback_hit 158
Core_0_LLC_writeback_miss 1
Core_0_LLC_writeback_MPKI 2e-05
Core_0_LLC_writeback_miss_rate 0.00628931
Core_0_LLC_prefetch_requested 0
Core_0_LLC_prefetch_issued 0
Core_0_LLC_prefetch_useful 0
Core_0_LLC_prefetch_useless 0
Core_0_LLC_prefetch_late 0
Core_0_LLC_prefetch_accuracy 0
Core_0_LLC_prefetch_coverage 0

[DRAM Statistics]
Channel_0_RQ_row_buffer_hit 45
Channel_0_RQ_row_buffer_miss 1063668
Channel_0_WQ_row_buffer_hit 1
Channel_0_WQ_row_buffer_miss 3
Channel_0_WQ_full 0
Channel_0_dbus_congested 78366
DRAM_total_RQ_row_buffer_hit 45
DRAM_total_RQ_row_buffer_miss 1063668
DRAM_total_WQ_row_buffer_hit 1
DRAM_total_WQ_row_buffer_miss 3
DRAM_total_WQ_full 0
DRAM_total_dbus_congested 78366
DRAM_avg_congested_cycle 2.99447

====== DRAM_RQ_TRAFFIC ========
DRAM_RQ_READ_TRAFFIC_BREAKDOWN:
data_demand_read.count = 686831
data_demand_read.share = 64.57%

inst_demand_read.count = 0
inst_demand_read.share = 0.00%

cache_inst_prefetch.count = 0
cache_inst_prefetch.share = 0.00%

cache_data_prefetch.count = 0
cache_data_prefetch.share = 0.00%

stlb_data_demand.count = 376882
stlb_data_demand.share = 35.43%

stlb_inst_demand.count = 0
stlb_inst_demand.share = 0.00%

stlb_l1i_pref.count = 0
stlb_l1i_pref.share = 0.00%

stlb_l1d_pref.count = 0
stlb_l1d_pref.share = 0.00%

DRAM_RQ_READ_TRAFFIC_SUMMARY:
cache_demand.count = 686831
cache_demand.share = 64.57%

cache_prefetch.count = 0
cache_prefetch.share = 0.00%

stlb_demand.count = 376882
stlb_demand.share = 35.43%

stlb_prefetch.count = 0
stlb_prefetch.share = 0.00%

DRAM_RQ_READ_TRAFFIC_DEBUG:
total_classified_read.count = 1063713
unclassified_read.count = 0
total_read_with_other.count = 1063713

classified_plus_unclassified_check.count = 1063713
dram_rq_read_total_observed.count = 1063713
dram_rq_read_total_observed.per_1K_instructions = 21.2743

STLB_MISS_PTW_DRAM_TOUCH_BREAKDOWN:
stlb_miss_total.count = 465027

stlb_miss_touch_dram.count = 376805
stlb_miss_touch_dram.share = 81.03%

stlb_miss_no_dram_touch.count = 88222
stlb_miss_no_dram_touch.share = 18.97%

STLB_MISS_PTW_DRAM_TOUCH_DEBUG:
stlb_miss_touch_plus_no_touch.count = 465027
stlb_miss_total_check.count = 465027

======STLB miss causes ========
Core_0_STLB_miss_cause_breakdown
Core_0_STLB_cause_Demand_Data_miss 465027
Core_0_STLB_cause_Demand_Data_miss_rate 0.982587
Core_0_STLB_cause_Demand_Instruction_miss 0
Core_0_STLB_cause_Demand_Instruction_miss_rate 0
Core_0_STLB_cause_L1D_Prefetch_miss 0
Core_0_STLB_cause_L1D_Prefetch_miss_rate 0
Core_0_STLB_cause_L1I_Prefetch_miss 0
Core_0_STLB_cause_L1I_Prefetch_miss_rate 0
Core_0_STLB_cause_Other_miss 0
Core_0_STLB_cause_Other_miss_rate 0
Core_0_STLB_Demand_miss 465027
Core_0_STLB_Demand_miss_rate 0.982587
Core_0_STLB_L1D_Prefetch_miss 0
Core_0_STLB_L1D_Prefetch_miss_rate 0
Core_0_STLB_Other_miss 0
Core_0_STLB_Other_miss_rate 0
