[VMEM] WARNING: physical memory size is smaller than virtual memory size.

*** ChampSim Multicore Out-of-Order Simulator ***
Warmup Instructions: 20000000
Simulation Instructions: 50000000
Number of CPUs: 1
Page size: 4096
Core 0: /data2/zcq/champsim_traces_xsbench/xs.XL64unionized-56B.champsimtrace.xz
Off-chip DRAM Size: 16 GiB Channels: 1 Width: 64-bit Data Rate: 3205 MT/s
Warmup halting CPU 0 at instruction 20000002 cycle 5088949 for remainder of phase
Warmup finished CPU 0 instructions: 20000002 cycles: 5088949 cumulative IPC: 3.93 (Simulation time: 00 hr 00 min 48 sec)
Warmup complete CPU 0 instructions: 20000002 cycles: 5088949 cumulative IPC: 3.93 (Simulation time: 00 hr 00 min 48 sec)
Simulation finished CPU 0 instructions: 50000003 cycles: 32030197 cumulative IPC: 1.561 (Simulation time: 00 hr 04 min 52 sec)
Simulation complete CPU 0 instructions: 50000003 cycles: 32030197 cumulative IPC: 1.561 (Simulation time: 00 hr 04 min 52 sec)

ChampSim completed all CPUs

=== Simulation ===
CPU 0 runs /data2/zcq/champsim_traces_xsbench/xs.XL64unionized-56B.champsimtrace.xz

Region of Interest Statistics

CPU 0 cumulative IPC: 1.561 instructions: 50000003 cycles: 32030197
CPU 0 Branch Prediction Accuracy: 99.42% MPKI: 1.328 Average ROB Occupancy at Mispredict: 147.9
Branch type MPKI
BRANCH_DIRECT_JUMP: 4e-05
BRANCH_INDIRECT: 0
BRANCH_CONDITIONAL: 1.327
BRANCH_DIRECT_CALL: 6e-05
BRANCH_INDIRECT_CALL: 0.0008
BRANCH_RETURN: 0.00074

cpu0->cpu0_STLB TOTAL        ACCESS:       6882 HIT:       1132 MISS:       5750 MSHR_MERGE:          0
cpu0->cpu0_STLB LOAD         ACCESS:       6882 HIT:       1132 MISS:       5750 MSHR_MERGE:          0
cpu0->cpu0_STLB RFO          ACCESS:          0 HIT:          0 MISS:          0 MSHR_MERGE:          0
cpu0->cpu0_STLB PREFETCH     ACCESS:          0 HIT:          0 MISS:          0 MSHR_MERGE:          0
cpu0->cpu0_STLB WRITE        ACCESS:          0 HIT:          0 MISS:          0 MSHR_MERGE:          0
cpu0->cpu0_STLB TRANSLATION  ACCESS:          0 HIT:          0 MISS:          0 MSHR_MERGE:          0
cpu0->cpu0_STLB PREFETCH REQUESTED:          0 ISSUED:          0 USEFUL:          0 USELESS:          0 LATE:          0
cpu0->cpu0_STLB AVERAGE MISS LATENCY: 149.5 cycles
cpu0->cpu0_L2C TOTAL        ACCESS:     789615 HIT:     383495 MISS:     406120 MSHR_MERGE:          0
cpu0->cpu0_L2C LOAD         ACCESS:     305309 HIT:      79829 MISS:     225480 MSHR_MERGE:          0
cpu0->cpu0_L2C RFO          ACCESS:     212132 HIT:      32239 MISS:     179893 MSHR_MERGE:          0
cpu0->cpu0_L2C PREFETCH     ACCESS:          0 HIT:          0 MISS:          0 MSHR_MERGE:          0
cpu0->cpu0_L2C WRITE        ACCESS:     271409 HIT:     271404 MISS:          5 MSHR_MERGE:          0
cpu0->cpu0_L2C TRANSLATION  ACCESS:        765 HIT:         23 MISS:        742 MSHR_MERGE:          0
cpu0->cpu0_L2C PREFETCH REQUESTED:          0 ISSUED:          0 USEFUL:          0 USELESS:          0 LATE:          0
cpu0->cpu0_L2C AVERAGE MISS LATENCY: 393.9 cycles
cpu0->cpu0_L1I TOTAL        ACCESS:    2786779 HIT:    2786749 MISS:         30 MSHR_MERGE:          6
cpu0->cpu0_L1I LOAD         ACCESS:    2786779 HIT:    2786749 MISS:         30 MSHR_MERGE:          6
cpu0->cpu0_L1I RFO          ACCESS:          0 HIT:          0 MISS:          0 MSHR_MERGE:          0
cpu0->cpu0_L1I PREFETCH     ACCESS:          0 HIT:          0 MISS:          0 MSHR_MERGE:          0
cpu0->cpu0_L1I WRITE        ACCESS:          0 HIT:          0 MISS:          0 MSHR_MERGE:          0
cpu0->cpu0_L1I TRANSLATION  ACCESS:          0 HIT:          0 MISS:          0 MSHR_MERGE:          0
cpu0->cpu0_L1I PREFETCH REQUESTED:          0 ISSUED:          0 USEFUL:          0 USELESS:          0 LATE:          0
cpu0->cpu0_L1I AVERAGE MISS LATENCY: 274.2 cycles
cpu0->cpu0_L1D TOTAL        ACCESS:   13357289 HIT:   11459911 MISS:    1897378 MSHR_MERGE:    1379189
cpu0->cpu0_L1D LOAD         ACCESS:    6404406 HIT:    5953454 MISS:     450952 MSHR_MERGE:     145667
cpu0->cpu0_L1D RFO          ACCESS:          0 HIT:          0 MISS:          0 MSHR_MERGE:          0
cpu0->cpu0_L1D PREFETCH     ACCESS:          0 HIT:          0 MISS:          0 MSHR_MERGE:          0
cpu0->cpu0_L1D WRITE        ACCESS:    6941378 HIT:    5495717 MISS:    1445661 MSHR_MERGE:    1233522
cpu0->cpu0_L1D TRANSLATION  ACCESS:      11505 HIT:      10740 MISS:        765 MSHR_MERGE:          0
cpu0->cpu0_L1D PREFETCH REQUESTED:          0 ISSUED:          0 USEFUL:          0 USELESS:          0 LATE:          0
cpu0->cpu0_L1D AVERAGE MISS LATENCY: 317.7 cycles
cpu0->cpu0_ITLB TOTAL        ACCESS:    2361942 HIT:    2361940 MISS:          2 MSHR_MERGE:          0
cpu0->cpu0_ITLB LOAD         ACCESS:    2361942 HIT:    2361940 MISS:          2 MSHR_MERGE:          0
cpu0->cpu0_ITLB RFO          ACCESS:          0 HIT:          0 MISS:          0 MSHR_MERGE:          0
cpu0->cpu0_ITLB PREFETCH     ACCESS:          0 HIT:          0 MISS:          0 MSHR_MERGE:          0
cpu0->cpu0_ITLB WRITE        ACCESS:          0 HIT:          0 MISS:          0 MSHR_MERGE:          0
cpu0->cpu0_ITLB TRANSLATION  ACCESS:          0 HIT:          0 MISS:          0 MSHR_MERGE:          0
cpu0->cpu0_ITLB PREFETCH REQUESTED:          0 ISSUED:          0 USEFUL:          0 USELESS:          0 LATE:          0
cpu0->cpu0_ITLB AVERAGE MISS LATENCY: 768.5 cycles
cpu0->cpu0_DTLB TOTAL        ACCESS:   12341402 HIT:   12292397 MISS:      49005 MSHR_MERGE:      42125
cpu0->cpu0_DTLB LOAD         ACCESS:   12341402 HIT:   12292397 MISS:      49005 MSHR_MERGE:      42125
cpu0->cpu0_DTLB RFO          ACCESS:          0 HIT:          0 MISS:          0 MSHR_MERGE:          0
cpu0->cpu0_DTLB PREFETCH     ACCESS:          0 HIT:          0 MISS:          0 MSHR_MERGE:          0
cpu0->cpu0_DTLB WRITE        ACCESS:          0 HIT:          0 MISS:          0 MSHR_MERGE:          0
cpu0->cpu0_DTLB TRANSLATION  ACCESS:          0 HIT:          0 MISS:          0 MSHR_MERGE:          0
cpu0->cpu0_DTLB PREFETCH REQUESTED:          0 ISSUED:          0 USEFUL:          0 USELESS:          0 LATE:          0
cpu0->cpu0_DTLB AVERAGE MISS LATENCY: 130.6 cycles
cpu0->LLC TOTAL        ACCESS:     620230 HIT:     225614 MISS:     394616 MSHR_MERGE:          0
cpu0->LLC LOAD         ACCESS:     225480 HIT:      28881 MISS:     196599 MSHR_MERGE:          0
cpu0->LLC RFO          ACCESS:     179893 HIT:       9157 MISS:     170736 MSHR_MERGE:          0
cpu0->LLC PREFETCH     ACCESS:          0 HIT:          0 MISS:          0 MSHR_MERGE:          0
cpu0->LLC WRITE        ACCESS:     214115 HIT:     187569 MISS:      26546 MSHR_MERGE:          0
cpu0->LLC TRANSLATION  ACCESS:        742 HIT:          7 MISS:        735 MSHR_MERGE:          0
cpu0->LLC PREFETCH REQUESTED:          0 ISSUED:          0 USEFUL:          0 USELESS:          0 LATE:          0
cpu0->LLC AVERAGE MISS LATENCY: 389.5 cycles

DRAM Statistics

Channel 0 RQ ROW_BUFFER_HIT:      13787
  ROW_BUFFER_MISS:     354283
  AVG DBUS CONGESTED CYCLE: 6.649
Channel 0 WQ ROW_BUFFER_HIT:      20707
  ROW_BUFFER_MISS:     165577
  FULL:          0
Channel 0 REFRESHES ISSUED:       2669

[ROI Statistics]
[System Configuration]
num_cpus 1
cpu_freq 4000
fetch_width 6
decode_width 6
dispatch_width 6
execute_width 6
lq_width 2
sq_width 2
retire_width 6
scheduler_size 128
branch_mispredict_penalty 15
rob_size 352
lq_size 128
sq_size 72
ifetch_buffer_size 64
decode_buffer_size 32
dispatch_buffer_size 32
register_file_size 288
decode_latency 1
dispatch_latency 1
schedule_latency 1
execute_latency 1
page_size 4096
block_size 64
core_0_itlb_set 16
core_0_itlb_way 4
core_0_itlb_rq_size 16
core_0_itlb_wq_size 16
core_0_itlb_pq_size 0
core_0_itlb_mshr_size 8
core_0_itlb_hit_latency 1
core_0_itlb_fill_latency 1
core_0_itlb_max_tag_check 2
core_0_itlb_max_fill 2
core_0_dtlb_set 16
core_0_dtlb_way 4
core_0_dtlb_rq_size 16
core_0_dtlb_wq_size 16
core_0_dtlb_pq_size 0
core_0_dtlb_mshr_size 8
core_0_dtlb_hit_latency 1
core_0_dtlb_fill_latency 1
core_0_dtlb_max_tag_check 2
core_0_dtlb_max_fill 2
core_0_stlb_set 128
core_0_stlb_way 12
core_0_stlb_rq_size 32
core_0_stlb_wq_size 32
core_0_stlb_pq_size 0
core_0_stlb_mshr_size 16
core_0_stlb_hit_latency 4
core_0_stlb_fill_latency 4
core_0_stlb_max_tag_check 1
core_0_stlb_max_fill 1
core_0_l1i_set 64
core_0_l1i_way 8
core_0_l1i_rq_size 64
core_0_l1i_wq_size 64
core_0_l1i_pq_size 32
core_0_l1i_mshr_size 8
core_0_l1i_hit_latency 2
core_0_l1i_fill_latency 2
core_0_l1i_max_tag_check 2
core_0_l1i_max_fill 2
core_0_l1d_set 64
core_0_l1d_way 12
core_0_l1d_rq_size 64
core_0_l1d_wq_size 64
core_0_l1d_pq_size 8
core_0_l1d_mshr_size 16
core_0_l1d_hit_latency 2
core_0_l1d_fill_latency 3
core_0_l1d_max_tag_check 2
core_0_l1d_max_fill 2
core_0_l2c_set 1024
core_0_l2c_way 8
core_0_l2c_rq_size 32
core_0_l2c_wq_size 32
core_0_l2c_pq_size 16
core_0_l2c_mshr_size 32
core_0_l2c_hit_latency 5
core_0_l2c_fill_latency 5
core_0_l2c_max_tag_check 1
core_0_l2c_max_fill 1
llc_set 2048
llc_way 16
llc_rq_size 32
llc_wq_size 32
llc_pq_size 32
llc_mshr_size 64
llc_hit_latency 10
llc_fill_latency 10
llc_max_tag_check 1
llc_max_fill 1
dram_channels 1
dram_ranks 1
dram_bankgroups 8
dram_banks 4
dram_rows 65536
dram_columns 1024
dram_channel_width 8
dram_rq_size 64
dram_wq_size 64
dram_size 17179869184
core_0_itlb_prefetcher no
core_0_dtlb_prefetcher no
core_0_stlb_prefetcher no
core_0_l1i_prefetcher no
core_0_l1d_prefetcher no
core_0_l2c_prefetcher no
llc_prefetcher no
llc_replacement drrip

Core_0_instructions 50000003
Core_0_cycles 32030197
Core_0_IPC 1.56103
Core_0_branch_prediction_accuracy 99.4224
Core_0_branch_MPKI 1.32816
Core_0_average_ROB_occupancy_at_mispredict 147.871

Core_0_ITLB_total_access 2361942
Core_0_ITLB_total_hit 2361940
Core_0_ITLB_total_miss 2
Core_0_ITLB_total_MPKI 4e-05
Core_0_ITLB_total_miss_rate 8.46761e-07
Core_0_ITLB_demand_access 2361942
Core_0_ITLB_demand_hit 2361940
Core_0_ITLB_demand_miss 2
Core_0_ITLB_demand_MPKI 4e-05
Core_0_ITLB_demand_miss_rate 8.46761e-07
Core_0_ITLB_load_access 2361942
Core_0_ITLB_load_hit 2361940
Core_0_ITLB_load_miss 2
Core_0_ITLB_load_MPKI 4e-05
Core_0_ITLB_load_miss_rate 8.46761e-07
Core_0_ITLB_rfo_access 0
Core_0_ITLB_rfo_hit 0
Core_0_ITLB_rfo_miss 0
Core_0_ITLB_rfo_MPKI 0
Core_0_ITLB_rfo_miss_rate 0
Core_0_ITLB_prefetch_access 0
Core_0_ITLB_prefetch_hit 0
Core_0_ITLB_prefetch_miss 0
Core_0_ITLB_prefetch_MPKI 0
Core_0_ITLB_prefetch_miss_rate 0
Core_0_ITLB_writeback_access 0
Core_0_ITLB_writeback_hit 0
Core_0_ITLB_writeback_miss 0
Core_0_ITLB_writeback_MPKI 0
Core_0_ITLB_writeback_miss_rate 0
Core_0_ITLB_prefetch_requested 0
Core_0_ITLB_prefetch_issued 0
Core_0_ITLB_prefetch_useful 0
Core_0_ITLB_prefetch_useless 0
Core_0_ITLB_prefetch_late 0
Core_0_ITLB_prefetch_accuracy 0
Core_0_ITLB_prefetch_coverage 0

Core_0_DTLB_total_access 12341402
Core_0_DTLB_total_hit 12292397
Core_0_DTLB_total_miss 49005
Core_0_DTLB_total_MPKI 0.9801
Core_0_DTLB_total_miss_rate 0.00397078
Core_0_DTLB_demand_access 12341402
Core_0_DTLB_demand_hit 12292397
Core_0_DTLB_demand_miss 49005
Core_0_DTLB_demand_MPKI 0.9801
Core_0_DTLB_demand_miss_rate 0.00397078
Core_0_DTLB_load_access 12341402
Core_0_DTLB_load_hit 12292397
Core_0_DTLB_load_miss 49005
Core_0_DTLB_load_MPKI 0.9801
Core_0_DTLB_load_miss_rate 0.00397078
Core_0_DTLB_rfo_access 0
Core_0_DTLB_rfo_hit 0
Core_0_DTLB_rfo_miss 0
Core_0_DTLB_rfo_MPKI 0
Core_0_DTLB_rfo_miss_rate 0
Core_0_DTLB_prefetch_access 0
Core_0_DTLB_prefetch_hit 0
Core_0_DTLB_prefetch_miss 0
Core_0_DTLB_prefetch_MPKI 0
Core_0_DTLB_prefetch_miss_rate 0
Core_0_DTLB_writeback_access 0
Core_0_DTLB_writeback_hit 0
Core_0_DTLB_writeback_miss 0
Core_0_DTLB_writeback_MPKI 0
Core_0_DTLB_writeback_miss_rate 0
Core_0_DTLB_prefetch_requested 0
Core_0_DTLB_prefetch_issued 0
Core_0_DTLB_prefetch_useful 0
Core_0_DTLB_prefetch_useless 0
Core_0_DTLB_prefetch_late 0
Core_0_DTLB_prefetch_accuracy 0
Core_0_DTLB_prefetch_coverage 0

Core_0_STLB_total_access 6882
Core_0_STLB_total_hit 1132
Core_0_STLB_total_miss 5750
Core_0_STLB_total_MPKI 0.115
Core_0_STLB_total_miss_rate 0.835513
Core_0_STLB_demand_access 6882
Core_0_STLB_demand_hit 1132
Core_0_STLB_demand_miss 5750
Core_0_STLB_demand_MPKI 0.115
Core_0_STLB_demand_miss_rate 0.835513
Core_0_STLB_load_access 6882
Core_0_STLB_load_hit 1132
Core_0_STLB_load_miss 5750
Core_0_STLB_load_MPKI 0.115
Core_0_STLB_load_miss_rate 0.835513
Core_0_STLB_rfo_access 0
Core_0_STLB_rfo_hit 0
Core_0_STLB_rfo_miss 0
Core_0_STLB_rfo_MPKI 0
Core_0_STLB_rfo_miss_rate 0
Core_0_STLB_prefetch_access 0
Core_0_STLB_prefetch_hit 0
Core_0_STLB_prefetch_miss 0
Core_0_STLB_prefetch_MPKI 0
Core_0_STLB_prefetch_miss_rate 0
Core_0_STLB_writeback_access 0
Core_0_STLB_writeback_hit 0
Core_0_STLB_writeback_miss 0
Core_0_STLB_writeback_MPKI 0
Core_0_STLB_writeback_miss_rate 0
Core_0_STLB_prefetch_requested 0
Core_0_STLB_prefetch_issued 0
Core_0_STLB_prefetch_useful 0
Core_0_STLB_prefetch_useless 0
Core_0_STLB_prefetch_late 0
Core_0_STLB_prefetch_accuracy 0
Core_0_STLB_prefetch_coverage 0

Core_0_L1I_total_access 2786779
Core_0_L1I_total_hit 2786749
Core_0_L1I_total_miss 30
Core_0_L1I_total_MPKI 0.0006
Core_0_L1I_total_miss_rate 1.07651e-05
Core_0_L1I_demand_access 2786779
Core_0_L1I_demand_hit 2786749
Core_0_L1I_demand_miss 30
Core_0_L1I_demand_MPKI 0.0006
Core_0_L1I_demand_miss_rate 1.07651e-05
Core_0_L1I_load_access 2786779
Core_0_L1I_load_hit 2786749
Core_0_L1I_load_miss 30
Core_0_L1I_load_MPKI 0.0006
Core_0_L1I_load_miss_rate 1.07651e-05
Core_0_L1I_rfo_access 0
Core_0_L1I_rfo_hit 0
Core_0_L1I_rfo_miss 0
Core_0_L1I_rfo_MPKI 0
Core_0_L1I_rfo_miss_rate 0
Core_0_L1I_prefetch_access 0
Core_0_L1I_prefetch_hit 0
Core_0_L1I_prefetch_miss 0
Core_0_L1I_prefetch_MPKI 0
Core_0_L1I_prefetch_miss_rate 0
Core_0_L1I_writeback_access 0
Core_0_L1I_writeback_hit 0
Core_0_L1I_writeback_miss 0
Core_0_L1I_writeback_MPKI 0
Core_0_L1I_writeback_miss_rate 0
Core_0_L1I_prefetch_requested 0
Core_0_L1I_prefetch_issued 0
Core_0_L1I_prefetch_useful 0
Core_0_L1I_prefetch_useless 0
Core_0_L1I_prefetch_late 0
Core_0_L1I_prefetch_accuracy 0
Core_0_L1I_prefetch_coverage 0

Core_0_L1D_total_access 13345784
Core_0_L1D_total_hit 11449171
Core_0_L1D_total_miss 1896613
Core_0_L1D_total_MPKI 37.9323
Core_0_L1D_total_miss_rate 0.142113
Core_0_L1D_demand_access 6404406
Core_0_L1D_demand_hit 5953454
Core_0_L1D_demand_miss 450952
Core_0_L1D_demand_MPKI 9.01904
Core_0_L1D_demand_miss_rate 0.0704128
Core_0_L1D_load_access 6404406
Core_0_L1D_load_hit 5953454
Core_0_L1D_load_miss 450952
Core_0_L1D_load_MPKI 9.01904
Core_0_L1D_load_miss_rate 0.0704128
Core_0_L1D_rfo_access 0
Core_0_L1D_rfo_hit 0
Core_0_L1D_rfo_miss 0
Core_0_L1D_rfo_MPKI 0
Core_0_L1D_rfo_miss_rate 0
Core_0_L1D_prefetch_access 0
Core_0_L1D_prefetch_hit 0
Core_0_L1D_prefetch_miss 0
Core_0_L1D_prefetch_MPKI 0
Core_0_L1D_prefetch_miss_rate 0
Core_0_L1D_writeback_access 6941378
Core_0_L1D_writeback_hit 5495717
Core_0_L1D_writeback_miss 1445661
Core_0_L1D_writeback_MPKI 28.9132
Core_0_L1D_writeback_miss_rate 0.208267
Core_0_L1D_prefetch_requested 0
Core_0_L1D_prefetch_issued 0
Core_0_L1D_prefetch_useful 0
Core_0_L1D_prefetch_useless 0
Core_0_L1D_prefetch_late 0
Core_0_L1D_prefetch_accuracy 0
Core_0_L1D_prefetch_coverage 0

Core_0_L2C_total_access 788850
Core_0_L2C_total_hit 383472
Core_0_L2C_total_miss 405378
Core_0_L2C_total_MPKI 8.10756
Core_0_L2C_total_miss_rate 0.513885
Core_0_L2C_demand_access 517441
Core_0_L2C_demand_hit 112068
Core_0_L2C_demand_miss 405373
Core_0_L2C_demand_MPKI 8.10746
Core_0_L2C_demand_miss_rate 0.783419
Core_0_L2C_load_access 305309
Core_0_L2C_load_hit 79829
Core_0_L2C_load_miss 225480
Core_0_L2C_load_MPKI 4.5096
Core_0_L2C_load_miss_rate 0.73853
Core_0_L2C_rfo_access 212132
Core_0_L2C_rfo_hit 32239
Core_0_L2C_rfo_miss 179893
Core_0_L2C_rfo_MPKI 3.59786
Core_0_L2C_rfo_miss_rate 0.848024
Core_0_L2C_prefetch_access 0
Core_0_L2C_prefetch_hit 0
Core_0_L2C_prefetch_miss 0
Core_0_L2C_prefetch_MPKI 0
Core_0_L2C_prefetch_miss_rate 0
Core_0_L2C_writeback_access 271409
Core_0_L2C_writeback_hit 271404
Core_0_L2C_writeback_miss 5
Core_0_L2C_writeback_MPKI 0.0001
Core_0_L2C_writeback_miss_rate 1.84224e-05
Core_0_L2C_prefetch_requested 0
Core_0_L2C_prefetch_issued 0
Core_0_L2C_prefetch_useful 0
Core_0_L2C_prefetch_useless 0
Core_0_L2C_prefetch_late 0
Core_0_L2C_prefetch_accuracy 0
Core_0_L2C_prefetch_coverage 0

Core_0_LLC_total_access 619488
Core_0_LLC_total_hit 225607
Core_0_LLC_total_miss 393881
Core_0_LLC_total_MPKI 7.87762
Core_0_LLC_total_miss_rate 0.635817
Core_0_LLC_demand_access 405373
Core_0_LLC_demand_hit 38038
Core_0_LLC_demand_miss 367335
Core_0_LLC_demand_MPKI 7.3467
Core_0_LLC_demand_miss_rate 0.906165
Core_0_LLC_load_access 225480
Core_0_LLC_load_hit 28881
Core_0_LLC_load_miss 196599
Core_0_LLC_load_MPKI 3.93198
Core_0_LLC_load_miss_rate 0.871913
Core_0_LLC_rfo_access 179893
Core_0_LLC_rfo_hit 9157
Core_0_LLC_rfo_miss 170736
Core_0_LLC_rfo_MPKI 3.41472
Core_0_LLC_rfo_miss_rate 0.949098
Core_0_LLC_prefetch_access 0
Core_0_LLC_prefetch_hit 0
Core_0_LLC_prefetch_miss 0
Core_0_LLC_prefetch_MPKI 0
Core_0_LLC_prefetch_miss_rate 0
Core_0_LLC_writeback_access 214115
Core_0_LLC_writeback_hit 187569
Core_0_LLC_writeback_miss 26546
Core_0_LLC_writeback_MPKI 0.53092
Core_0_LLC_writeback_miss_rate 0.12398
Core_0_LLC_prefetch_requested 0
Core_0_LLC_prefetch_issued 0
Core_0_LLC_prefetch_useful 0
Core_0_LLC_prefetch_useless 0
Core_0_LLC_prefetch_late 0
Core_0_LLC_prefetch_accuracy 0
Core_0_LLC_prefetch_coverage 0

[DRAM Statistics]
Channel_0_RQ_row_buffer_hit 13787
Channel_0_RQ_row_buffer_miss 354283
Channel_0_WQ_row_buffer_hit 20707
Channel_0_WQ_row_buffer_miss 165577
Channel_0_WQ_full 0
Channel_0_dbus_congested 1754885
DRAM_total_RQ_row_buffer_hit 13787
DRAM_total_RQ_row_buffer_miss 354283
DRAM_total_WQ_row_buffer_hit 20707
DRAM_total_WQ_row_buffer_miss 165577
DRAM_total_WQ_full 0
DRAM_total_dbus_congested 1754885
DRAM_avg_congested_cycle 6.64868

====== DRAM_RQ_TRAFFIC ========
DRAM_RQ_READ_TRAFFIC_BREAKDOWN:
data_demand_read.count = 367311
data_demand_read.share = 99.79%

inst_demand_read.count = 24
inst_demand_read.share = 0.01%

cache_inst_prefetch.count = 0
cache_inst_prefetch.share = 0.00%

cache_data_prefetch.count = 0
cache_data_prefetch.share = 0.00%

stlb_data_demand.count = 732
stlb_data_demand.share = 0.20%

stlb_inst_demand.count = 3
stlb_inst_demand.share = 0.00%

stlb_l1i_pref.count = 0
stlb_l1i_pref.share = 0.00%

stlb_l1d_pref.count = 0
stlb_l1d_pref.share = 0.00%

DRAM_RQ_READ_TRAFFIC_SUMMARY:
cache_demand.count = 367335
cache_demand.share = 99.80%

cache_prefetch.count = 0
cache_prefetch.share = 0.00%

stlb_demand.count = 735
stlb_demand.share = 0.20%

stlb_prefetch.count = 0
stlb_prefetch.share = 0.00%

DRAM_RQ_READ_TRAFFIC_DEBUG:
total_classified_read.count = 368070
unclassified_read.count = 0
total_read_with_other.count = 368070

classified_plus_unclassified_check.count = 368070
dram_rq_read_total_observed.count = 368070
dram_rq_read_total_observed.per_1K_instructions = 7.3614

STLB_MISS_PTW_DRAM_TOUCH_BREAKDOWN:
stlb_miss_total.count = 5750

stlb_miss_touch_dram.count = 732
stlb_miss_touch_dram.share = 12.73%

stlb_miss_no_dram_touch.count = 5018
stlb_miss_no_dram_touch.share = 87.27%

STLB_MISS_PTW_DRAM_TOUCH_DEBUG:
stlb_miss_touch_plus_no_touch.count = 5750
stlb_miss_total_check.count = 5750

======STLB miss causes ========
Core_0_STLB_miss_cause_breakdown
Core_0_STLB_cause_Demand_Data_miss 5748
Core_0_STLB_cause_Demand_Data_miss_rate 0.835222
Core_0_STLB_cause_Demand_Instruction_miss 2
Core_0_STLB_cause_Demand_Instruction_miss_rate 0.000290613
Core_0_STLB_cause_L1D_Prefetch_miss 0
Core_0_STLB_cause_L1D_Prefetch_miss_rate 0
Core_0_STLB_cause_L1I_Prefetch_miss 0
Core_0_STLB_cause_L1I_Prefetch_miss_rate 0
Core_0_STLB_cause_Other_miss 0
Core_0_STLB_cause_Other_miss_rate 0
Core_0_STLB_Demand_miss 5750
Core_0_STLB_Demand_miss_rate 0.835513
Core_0_STLB_L1D_Prefetch_miss 0
Core_0_STLB_L1D_Prefetch_miss_rate 0
Core_0_STLB_Other_miss 0
Core_0_STLB_Other_miss_rate 0
