[VMEM] WARNING: physical memory size is smaller than virtual memory size.

*** ChampSim Multicore Out-of-Order Simulator ***
Warmup Instructions: 20000000
Simulation Instructions: 50000000
Number of CPUs: 1
Page size: 4096
Core 0: /data2/zcq/champsim_traces_xsbench/xs.XL100nuclide-185B.champsimtrace.xz
Off-chip DRAM Size: 16 GiB Channels: 1 Width: 64-bit Data Rate: 3205 MT/s
Warmup halting CPU 0 at instruction 20000000 cycle 15130597 for remainder of phase
Warmup finished CPU 0 instructions: 20000000 cycles: 15130597 cumulative IPC: 1.322 (Simulation time: 00 hr 02 min 20 sec)
Warmup complete CPU 0 instructions: 20000000 cycles: 15130597 cumulative IPC: 1.322 (Simulation time: 00 hr 02 min 20 sec)
Simulation finished CPU 0 instructions: 50000000 cycles: 336845728 cumulative IPC: 0.1484 (Simulation time: 00 hr 21 min 56 sec)
Simulation complete CPU 0 instructions: 50000000 cycles: 336845728 cumulative IPC: 0.1484 (Simulation time: 00 hr 21 min 56 sec)

ChampSim completed all CPUs

=== Simulation ===
CPU 0 runs /data2/zcq/champsim_traces_xsbench/xs.XL100nuclide-185B.champsimtrace.xz

Region of Interest Statistics

CPU 0 cumulative IPC: 0.1484 instructions: 50000000 cycles: 336845728
CPU 0 Branch Prediction Accuracy: 87.1% MPKI: 21.54 Average ROB Occupancy at Mispredict: 26
Branch type MPKI
BRANCH_DIRECT_JUMP: 4e-05
BRANCH_INDIRECT: 0
BRANCH_CONDITIONAL: 21.54
BRANCH_DIRECT_CALL: 0
BRANCH_INDIRECT_CALL: 0
BRANCH_RETURN: 0

cpu0->cpu0_STLB TOTAL        ACCESS:    1897571 HIT:      71470 MISS:    1826101 MSHR_MERGE:          0
cpu0->cpu0_STLB LOAD         ACCESS:    1897571 HIT:      71470 MISS:    1826101 MSHR_MERGE:          0
cpu0->cpu0_STLB RFO          ACCESS:          0 HIT:          0 MISS:          0 MSHR_MERGE:          0
cpu0->cpu0_STLB PREFETCH     ACCESS:          0 HIT:          0 MISS:          0 MSHR_MERGE:          0
cpu0->cpu0_STLB WRITE        ACCESS:          0 HIT:          0 MISS:          0 MSHR_MERGE:          0
cpu0->cpu0_STLB TRANSLATION  ACCESS:          0 HIT:          0 MISS:          0 MSHR_MERGE:          0
cpu0->cpu0_STLB PREFETCH REQUESTED:          0 ISSUED:          0 USEFUL:          0 USELESS:          0 LATE:          0
cpu0->cpu0_STLB AVERAGE MISS LATENCY: 169.1 cycles
cpu0->cpu0_L2C TOTAL        ACCESS:    4412721 HIT:     262588 MISS:    4150133 MSHR_MERGE:          0
cpu0->cpu0_L2C LOAD         ACCESS:    2951715 HIT:     129333 MISS:    2822382 MSHR_MERGE:          0
cpu0->cpu0_L2C RFO          ACCESS:      11699 HIT:      11251 MISS:        448 MSHR_MERGE:          0
cpu0->cpu0_L2C PREFETCH     ACCESS:          0 HIT:          0 MISS:          0 MSHR_MERGE:          0
cpu0->cpu0_L2C WRITE        ACCESS:      13351 HIT:      13347 MISS:          4 MSHR_MERGE:          0
cpu0->cpu0_L2C TRANSLATION  ACCESS:    1435956 HIT:     108657 MISS:    1327299 MSHR_MERGE:          0
cpu0->cpu0_L2C PREFETCH REQUESTED:          0 ISSUED:          0 USEFUL:          0 USELESS:          0 LATE:          0
cpu0->cpu0_L2C AVERAGE MISS LATENCY: 148.8 cycles
cpu0->cpu0_L1I TOTAL        ACCESS:      11007 HIT:      11006 MISS:          1 MSHR_MERGE:          0
cpu0->cpu0_L1I LOAD         ACCESS:      11007 HIT:      11006 MISS:          1 MSHR_MERGE:          0
cpu0->cpu0_L1I RFO          ACCESS:          0 HIT:          0 MISS:          0 MSHR_MERGE:          0
cpu0->cpu0_L1I PREFETCH     ACCESS:          0 HIT:          0 MISS:          0 MSHR_MERGE:          0
cpu0->cpu0_L1I WRITE        ACCESS:          0 HIT:          0 MISS:          0 MSHR_MERGE:          0
cpu0->cpu0_L1I TRANSLATION  ACCESS:          0 HIT:          0 MISS:          0 MSHR_MERGE:          0
cpu0->cpu0_L1I PREFETCH REQUESTED:          0 ISSUED:          0 USEFUL:          0 USELESS:          0 LATE:          0
cpu0->cpu0_L1I AVERAGE MISS LATENCY: 226 cycles
cpu0->cpu0_L1D TOTAL        ACCESS:    9656674 HIT:    4525499 MISS:    5131175 MSHR_MERGE:     731800
cpu0->cpu0_L1D LOAD         ACCESS:    4816806 HIT:    1809754 MISS:    3007052 MSHR_MERGE:      55338
cpu0->cpu0_L1D RFO          ACCESS:          0 HIT:          0 MISS:          0 MSHR_MERGE:          0
cpu0->cpu0_L1D PREFETCH     ACCESS:          0 HIT:          0 MISS:          0 MSHR_MERGE:          0
cpu0->cpu0_L1D WRITE        ACCESS:     950650 HIT:     915401 MISS:      35249 MSHR_MERGE:      23544
cpu0->cpu0_L1D TRANSLATION  ACCESS:    3889218 HIT:    1800344 MISS:    2088874 MSHR_MERGE:     652918
cpu0->cpu0_L1D PREFETCH REQUESTED:          0 ISSUED:          0 USEFUL:          0 USELESS:          0 LATE:          0
cpu0->cpu0_L1D AVERAGE MISS LATENCY: 149.4 cycles
cpu0->cpu0_ITLB TOTAL        ACCESS:       8922 HIT:       8922 MISS:          0 MSHR_MERGE:          0
cpu0->cpu0_ITLB LOAD         ACCESS:       8922 HIT:       8922 MISS:          0 MSHR_MERGE:          0
cpu0->cpu0_ITLB RFO          ACCESS:          0 HIT:          0 MISS:          0 MSHR_MERGE:          0
cpu0->cpu0_ITLB PREFETCH     ACCESS:          0 HIT:          0 MISS:          0 MSHR_MERGE:          0
cpu0->cpu0_ITLB WRITE        ACCESS:          0 HIT:          0 MISS:          0 MSHR_MERGE:          0
cpu0->cpu0_ITLB TRANSLATION  ACCESS:          0 HIT:          0 MISS:          0 MSHR_MERGE:          0
cpu0->cpu0_ITLB PREFETCH REQUESTED:          0 ISSUED:          0 USEFUL:          0 USELESS:          0 LATE:          0
cpu0->cpu0_ITLB AVERAGE MISS LATENCY: - cycles
cpu0->cpu0_DTLB TOTAL        ACCESS:    5708966 HIT:    3704194 MISS:    2004772 MSHR_MERGE:     107201
cpu0->cpu0_DTLB LOAD         ACCESS:    5708966 HIT:    3704194 MISS:    2004772 MSHR_MERGE:     107201
cpu0->cpu0_DTLB RFO          ACCESS:          0 HIT:          0 MISS:          0 MSHR_MERGE:          0
cpu0->cpu0_DTLB PREFETCH     ACCESS:          0 HIT:          0 MISS:          0 MSHR_MERGE:          0
cpu0->cpu0_DTLB WRITE        ACCESS:          0 HIT:          0 MISS:          0 MSHR_MERGE:          0
cpu0->cpu0_DTLB TRANSLATION  ACCESS:          0 HIT:          0 MISS:          0 MSHR_MERGE:          0
cpu0->cpu0_DTLB PREFETCH REQUESTED:          0 ISSUED:          0 USEFUL:          0 USELESS:          0 LATE:          0
cpu0->cpu0_DTLB AVERAGE MISS LATENCY: 168.7 cycles
cpu0->LLC TOTAL        ACCESS:    4151206 HIT:    1386741 MISS:    2764465 MSHR_MERGE:          0
cpu0->LLC LOAD         ACCESS:    2822382 HIT:     668449 MISS:    2153933 MSHR_MERGE:          0
cpu0->LLC RFO          ACCESS:        448 HIT:        445 MISS:          3 MSHR_MERGE:          0
cpu0->LLC PREFETCH     ACCESS:          0 HIT:          0 MISS:          0 MSHR_MERGE:          0
cpu0->LLC WRITE        ACCESS:       1077 HIT:       1071 MISS:          6 MSHR_MERGE:          0
cpu0->LLC TRANSLATION  ACCESS:    1327299 HIT:     716776 MISS:     610523 MSHR_MERGE:          0
cpu0->LLC PREFETCH REQUESTED:          0 ISSUED:          0 USEFUL:          0 USELESS:          0 LATE:          0
cpu0->LLC AVERAGE MISS LATENCY: 199.8 cycles

DRAM Statistics

Channel 0 RQ ROW_BUFFER_HIT:      26544
  ROW_BUFFER_MISS:    2737915
  AVG DBUS CONGESTED CYCLE: 2.945
Channel 0 WQ ROW_BUFFER_HIT:          0
  ROW_BUFFER_MISS:          7
  FULL:          0
Channel 0 REFRESHES ISSUED:      28071

[ROI Statistics]
[System Configuration]
num_cpus 1
cpu_freq 4000
fetch_width 6
decode_width 6
dispatch_width 6
execute_width 6
lq_width 2
sq_width 2
retire_width 6
scheduler_size 128
branch_mispredict_penalty 15
rob_size 352
lq_size 128
sq_size 72
ifetch_buffer_size 64
decode_buffer_size 32
dispatch_buffer_size 32
register_file_size 288
decode_latency 1
dispatch_latency 1
schedule_latency 1
execute_latency 1
page_size 4096
block_size 64
core_0_itlb_set 16
core_0_itlb_way 4
core_0_itlb_rq_size 16
core_0_itlb_wq_size 16
core_0_itlb_pq_size 0
core_0_itlb_mshr_size 8
core_0_itlb_hit_latency 1
core_0_itlb_fill_latency 1
core_0_itlb_max_tag_check 2
core_0_itlb_max_fill 2
core_0_dtlb_set 16
core_0_dtlb_way 4
core_0_dtlb_rq_size 16
core_0_dtlb_wq_size 16
core_0_dtlb_pq_size 0
core_0_dtlb_mshr_size 8
core_0_dtlb_hit_latency 1
core_0_dtlb_fill_latency 1
core_0_dtlb_max_tag_check 2
core_0_dtlb_max_fill 2
core_0_stlb_set 128
core_0_stlb_way 12
core_0_stlb_rq_size 32
core_0_stlb_wq_size 32
core_0_stlb_pq_size 0
core_0_stlb_mshr_size 16
core_0_stlb_hit_latency 4
core_0_stlb_fill_latency 4
core_0_stlb_max_tag_check 1
core_0_stlb_max_fill 1
core_0_l1i_set 64
core_0_l1i_way 8
core_0_l1i_rq_size 64
core_0_l1i_wq_size 64
core_0_l1i_pq_size 32
core_0_l1i_mshr_size 8
core_0_l1i_hit_latency 2
core_0_l1i_fill_latency 2
core_0_l1i_max_tag_check 2
core_0_l1i_max_fill 2
core_0_l1d_set 64
core_0_l1d_way 12
core_0_l1d_rq_size 64
core_0_l1d_wq_size 64
core_0_l1d_pq_size 8
core_0_l1d_mshr_size 16
core_0_l1d_hit_latency 2
core_0_l1d_fill_latency 3
core_0_l1d_max_tag_check 2
core_0_l1d_max_fill 2
core_0_l2c_set 1024
core_0_l2c_way 8
core_0_l2c_rq_size 32
core_0_l2c_wq_size 32
core_0_l2c_pq_size 16
core_0_l2c_mshr_size 32
core_0_l2c_hit_latency 5
core_0_l2c_fill_latency 5
core_0_l2c_max_tag_check 1
core_0_l2c_max_fill 1
llc_set 2048
llc_way 16
llc_rq_size 32
llc_wq_size 32
llc_pq_size 32
llc_mshr_size 64
llc_hit_latency 10
llc_fill_latency 10
llc_max_tag_check 1
llc_max_fill 1
dram_channels 1
dram_ranks 1
dram_bankgroups 8
dram_banks 4
dram_rows 65536
dram_columns 1024
dram_channel_width 8
dram_rq_size 64
dram_wq_size 64
dram_size 17179869184
core_0_itlb_prefetcher no
core_0_dtlb_prefetcher no
core_0_stlb_prefetcher no
core_0_l1i_prefetcher no
core_0_l1d_prefetcher no
core_0_l2c_prefetcher no
llc_prefetcher no
llc_replacement drrip

Core_0_instructions 50000000
Core_0_cycles 336845728
Core_0_IPC 0.148436
Core_0_branch_prediction_accuracy 87.1005
Core_0_branch_MPKI 21.5431
Core_0_average_ROB_occupancy_at_mispredict 26.0032

Core_0_ITLB_total_access 8922
Core_0_ITLB_total_hit 8922
Core_0_ITLB_total_miss 0
Core_0_ITLB_total_MPKI 0
Core_0_ITLB_total_miss_rate 0
Core_0_ITLB_demand_access 8922
Core_0_ITLB_demand_hit 8922
Core_0_ITLB_demand_miss 0
Core_0_ITLB_demand_MPKI 0
Core_0_ITLB_demand_miss_rate 0
Core_0_ITLB_load_access 8922
Core_0_ITLB_load_hit 8922
Core_0_ITLB_load_miss 0
Core_0_ITLB_load_MPKI 0
Core_0_ITLB_load_miss_rate 0
Core_0_ITLB_rfo_access 0
Core_0_ITLB_rfo_hit 0
Core_0_ITLB_rfo_miss 0
Core_0_ITLB_rfo_MPKI 0
Core_0_ITLB_rfo_miss_rate 0
Core_0_ITLB_prefetch_access 0
Core_0_ITLB_prefetch_hit 0
Core_0_ITLB_prefetch_miss 0
Core_0_ITLB_prefetch_MPKI 0
Core_0_ITLB_prefetch_miss_rate 0
Core_0_ITLB_writeback_access 0
Core_0_ITLB_writeback_hit 0
Core_0_ITLB_writeback_miss 0
Core_0_ITLB_writeback_MPKI 0
Core_0_ITLB_writeback_miss_rate 0
Core_0_ITLB_prefetch_requested 0
Core_0_ITLB_prefetch_issued 0
Core_0_ITLB_prefetch_useful 0
Core_0_ITLB_prefetch_useless 0
Core_0_ITLB_prefetch_late 0
Core_0_ITLB_prefetch_accuracy 0
Core_0_ITLB_prefetch_coverage 0

Core_0_DTLB_total_access 5708966
Core_0_DTLB_total_hit 3704194
Core_0_DTLB_total_miss 2004772
Core_0_DTLB_total_MPKI 40.0954
Core_0_DTLB_total_miss_rate 0.351162
Core_0_DTLB_demand_access 5708966
Core_0_DTLB_demand_hit 3704194
Core_0_DTLB_demand_miss 2004772
Core_0_DTLB_demand_MPKI 40.0954
Core_0_DTLB_demand_miss_rate 0.351162
Core_0_DTLB_load_access 5708966
Core_0_DTLB_load_hit 3704194
Core_0_DTLB_load_miss 2004772
Core_0_DTLB_load_MPKI 40.0954
Core_0_DTLB_load_miss_rate 0.351162
Core_0_DTLB_rfo_access 0
Core_0_DTLB_rfo_hit 0
Core_0_DTLB_rfo_miss 0
Core_0_DTLB_rfo_MPKI 0
Core_0_DTLB_rfo_miss_rate 0
Core_0_DTLB_prefetch_access 0
Core_0_DTLB_prefetch_hit 0
Core_0_DTLB_prefetch_miss 0
Core_0_DTLB_prefetch_MPKI 0
Core_0_DTLB_prefetch_miss_rate 0
Core_0_DTLB_writeback_access 0
Core_0_DTLB_writeback_hit 0
Core_0_DTLB_writeback_miss 0
Core_0_DTLB_writeback_MPKI 0
Core_0_DTLB_writeback_miss_rate 0
Core_0_DTLB_prefetch_requested 0
Core_0_DTLB_prefetch_issued 0
Core_0_DTLB_prefetch_useful 0
Core_0_DTLB_prefetch_useless 0
Core_0_DTLB_prefetch_late 0
Core_0_DTLB_prefetch_accuracy 0
Core_0_DTLB_prefetch_coverage 0

Core_0_STLB_total_access 1897571
Core_0_STLB_total_hit 71470
Core_0_STLB_total_miss 1826101
Core_0_STLB_total_MPKI 36.522
Core_0_STLB_total_miss_rate 0.962336
Core_0_STLB_demand_access 1897571
Core_0_STLB_demand_hit 71470
Core_0_STLB_demand_miss 1826101
Core_0_STLB_demand_MPKI 36.522
Core_0_STLB_demand_miss_rate 0.962336
Core_0_STLB_load_access 1897571
Core_0_STLB_load_hit 71470
Core_0_STLB_load_miss 1826101
Core_0_STLB_load_MPKI 36.522
Core_0_STLB_load_miss_rate 0.962336
Core_0_STLB_rfo_access 0
Core_0_STLB_rfo_hit 0
Core_0_STLB_rfo_miss 0
Core_0_STLB_rfo_MPKI 0
Core_0_STLB_rfo_miss_rate 0
Core_0_STLB_prefetch_access 0
Core_0_STLB_prefetch_hit 0
Core_0_STLB_prefetch_miss 0
Core_0_STLB_prefetch_MPKI 0
Core_0_STLB_prefetch_miss_rate 0
Core_0_STLB_writeback_access 0
Core_0_STLB_writeback_hit 0
Core_0_STLB_writeback_miss 0
Core_0_STLB_writeback_MPKI 0
Core_0_STLB_writeback_miss_rate 0
Core_0_STLB_prefetch_requested 0
Core_0_STLB_prefetch_issued 0
Core_0_STLB_prefetch_useful 0
Core_0_STLB_prefetch_useless 0
Core_0_STLB_prefetch_late 0
Core_0_STLB_prefetch_accuracy 0
Core_0_STLB_prefetch_coverage 0

Core_0_L1I_total_access 11007
Core_0_L1I_total_hit 11006
Core_0_L1I_total_miss 1
Core_0_L1I_total_MPKI 2e-05
Core_0_L1I_total_miss_rate 9.08513e-05
Core_0_L1I_demand_access 11007
Core_0_L1I_demand_hit 11006
Core_0_L1I_demand_miss 1
Core_0_L1I_demand_MPKI 2e-05
Core_0_L1I_demand_miss_rate 9.08513e-05
Core_0_L1I_load_access 11007
Core_0_L1I_load_hit 11006
Core_0_L1I_load_miss 1
Core_0_L1I_load_MPKI 2e-05
Core_0_L1I_load_miss_rate 9.08513e-05
Core_0_L1I_rfo_access 0
Core_0_L1I_rfo_hit 0
Core_0_L1I_rfo_miss 0
Core_0_L1I_rfo_MPKI 0
Core_0_L1I_rfo_miss_rate 0
Core_0_L1I_prefetch_access 0
Core_0_L1I_prefetch_hit 0
Core_0_L1I_prefetch_miss 0
Core_0_L1I_prefetch_MPKI 0
Core_0_L1I_prefetch_miss_rate 0
Core_0_L1I_writeback_access 0
Core_0_L1I_writeback_hit 0
Core_0_L1I_writeback_miss 0
Core_0_L1I_writeback_MPKI 0
Core_0_L1I_writeback_miss_rate 0
Core_0_L1I_prefetch_requested 0
Core_0_L1I_prefetch_issued 0
Core_0_L1I_prefetch_useful 0
Core_0_L1I_prefetch_useless 0
Core_0_L1I_prefetch_late 0
Core_0_L1I_prefetch_accuracy 0
Core_0_L1I_prefetch_coverage 0

Core_0_L1D_total_access 5767456
Core_0_L1D_total_hit 2725155
Core_0_L1D_total_miss 3042301
Core_0_L1D_total_MPKI 60.846
Core_0_L1D_total_miss_rate 0.527494
Core_0_L1D_demand_access 4816806
Core_0_L1D_demand_hit 1809754
Core_0_L1D_demand_miss 3007052
Core_0_L1D_demand_MPKI 60.141
Core_0_L1D_demand_miss_rate 0.624283
Core_0_L1D_load_access 4816806
Core_0_L1D_load_hit 1809754
Core_0_L1D_load_miss 3007052
Core_0_L1D_load_MPKI 60.141
Core_0_L1D_load_miss_rate 0.624283
Core_0_L1D_rfo_access 0
Core_0_L1D_rfo_hit 0
Core_0_L1D_rfo_miss 0
Core_0_L1D_rfo_MPKI 0
Core_0_L1D_rfo_miss_rate 0
Core_0_L1D_prefetch_access 0
Core_0_L1D_prefetch_hit 0
Core_0_L1D_prefetch_miss 0
Core_0_L1D_prefetch_MPKI 0
Core_0_L1D_prefetch_miss_rate 0
Core_0_L1D_writeback_access 950650
Core_0_L1D_writeback_hit 915401
Core_0_L1D_writeback_miss 35249
Core_0_L1D_writeback_MPKI 0.70498
Core_0_L1D_writeback_miss_rate 0.0370788
Core_0_L1D_prefetch_requested 0
Core_0_L1D_prefetch_issued 0
Core_0_L1D_prefetch_useful 0
Core_0_L1D_prefetch_useless 0
Core_0_L1D_prefetch_late 0
Core_0_L1D_prefetch_accuracy 0
Core_0_L1D_prefetch_coverage 0

Core_0_L2C_total_access 2976765
Core_0_L2C_total_hit 153931
Core_0_L2C_total_miss 2822834
Core_0_L2C_total_MPKI 56.4567
Core_0_L2C_total_miss_rate 0.948289
Core_0_L2C_demand_access 2963414
Core_0_L2C_demand_hit 140584
Core_0_L2C_demand_miss 2822830
Core_0_L2C_demand_MPKI 56.4566
Core_0_L2C_demand_miss_rate 0.95256
Core_0_L2C_load_access 2951715
Core_0_L2C_load_hit 129333
Core_0_L2C_load_miss 2822382
Core_0_L2C_load_MPKI 56.4476
Core_0_L2C_load_miss_rate 0.956184
Core_0_L2C_rfo_access 11699
Core_0_L2C_rfo_hit 11251
Core_0_L2C_rfo_miss 448
Core_0_L2C_rfo_MPKI 0.00896
Core_0_L2C_rfo_miss_rate 0.0382939
Core_0_L2C_prefetch_access 0
Core_0_L2C_prefetch_hit 0
Core_0_L2C_prefetch_miss 0
Core_0_L2C_prefetch_MPKI 0
Core_0_L2C_prefetch_miss_rate 0
Core_0_L2C_writeback_access 13351
Core_0_L2C_writeback_hit 13347
Core_0_L2C_writeback_miss 4
Core_0_L2C_writeback_MPKI 8e-05
Core_0_L2C_writeback_miss_rate 0.000299603
Core_0_L2C_prefetch_requested 0
Core_0_L2C_prefetch_issued 0
Core_0_L2C_prefetch_useful 0
Core_0_L2C_prefetch_useless 0
Core_0_L2C_prefetch_late 0
Core_0_L2C_prefetch_accuracy 0
Core_0_L2C_prefetch_coverage 0

Core_0_LLC_total_access 2823907
Core_0_LLC_total_hit 669965
Core_0_LLC_total_miss 2153942
Core_0_LLC_total_MPKI 43.0788
Core_0_LLC_total_miss_rate 0.762752
Core_0_LLC_demand_access 2822830
Core_0_LLC_demand_hit 668894
Core_0_LLC_demand_miss 2153936
Core_0_LLC_demand_MPKI 43.0787
Core_0_LLC_demand_miss_rate 0.763041
Core_0_LLC_load_access 2822382
Core_0_LLC_load_hit 668449
Core_0_LLC_load_miss 2153933
Core_0_LLC_load_MPKI 43.0787
Core_0_LLC_load_miss_rate 0.763161
Core_0_LLC_rfo_access 448
Core_0_LLC_rfo_hit 445
Core_0_LLC_rfo_miss 3
Core_0_LLC_rfo_MPKI 6e-05
Core_0_LLC_rfo_miss_rate 0.00669643
Core_0_LLC_prefetch_access 0
Core_0_LLC_prefetch_hit 0
Core_0_LLC_prefetch_miss 0
Core_0_LLC_prefetch_MPKI 0
Core_0_LLC_prefetch_miss_rate 0
Core_0_LLC_writeback_access 1077
Core_0_LLC_writeback_hit 1071
Core_0_LLC_writeback_miss 6
Core_0_LLC_writeback_MPKI 0.00012
Core_0_LLC_writeback_miss_rate 0.00557103
Core_0_LLC_prefetch_requested 0
Core_0_LLC_prefetch_issued 0
Core_0_LLC_prefetch_useful 0
Core_0_LLC_prefetch_useless 0
Core_0_LLC_prefetch_late 0
Core_0_LLC_prefetch_accuracy 0
Core_0_LLC_prefetch_coverage 0

[DRAM Statistics]
Channel_0_RQ_row_buffer_hit 26544
Channel_0_RQ_row_buffer_miss 2737915
Channel_0_WQ_row_buffer_hit 0
Channel_0_WQ_row_buffer_miss 7
Channel_0_WQ_full 0
Channel_0_dbus_congested 2859352
DRAM_total_RQ_row_buffer_hit 26544
DRAM_total_RQ_row_buffer_miss 2737915
DRAM_total_WQ_row_buffer_hit 0
DRAM_total_WQ_row_buffer_miss 7
DRAM_total_WQ_full 0
DRAM_total_dbus_congested 2859352
DRAM_avg_congested_cycle 2.94529

====== DRAM_RQ_TRAFFIC ========
DRAM_RQ_READ_TRAFFIC_BREAKDOWN:
data_demand_read.count = 2153935
data_demand_read.share = 77.92%

inst_demand_read.count = 1
inst_demand_read.share = 0.00%

cache_inst_prefetch.count = 0
cache_inst_prefetch.share = 0.00%

cache_data_prefetch.count = 0
cache_data_prefetch.share = 0.00%

stlb_data_demand.count = 610523
stlb_data_demand.share = 22.08%

stlb_inst_demand.count = 0
stlb_inst_demand.share = 0.00%

stlb_l1i_pref.count = 0
stlb_l1i_pref.share = 0.00%

stlb_l1d_pref.count = 0
stlb_l1d_pref.share = 0.00%

DRAM_RQ_READ_TRAFFIC_SUMMARY:
cache_demand.count = 2153936
cache_demand.share = 77.92%

cache_prefetch.count = 0
cache_prefetch.share = 0.00%

stlb_demand.count = 610523
stlb_demand.share = 22.08%

stlb_prefetch.count = 0
stlb_prefetch.share = 0.00%

DRAM_RQ_READ_TRAFFIC_DEBUG:
total_classified_read.count = 2764459
unclassified_read.count = 0
total_read_with_other.count = 2764459

classified_plus_unclassified_check.count = 2764459
dram_rq_read_total_observed.count = 2764459
dram_rq_read_total_observed.per_1K_instructions = 55.2892

STLB_MISS_PTW_DRAM_TOUCH_BREAKDOWN:
stlb_miss_total.count = 1826101

stlb_miss_touch_dram.count = 613743
stlb_miss_touch_dram.share = 33.61%

stlb_miss_no_dram_touch.count = 1212358
stlb_miss_no_dram_touch.share = 66.39%

STLB_MISS_PTW_DRAM_TOUCH_DEBUG:
stlb_miss_touch_plus_no_touch.count = 1826101
stlb_miss_total_check.count = 1826101

======STLB miss causes ========
Core_0_STLB_miss_cause_breakdown
Core_0_STLB_cause_Demand_Data_miss 1826101
Core_0_STLB_cause_Demand_Data_miss_rate 0.962336
Core_0_STLB_cause_Demand_Instruction_miss 0
Core_0_STLB_cause_Demand_Instruction_miss_rate 0
Core_0_STLB_cause_L1D_Prefetch_miss 0
Core_0_STLB_cause_L1D_Prefetch_miss_rate 0
Core_0_STLB_cause_L1I_Prefetch_miss 0
Core_0_STLB_cause_L1I_Prefetch_miss_rate 0
Core_0_STLB_cause_Other_miss 0
Core_0_STLB_cause_Other_miss_rate 0
Core_0_STLB_Demand_miss 1826101
Core_0_STLB_Demand_miss_rate 0.962336
Core_0_STLB_L1D_Prefetch_miss 0
Core_0_STLB_L1D_Prefetch_miss_rate 0
Core_0_STLB_Other_miss 0
Core_0_STLB_Other_miss_rate 0
