[VMEM] WARNING: physical memory size is smaller than virtual memory size.

*** ChampSim Multicore Out-of-Order Simulator ***
Warmup Instructions: 20000000
Simulation Instructions: 50000000
Number of CPUs: 1
Page size: 4096
Core 0: /data0/tzh/champsim_traces/SPEC06/429.mcf-22B.champsimtrace.xz
VBerti Prefetcher
BERTI HASH ENTANGLING
BERTI IP MASK ffff
Off-chip DRAM Size: 16 GiB Channels: 1 Width: 64-bit Data Rate: 3205 MT/s
Warmup halting CPU 0 at instruction 20000001 cycle 8680551 for remainder of phase
Warmup finished CPU 0 instructions: 20000001 cycles: 8680551 cumulative IPC: 2.304 (Simulation time: 00 hr 01 min 38 sec)
Warmup complete CPU 0 instructions: 20000001 cycles: 8680551 cumulative IPC: 2.304 (Simulation time: 00 hr 01 min 38 sec)
Simulation finished CPU 0 instructions: 50000001 cycles: 60369049 cumulative IPC: 0.8282 (Simulation time: 00 hr 10 min 03 sec)
Simulation complete CPU 0 instructions: 50000001 cycles: 60369049 cumulative IPC: 0.8282 (Simulation time: 00 hr 10 min 03 sec)

ChampSim completed all CPUs

=== Simulation ===
CPU 0 runs /data0/tzh/champsim_traces/SPEC06/429.mcf-22B.champsimtrace.xz

Region of Interest Statistics

CPU 0 cumulative IPC: 0.8282 instructions: 50000001 cycles: 60369049
CPU 0 Branch Prediction Accuracy: 98.75% MPKI: 1.081 Average ROB Occupancy at Mispredict: 134.7
Branch type MPKI
BRANCH_DIRECT_JUMP: 0
BRANCH_INDIRECT: 0
BRANCH_CONDITIONAL: 1.081
BRANCH_DIRECT_CALL: 0
BRANCH_INDIRECT_CALL: 0
BRANCH_RETURN: 0

cpu0->cpu0_STLB TOTAL        ACCESS:     248708 HIT:      86225 MISS:     162483 MSHR_MERGE:          0
cpu0->cpu0_STLB LOAD         ACCESS:     248708 HIT:      86225 MISS:     162483 MSHR_MERGE:          0
cpu0->cpu0_STLB RFO          ACCESS:          0 HIT:          0 MISS:          0 MSHR_MERGE:          0
cpu0->cpu0_STLB PREFETCH     ACCESS:          0 HIT:          0 MISS:          0 MSHR_MERGE:          0
cpu0->cpu0_STLB WRITE        ACCESS:          0 HIT:          0 MISS:          0 MSHR_MERGE:          0
cpu0->cpu0_STLB TRANSLATION  ACCESS:          0 HIT:          0 MISS:          0 MSHR_MERGE:          0
cpu0->cpu0_STLB PREFETCH REQUESTED:          0 ISSUED:          0 USEFUL:          0 USELESS:          0 LATE:          0
cpu0->cpu0_STLB AVERAGE MISS LATENCY: 297 cycles
cpu0->cpu0_L2C TOTAL        ACCESS:    2702934 HIT:    1228658 MISS:    1474276 MSHR_MERGE:     143209
cpu0->cpu0_L2C LOAD         ACCESS:     911459 HIT:      81039 MISS:     830420 MSHR_MERGE:       3147
cpu0->cpu0_L2C RFO          ACCESS:       2004 HIT:       1994 MISS:         10 MSHR_MERGE:          0
cpu0->cpu0_L2C PREFETCH     ACCESS:    1016729 HIT:     447192 MISS:     569537 MSHR_MERGE:     140062
cpu0->cpu0_L2C WRITE        ACCESS:     687783 HIT:     686898 MISS:        885 MSHR_MERGE:          0
cpu0->cpu0_L2C TRANSLATION  ACCESS:      84959 HIT:      11535 MISS:      73424 MSHR_MERGE:          0
cpu0->cpu0_L2C PREFETCH REQUESTED:     180723 ISSUED:     170506 USEFUL:      50140 USELESS:       8966 LATE:        164
cpu0->cpu0_L2C AVERAGE MISS LATENCY: 309 cycles
cpu0->cpu0_L1I TOTAL        ACCESS:    7117159 HIT:    7117159 MISS:          0 MSHR_MERGE:          0
cpu0->cpu0_L1I LOAD         ACCESS:    7117159 HIT:    7117159 MISS:          0 MSHR_MERGE:          0
cpu0->cpu0_L1I RFO          ACCESS:          0 HIT:          0 MISS:          0 MSHR_MERGE:          0
cpu0->cpu0_L1I PREFETCH     ACCESS:          0 HIT:          0 MISS:          0 MSHR_MERGE:          0
cpu0->cpu0_L1I WRITE        ACCESS:          0 HIT:          0 MISS:          0 MSHR_MERGE:          0
cpu0->cpu0_L1I TRANSLATION  ACCESS:          0 HIT:          0 MISS:          0 MSHR_MERGE:          0
cpu0->cpu0_L1I PREFETCH REQUESTED:          0 ISSUED:          0 USEFUL:          0 USELESS:          0 LATE:          0
cpu0->cpu0_L1I AVERAGE MISS LATENCY: - cycles
cpu0->cpu0_L1D TOTAL        ACCESS:   17320584 HIT:   15104390 MISS:    2216194 MSHR_MERGE:     369544
cpu0->cpu0_L1D LOAD         ACCESS:    6442978 HIT:    5168872 MISS:    1274106 MSHR_MERGE:     362642
cpu0->cpu0_L1D RFO          ACCESS:          0 HIT:          0 MISS:          0 MSHR_MERGE:          0
cpu0->cpu0_L1D PREFETCH     ACCESS:    1755890 HIT:     907237 MISS:     848653 MSHR_MERGE:        435
cpu0->cpu0_L1D WRITE        ACCESS:    8788096 HIT:    8781265 MISS:       6831 MSHR_MERGE:       4822
cpu0->cpu0_L1D TRANSLATION  ACCESS:     333620 HIT:     247016 MISS:      86604 MSHR_MERGE:       1645
cpu0->cpu0_L1D PREFETCH REQUESTED:    3150534 ISSUED:    1755890 USEFUL:     331570 USELESS:      28900 LATE:      14871
cpu0->cpu0_L1D AVERAGE MISS LATENCY: 288.4 cycles
cpu0->cpu0_ITLB TOTAL        ACCESS:    5703152 HIT:    5703152 MISS:          0 MSHR_MERGE:          0
cpu0->cpu0_ITLB LOAD         ACCESS:    5703152 HIT:    5703152 MISS:          0 MSHR_MERGE:          0
cpu0->cpu0_ITLB RFO          ACCESS:          0 HIT:          0 MISS:          0 MSHR_MERGE:          0
cpu0->cpu0_ITLB PREFETCH     ACCESS:          0 HIT:          0 MISS:          0 MSHR_MERGE:          0
cpu0->cpu0_ITLB WRITE        ACCESS:          0 HIT:          0 MISS:          0 MSHR_MERGE:          0
cpu0->cpu0_ITLB TRANSLATION  ACCESS:          0 HIT:          0 MISS:          0 MSHR_MERGE:          0
cpu0->cpu0_ITLB PREFETCH REQUESTED:          0 ISSUED:          0 USEFUL:          0 USELESS:          0 LATE:          0
cpu0->cpu0_ITLB AVERAGE MISS LATENCY: - cycles
cpu0->cpu0_DTLB TOTAL        ACCESS:   15025678 HIT:   14408053 MISS:     617625 MSHR_MERGE:     368917
cpu0->cpu0_DTLB LOAD         ACCESS:   15025678 HIT:   14408053 MISS:     617625 MSHR_MERGE:     368917
cpu0->cpu0_DTLB RFO          ACCESS:          0 HIT:          0 MISS:          0 MSHR_MERGE:          0
cpu0->cpu0_DTLB PREFETCH     ACCESS:          0 HIT:          0 MISS:          0 MSHR_MERGE:          0
cpu0->cpu0_DTLB WRITE        ACCESS:          0 HIT:          0 MISS:          0 MSHR_MERGE:          0
cpu0->cpu0_DTLB TRANSLATION  ACCESS:          0 HIT:          0 MISS:          0 MSHR_MERGE:          0
cpu0->cpu0_DTLB PREFETCH REQUESTED:          0 ISSUED:          0 USEFUL:          0 USELESS:          0 LATE:          0
cpu0->cpu0_DTLB AVERAGE MISS LATENCY: 199.7 cycles
cpu0->LLC TOTAL        ACCESS:    1990839 HIT:     528308 MISS:    1462531 MSHR_MERGE:      15840
cpu0->LLC LOAD         ACCESS:     827272 HIT:      21087 MISS:     806185 MSHR_MERGE:          9
cpu0->LLC RFO          ACCESS:         10 HIT:          2 MISS:          8 MSHR_MERGE:          0
cpu0->LLC PREFETCH     ACCESS:     429459 HIT:      25541 MISS:     403918 MSHR_MERGE:      15831
cpu0->LLC WRITE        ACCESS:     660674 HIT:     474166 MISS:     186508 MSHR_MERGE:          0
cpu0->LLC TRANSLATION  ACCESS:      73424 HIT:       7512 MISS:      65912 MSHR_MERGE:          0
cpu0->LLC PREFETCH REQUESTED:          0 ISSUED:          0 USEFUL:          0 USELESS:          0 LATE:          0
cpu0->LLC AVERAGE MISS LATENCY: 251.2 cycles

DRAM Statistics

Channel 0 RQ ROW_BUFFER_HIT:      24415
  ROW_BUFFER_MISS:    1235723
  AVG DBUS CONGESTED CYCLE: 6.223
Channel 0 WQ ROW_BUFFER_HIT:     113931
  ROW_BUFFER_MISS:     512654
  FULL:          0
Channel 0 REFRESHES ISSUED:       5031

[ROI Statistics]
[System Configuration]
num_cpus 1
cpu_freq 4000
fetch_width 6
decode_width 6
dispatch_width 6
execute_width 6
lq_width 2
sq_width 2
retire_width 6
scheduler_size 128
branch_mispredict_penalty 15
rob_size 352
lq_size 128
sq_size 72
ifetch_buffer_size 64
decode_buffer_size 32
dispatch_buffer_size 32
register_file_size 288
decode_latency 1
dispatch_latency 1
schedule_latency 1
execute_latency 1
page_size 4096
block_size 64
core_0_itlb_set 16
core_0_itlb_way 4
core_0_itlb_rq_size 16
core_0_itlb_wq_size 16
core_0_itlb_pq_size 0
core_0_itlb_mshr_size 8
core_0_itlb_hit_latency 1
core_0_itlb_fill_latency 1
core_0_itlb_max_tag_check 2
core_0_itlb_max_fill 2
core_0_dtlb_set 16
core_0_dtlb_way 4
core_0_dtlb_rq_size 16
core_0_dtlb_wq_size 16
core_0_dtlb_pq_size 0
core_0_dtlb_mshr_size 8
core_0_dtlb_hit_latency 1
core_0_dtlb_fill_latency 1
core_0_dtlb_max_tag_check 2
core_0_dtlb_max_fill 2
core_0_stlb_set 128
core_0_stlb_way 12
core_0_stlb_rq_size 32
core_0_stlb_wq_size 32
core_0_stlb_pq_size 0
core_0_stlb_mshr_size 16
core_0_stlb_hit_latency 4
core_0_stlb_fill_latency 4
core_0_stlb_max_tag_check 1
core_0_stlb_max_fill 1
core_0_l1i_set 64
core_0_l1i_way 8
core_0_l1i_rq_size 64
core_0_l1i_wq_size 64
core_0_l1i_pq_size 32
core_0_l1i_mshr_size 8
core_0_l1i_hit_latency 2
core_0_l1i_fill_latency 2
core_0_l1i_max_tag_check 2
core_0_l1i_max_fill 2
core_0_l1d_set 64
core_0_l1d_way 12
core_0_l1d_rq_size 64
core_0_l1d_wq_size 64
core_0_l1d_pq_size 8
core_0_l1d_mshr_size 16
core_0_l1d_hit_latency 2
core_0_l1d_fill_latency 3
core_0_l1d_max_tag_check 2
core_0_l1d_max_fill 2
core_0_l2c_set 1024
core_0_l2c_way 8
core_0_l2c_rq_size 32
core_0_l2c_wq_size 32
core_0_l2c_pq_size 16
core_0_l2c_mshr_size 32
core_0_l2c_hit_latency 5
core_0_l2c_fill_latency 5
core_0_l2c_max_tag_check 1
core_0_l2c_max_fill 1
llc_set 2048
llc_way 16
llc_rq_size 32
llc_wq_size 32
llc_pq_size 32
llc_mshr_size 64
llc_hit_latency 10
llc_fill_latency 10
llc_max_tag_check 1
llc_max_fill 1
dram_channels 1
dram_ranks 1
dram_bankgroups 8
dram_banks 4
dram_rows 65536
dram_columns 1024
dram_channel_width 8
dram_rq_size 64
dram_wq_size 64
dram_size 17179869184
core_0_itlb_prefetcher no
core_0_dtlb_prefetcher no
core_0_stlb_prefetcher no
core_0_l1i_prefetcher next_line
core_0_l1d_prefetcher vberti
core_0_l2c_prefetcher ip_stride
llc_prefetcher no
llc_replacement drrip

Core_0_instructions 50000001
Core_0_cycles 60369049
Core_0_IPC 0.828239
Core_0_branch_prediction_accuracy 98.7481
Core_0_branch_MPKI 1.0806
Core_0_average_ROB_occupancy_at_mispredict 134.682

Core_0_ITLB_total_access 5703152
Core_0_ITLB_total_hit 5703152
Core_0_ITLB_total_miss 0
Core_0_ITLB_total_MPKI 0
Core_0_ITLB_total_miss_rate 0
Core_0_ITLB_demand_access 5703152
Core_0_ITLB_demand_hit 5703152
Core_0_ITLB_demand_miss 0
Core_0_ITLB_demand_MPKI 0
Core_0_ITLB_demand_miss_rate 0
Core_0_ITLB_load_access 5703152
Core_0_ITLB_load_hit 5703152
Core_0_ITLB_load_miss 0
Core_0_ITLB_load_MPKI 0
Core_0_ITLB_load_miss_rate 0
Core_0_ITLB_rfo_access 0
Core_0_ITLB_rfo_hit 0
Core_0_ITLB_rfo_miss 0
Core_0_ITLB_rfo_MPKI 0
Core_0_ITLB_rfo_miss_rate 0
Core_0_ITLB_prefetch_access 0
Core_0_ITLB_prefetch_hit 0
Core_0_ITLB_prefetch_miss 0
Core_0_ITLB_prefetch_MPKI 0
Core_0_ITLB_prefetch_miss_rate 0
Core_0_ITLB_writeback_access 0
Core_0_ITLB_writeback_hit 0
Core_0_ITLB_writeback_miss 0
Core_0_ITLB_writeback_MPKI 0
Core_0_ITLB_writeback_miss_rate 0
Core_0_ITLB_prefetch_requested 0
Core_0_ITLB_prefetch_issued 0
Core_0_ITLB_prefetch_useful 0
Core_0_ITLB_prefetch_useless 0
Core_0_ITLB_prefetch_late 0
Core_0_ITLB_prefetch_accuracy 0
Core_0_ITLB_prefetch_coverage 0

Core_0_DTLB_total_access 15025678
Core_0_DTLB_total_hit 14408053
Core_0_DTLB_total_miss 617625
Core_0_DTLB_total_MPKI 12.3525
Core_0_DTLB_total_miss_rate 0.0411046
Core_0_DTLB_demand_access 15025678
Core_0_DTLB_demand_hit 14408053
Core_0_DTLB_demand_miss 617625
Core_0_DTLB_demand_MPKI 12.3525
Core_0_DTLB_demand_miss_rate 0.0411046
Core_0_DTLB_load_access 15025678
Core_0_DTLB_load_hit 14408053
Core_0_DTLB_load_miss 617625
Core_0_DTLB_load_MPKI 12.3525
Core_0_DTLB_load_miss_rate 0.0411046
Core_0_DTLB_rfo_access 0
Core_0_DTLB_rfo_hit 0
Core_0_DTLB_rfo_miss 0
Core_0_DTLB_rfo_MPKI 0
Core_0_DTLB_rfo_miss_rate 0
Core_0_DTLB_prefetch_access 0
Core_0_DTLB_prefetch_hit 0
Core_0_DTLB_prefetch_miss 0
Core_0_DTLB_prefetch_MPKI 0
Core_0_DTLB_prefetch_miss_rate 0
Core_0_DTLB_writeback_access 0
Core_0_DTLB_writeback_hit 0
Core_0_DTLB_writeback_miss 0
Core_0_DTLB_writeback_MPKI 0
Core_0_DTLB_writeback_miss_rate 0
Core_0_DTLB_prefetch_requested 0
Core_0_DTLB_prefetch_issued 0
Core_0_DTLB_prefetch_useful 0
Core_0_DTLB_prefetch_useless 0
Core_0_DTLB_prefetch_late 0
Core_0_DTLB_prefetch_accuracy 0
Core_0_DTLB_prefetch_coverage 0

Core_0_STLB_total_access 248708
Core_0_STLB_total_hit 86225
Core_0_STLB_total_miss 162483
Core_0_STLB_total_MPKI 3.24966
Core_0_STLB_total_miss_rate 0.653308
Core_0_STLB_demand_access 248708
Core_0_STLB_demand_hit 86225
Core_0_STLB_demand_miss 162483
Core_0_STLB_demand_MPKI 3.24966
Core_0_STLB_demand_miss_rate 0.653308
Core_0_STLB_load_access 248708
Core_0_STLB_load_hit 86225
Core_0_STLB_load_miss 162483
Core_0_STLB_load_MPKI 3.24966
Core_0_STLB_load_miss_rate 0.653308
Core_0_STLB_rfo_access 0
Core_0_STLB_rfo_hit 0
Core_0_STLB_rfo_miss 0
Core_0_STLB_rfo_MPKI 0
Core_0_STLB_rfo_miss_rate 0
Core_0_STLB_prefetch_access 0
Core_0_STLB_prefetch_hit 0
Core_0_STLB_prefetch_miss 0
Core_0_STLB_prefetch_MPKI 0
Core_0_STLB_prefetch_miss_rate 0
Core_0_STLB_writeback_access 0
Core_0_STLB_writeback_hit 0
Core_0_STLB_writeback_miss 0
Core_0_STLB_writeback_MPKI 0
Core_0_STLB_writeback_miss_rate 0
Core_0_STLB_prefetch_requested 0
Core_0_STLB_prefetch_issued 0
Core_0_STLB_prefetch_useful 0
Core_0_STLB_prefetch_useless 0
Core_0_STLB_prefetch_late 0
Core_0_STLB_prefetch_accuracy 0
Core_0_STLB_prefetch_coverage 0

Core_0_L1I_total_access 7117159
Core_0_L1I_total_hit 7117159
Core_0_L1I_total_miss 0
Core_0_L1I_total_MPKI 0
Core_0_L1I_total_miss_rate 0
Core_0_L1I_demand_access 7117159
Core_0_L1I_demand_hit 7117159
Core_0_L1I_demand_miss 0
Core_0_L1I_demand_MPKI 0
Core_0_L1I_demand_miss_rate 0
Core_0_L1I_load_access 7117159
Core_0_L1I_load_hit 7117159
Core_0_L1I_load_miss 0
Core_0_L1I_load_MPKI 0
Core_0_L1I_load_miss_rate 0
Core_0_L1I_rfo_access 0
Core_0_L1I_rfo_hit 0
Core_0_L1I_rfo_miss 0
Core_0_L1I_rfo_MPKI 0
Core_0_L1I_rfo_miss_rate 0
Core_0_L1I_prefetch_access 0
Core_0_L1I_prefetch_hit 0
Core_0_L1I_prefetch_miss 0
Core_0_L1I_prefetch_MPKI 0
Core_0_L1I_prefetch_miss_rate 0
Core_0_L1I_writeback_access 0
Core_0_L1I_writeback_hit 0
Core_0_L1I_writeback_miss 0
Core_0_L1I_writeback_MPKI 0
Core_0_L1I_writeback_miss_rate 0
Core_0_L1I_prefetch_requested 0
Core_0_L1I_prefetch_issued 0
Core_0_L1I_prefetch_useful 0
Core_0_L1I_prefetch_useless 0
Core_0_L1I_prefetch_late 0
Core_0_L1I_prefetch_accuracy 0
Core_0_L1I_prefetch_coverage 0

Core_0_L1D_total_access 16986964
Core_0_L1D_total_hit 14857374
Core_0_L1D_total_miss 2129590
Core_0_L1D_total_MPKI 42.5918
Core_0_L1D_total_miss_rate 0.125366
Core_0_L1D_demand_access 6442978
Core_0_L1D_demand_hit 5168872
Core_0_L1D_demand_miss 1274106
Core_0_L1D_demand_MPKI 25.4821
Core_0_L1D_demand_miss_rate 0.197751
Core_0_L1D_load_access 6442978
Core_0_L1D_load_hit 5168872
Core_0_L1D_load_miss 1274106
Core_0_L1D_load_MPKI 25.4821
Core_0_L1D_load_miss_rate 0.197751
Core_0_L1D_rfo_access 0
Core_0_L1D_rfo_hit 0
Core_0_L1D_rfo_miss 0
Core_0_L1D_rfo_MPKI 0
Core_0_L1D_rfo_miss_rate 0
Core_0_L1D_prefetch_access 1755890
Core_0_L1D_prefetch_hit 907237
Core_0_L1D_prefetch_miss 848653
Core_0_L1D_prefetch_MPKI 16.9731
Core_0_L1D_prefetch_miss_rate 0.483318
Core_0_L1D_writeback_access 8788096
Core_0_L1D_writeback_hit 8781265
Core_0_L1D_writeback_miss 6831
Core_0_L1D_writeback_MPKI 0.13662
Core_0_L1D_writeback_miss_rate 0.000777301
Core_0_L1D_prefetch_requested 3150534
Core_0_L1D_prefetch_issued 1755890
Core_0_L1D_prefetch_useful 331570
Core_0_L1D_prefetch_useless 28900
Core_0_L1D_prefetch_late 14871
Core_0_L1D_prefetch_accuracy 0.188833
Core_0_L1D_prefetch_coverage 0.206499

Core_0_L2C_total_access 2617975
Core_0_L2C_total_hit 1217123
Core_0_L2C_total_miss 1400852
Core_0_L2C_total_MPKI 28.017
Core_0_L2C_total_miss_rate 0.53509
Core_0_L2C_demand_access 913463
Core_0_L2C_demand_hit 83033
Core_0_L2C_demand_miss 830430
Core_0_L2C_demand_MPKI 16.6086
Core_0_L2C_demand_miss_rate 0.909101
Core_0_L2C_load_access 911459
Core_0_L2C_load_hit 81039
Core_0_L2C_load_miss 830420
Core_0_L2C_load_MPKI 16.6084
Core_0_L2C_load_miss_rate 0.911089
Core_0_L2C_rfo_access 2004
Core_0_L2C_rfo_hit 1994
Core_0_L2C_rfo_miss 10
Core_0_L2C_rfo_MPKI 0.0002
Core_0_L2C_rfo_miss_rate 0.00499002
Core_0_L2C_prefetch_access 1016729
Core_0_L2C_prefetch_hit 447192
Core_0_L2C_prefetch_miss 569537
Core_0_L2C_prefetch_MPKI 11.3907
Core_0_L2C_prefetch_miss_rate 0.560166
Core_0_L2C_writeback_access 687783
Core_0_L2C_writeback_hit 686898
Core_0_L2C_writeback_miss 885
Core_0_L2C_writeback_MPKI 0.0177
Core_0_L2C_writeback_miss_rate 0.00128674
Core_0_L2C_prefetch_requested 180723
Core_0_L2C_prefetch_issued 170506
Core_0_L2C_prefetch_useful 50140
Core_0_L2C_prefetch_useless 8966
Core_0_L2C_prefetch_late 164
Core_0_L2C_prefetch_accuracy 0.294066
Core_0_L2C_prefetch_coverage 0.0569404

Core_0_LLC_total_access 1917415
Core_0_LLC_total_hit 520796
Core_0_LLC_total_miss 1396619
Core_0_LLC_total_MPKI 27.9324
Core_0_LLC_total_miss_rate 0.728386
Core_0_LLC_demand_access 827282
Core_0_LLC_demand_hit 21089
Core_0_LLC_demand_miss 806193
Core_0_LLC_demand_MPKI 16.1239
Core_0_LLC_demand_miss_rate 0.974508
Core_0_LLC_load_access 827272
Core_0_LLC_load_hit 21087
Core_0_LLC_load_miss 806185
Core_0_LLC_load_MPKI 16.1237
Core_0_LLC_load_miss_rate 0.97451
Core_0_LLC_rfo_access 10
Core_0_LLC_rfo_hit 2
Core_0_LLC_rfo_miss 8
Core_0_LLC_rfo_MPKI 0.00016
Core_0_LLC_rfo_miss_rate 0.8
Core_0_LLC_prefetch_access 429459
Core_0_LLC_prefetch_hit 25541
Core_0_LLC_prefetch_miss 403918
Core_0_LLC_prefetch_MPKI 8.07836
Core_0_LLC_prefetch_miss_rate 0.940528
Core_0_LLC_writeback_access 660674
Core_0_LLC_writeback_hit 474166
Core_0_LLC_writeback_miss 186508
Core_0_LLC_writeback_MPKI 3.73016
Core_0_LLC_writeback_miss_rate 0.2823
Core_0_LLC_prefetch_requested 0
Core_0_LLC_prefetch_issued 0
Core_0_LLC_prefetch_useful 0
Core_0_LLC_prefetch_useless 0
Core_0_LLC_prefetch_late 0
Core_0_LLC_prefetch_accuracy 0
Core_0_LLC_prefetch_coverage 0

[DRAM Statistics]
Channel_0_RQ_row_buffer_hit 24415
Channel_0_RQ_row_buffer_miss 1235723
Channel_0_WQ_row_buffer_hit 113931
Channel_0_WQ_row_buffer_miss 512654
Channel_0_WQ_full 0
Channel_0_dbus_congested 5643523
DRAM_total_RQ_row_buffer_hit 24415
DRAM_total_RQ_row_buffer_miss 1235723
DRAM_total_WQ_row_buffer_hit 113931
DRAM_total_WQ_row_buffer_miss 512654
DRAM_total_WQ_full 0
DRAM_total_dbus_congested 5643523
DRAM_avg_congested_cycle 6.22312

====== DRAM_RQ_TRAFFIC ========
DRAM_RQ_READ_TRAFFIC_BREAKDOWN:
data_demand_read.count = 806184
data_demand_read.share = 63.97%

inst_demand_read.count = 0
inst_demand_read.share = 0.00%

cache_inst_prefetch.count = 0
cache_inst_prefetch.share = 0.00%

cache_data_prefetch.count = 388087
cache_data_prefetch.share = 30.80%

stlb_data_demand.count = 64890
stlb_data_demand.share = 5.15%

stlb_inst_demand.count = 0
stlb_inst_demand.share = 0.00%

stlb_l1i_pref.count = 0
stlb_l1i_pref.share = 0.00%

stlb_l1d_pref.count = 1022
stlb_l1d_pref.share = 0.08%

DRAM_RQ_READ_TRAFFIC_SUMMARY:
cache_demand.count = 806184
cache_demand.share = 63.97%

cache_prefetch.count = 388087
cache_prefetch.share = 30.80%

stlb_demand.count = 64890
stlb_demand.share = 5.15%

stlb_prefetch.count = 1022
stlb_prefetch.share = 0.08%

DRAM_RQ_READ_TRAFFIC_DEBUG:
total_classified_read.count = 1260183
unclassified_read.count = 0
total_read_with_other.count = 1260183

classified_plus_unclassified_check.count = 1260183
dram_rq_read_total_observed.count = 1260183
dram_rq_read_total_observed.per_1K_instructions = 25.2037

STLB_MISS_PTW_DRAM_TOUCH_BREAKDOWN:
stlb_miss_total.count = 162483

stlb_miss_touch_dram.count = 65433
stlb_miss_touch_dram.share = 40.27%

stlb_miss_no_dram_touch.count = 97050
stlb_miss_no_dram_touch.share = 59.73%

STLB_MISS_PTW_DRAM_TOUCH_DEBUG:
stlb_miss_touch_plus_no_touch.count = 162483
stlb_miss_total_check.count = 162483

======STLB miss causes ========
Core_0_STLB_miss_cause_breakdown
Core_0_STLB_cause_Demand_Data_miss 154403
Core_0_STLB_cause_Demand_Data_miss_rate 0.62082
Core_0_STLB_cause_Demand_Instruction_miss 0
Core_0_STLB_cause_Demand_Instruction_miss_rate 0
Core_0_STLB_cause_L1D_Prefetch_miss 8080
Core_0_STLB_cause_L1D_Prefetch_miss_rate 0.0324879
Core_0_STLB_cause_L1I_Prefetch_miss 0
Core_0_STLB_cause_L1I_Prefetch_miss_rate 0
Core_0_STLB_cause_Other_miss 0
Core_0_STLB_cause_Other_miss_rate 0
Core_0_STLB_Demand_miss 154403
Core_0_STLB_Demand_miss_rate 0.62082
Core_0_STLB_L1D_Prefetch_miss 8080
Core_0_STLB_L1D_Prefetch_miss_rate 0.0324879
Core_0_STLB_Other_miss 0
Core_0_STLB_Other_miss_rate 0
BERTI TO_L1: 2213017 TO_L2: 2746032 TO_L2_BC_MSHR: 460449
BERTI AVG_LAT: 185.091 NUM_TRACK_LATENCY: 1833580 NUM_CANT_TRACK_LATENCY: 40
BERTI CROSS_PAGE 1904444 NO_CROSS_PAGE: 3054605
BERTI FOUND_BERTI: 10063035 NO_FOUND_BERTI: 14577110
BERTI AVERAGE_ISSUED: 2.83766
