[VMEM] WARNING: physical memory size is smaller than virtual memory size.

*** ChampSim Multicore Out-of-Order Simulator ***
Warmup Instructions: 20000000
Simulation Instructions: 50000000
Number of CPUs: 1
Page size: 4096
Core 0: /data0/tzh/champsim_traces/SPEC06/459.GemsFDTD-1169B.champsimtrace.xz
VBerti Prefetcher
BERTI HASH ENTANGLING
BERTI IP MASK ffff
Off-chip DRAM Size: 16 GiB Channels: 1 Width: 64-bit Data Rate: 3205 MT/s
Warmup halting CPU 0 at instruction 20000002 cycle 6404869 for remainder of phase
Warmup finished CPU 0 instructions: 20000002 cycles: 6404869 cumulative IPC: 3.123 (Simulation time: 00 hr 01 min 11 sec)
Warmup complete CPU 0 instructions: 20000002 cycles: 6404869 cumulative IPC: 3.123 (Simulation time: 00 hr 01 min 11 sec)
Simulation finished CPU 0 instructions: 50000004 cycles: 53751049 cumulative IPC: 0.9302 (Simulation time: 00 hr 09 min 17 sec)
Simulation complete CPU 0 instructions: 50000004 cycles: 53751049 cumulative IPC: 0.9302 (Simulation time: 00 hr 09 min 17 sec)

ChampSim completed all CPUs

=== Simulation ===
CPU 0 runs /data0/tzh/champsim_traces/SPEC06/459.GemsFDTD-1169B.champsimtrace.xz

Region of Interest Statistics

CPU 0 cumulative IPC: 0.9302 instructions: 50000004 cycles: 53751049
CPU 0 Branch Prediction Accuracy: 99.92% MPKI: 0.0022 Average ROB Occupancy at Mispredict: 322
Branch type MPKI
BRANCH_DIRECT_JUMP: 2e-05
BRANCH_INDIRECT: 0
BRANCH_CONDITIONAL: 0.00218
BRANCH_DIRECT_CALL: 0
BRANCH_INDIRECT_CALL: 0
BRANCH_RETURN: 0

cpu0->cpu0_STLB TOTAL        ACCESS:    1080617 HIT:     916267 MISS:     164350 MSHR_MERGE:          0
cpu0->cpu0_STLB LOAD         ACCESS:    1080617 HIT:     916267 MISS:     164350 MSHR_MERGE:          0
cpu0->cpu0_STLB RFO          ACCESS:          0 HIT:          0 MISS:          0 MSHR_MERGE:          0
cpu0->cpu0_STLB PREFETCH     ACCESS:          0 HIT:          0 MISS:          0 MSHR_MERGE:          0
cpu0->cpu0_STLB WRITE        ACCESS:          0 HIT:          0 MISS:          0 MSHR_MERGE:          0
cpu0->cpu0_STLB TRANSLATION  ACCESS:          0 HIT:          0 MISS:          0 MSHR_MERGE:          0
cpu0->cpu0_STLB PREFETCH REQUESTED:          0 ISSUED:          0 USEFUL:          0 USELESS:          0 LATE:          0
cpu0->cpu0_STLB AVERAGE MISS LATENCY: 91.33 cycles
cpu0->cpu0_L2C TOTAL        ACCESS:    4446961 HIT:    3994034 MISS:     452927 MSHR_MERGE:       2755
cpu0->cpu0_L2C LOAD         ACCESS:     704847 HIT:     464882 MISS:     239965 MSHR_MERGE:        278
cpu0->cpu0_L2C RFO          ACCESS:          3 HIT:          0 MISS:          3 MSHR_MERGE:          0
cpu0->cpu0_L2C PREFETCH     ACCESS:    3199218 HIT:    3007291 MISS:     191927 MSHR_MERGE:       2477
cpu0->cpu0_L2C WRITE        ACCESS:     416099 HIT:     416099 MISS:          0 MSHR_MERGE:          0
cpu0->cpu0_L2C TRANSLATION  ACCESS:     126794 HIT:     105762 MISS:      21032 MSHR_MERGE:          0
cpu0->cpu0_L2C PREFETCH REQUESTED:     260987 ISSUED:     260985 USEFUL:       3985 USELESS:       1208 LATE:          0
cpu0->cpu0_L2C AVERAGE MISS LATENCY: 194.2 cycles
cpu0->cpu0_L1I TOTAL        ACCESS:   10317820 HIT:   10317556 MISS:        264 MSHR_MERGE:        123
cpu0->cpu0_L1I LOAD         ACCESS:   10317820 HIT:   10317556 MISS:        264 MSHR_MERGE:        123
cpu0->cpu0_L1I RFO          ACCESS:          0 HIT:          0 MISS:          0 MSHR_MERGE:          0
cpu0->cpu0_L1I PREFETCH     ACCESS:          0 HIT:          0 MISS:          0 MSHR_MERGE:          0
cpu0->cpu0_L1I WRITE        ACCESS:          0 HIT:          0 MISS:          0 MSHR_MERGE:          0
cpu0->cpu0_L1I TRANSLATION  ACCESS:          0 HIT:          0 MISS:          0 MSHR_MERGE:          0
cpu0->cpu0_L1I PREFETCH REQUESTED:          0 ISSUED:          0 USEFUL:          0 USELESS:          0 LATE:          0
cpu0->cpu0_L1I AVERAGE MISS LATENCY: 222.3 cycles
cpu0->cpu0_L1D TOTAL        ACCESS:   26882276 HIT:   22987166 MISS:    3895110 MSHR_MERGE:     124467
cpu0->cpu0_L1D LOAD         ACCESS:   19318432 HIT:   18490304 MISS:     828128 MSHR_MERGE:     123422
cpu0->cpu0_L1D RFO          ACCESS:          0 HIT:          0 MISS:          0 MSHR_MERGE:          0
cpu0->cpu0_L1D PREFETCH     ACCESS:    5545402 HIT:    2605508 MISS:    2939894 MSHR_MERGE:        754
cpu0->cpu0_L1D WRITE        ACCESS:    1644017 HIT:    1644013 MISS:          4 MSHR_MERGE:          1
cpu0->cpu0_L1D TRANSLATION  ACCESS:     374425 HIT:     247341 MISS:     127084 MSHR_MERGE:        290
cpu0->cpu0_L1D PREFETCH REQUESTED:    9597838 ISSUED:    5545406 USEFUL:    1285269 USELESS:     363565 LATE:        449
cpu0->cpu0_L1D AVERAGE MISS LATENCY: 69.24 cycles
cpu0->cpu0_ITLB TOTAL        ACCESS:    8532496 HIT:    8532483 MISS:         13 MSHR_MERGE:         11
cpu0->cpu0_ITLB LOAD         ACCESS:    8532496 HIT:    8532483 MISS:         13 MSHR_MERGE:         11
cpu0->cpu0_ITLB RFO          ACCESS:          0 HIT:          0 MISS:          0 MSHR_MERGE:          0
cpu0->cpu0_ITLB PREFETCH     ACCESS:          0 HIT:          0 MISS:          0 MSHR_MERGE:          0
cpu0->cpu0_ITLB WRITE        ACCESS:          0 HIT:          0 MISS:          0 MSHR_MERGE:          0
cpu0->cpu0_ITLB TRANSLATION  ACCESS:          0 HIT:          0 MISS:          0 MSHR_MERGE:          0
cpu0->cpu0_ITLB PREFETCH REQUESTED:          0 ISSUED:          0 USEFUL:          0 USELESS:          0 LATE:          0
cpu0->cpu0_ITLB AVERAGE MISS LATENCY: 453 cycles
cpu0->cpu0_DTLB TOTAL        ACCESS:   24962708 HIT:   23674733 MISS:    1287975 MSHR_MERGE:     207360
cpu0->cpu0_DTLB LOAD         ACCESS:   24962708 HIT:   23674733 MISS:    1287975 MSHR_MERGE:     207360
cpu0->cpu0_DTLB RFO          ACCESS:          0 HIT:          0 MISS:          0 MSHR_MERGE:          0
cpu0->cpu0_DTLB PREFETCH     ACCESS:          0 HIT:          0 MISS:          0 MSHR_MERGE:          0
cpu0->cpu0_DTLB WRITE        ACCESS:          0 HIT:          0 MISS:          0 MSHR_MERGE:          0
cpu0->cpu0_DTLB TRANSLATION  ACCESS:          0 HIT:          0 MISS:          0 MSHR_MERGE:          0
cpu0->cpu0_DTLB PREFETCH REQUESTED:          0 ISSUED:          0 USEFUL:          0 USELESS:          0 LATE:          0
cpu0->cpu0_DTLB AVERAGE MISS LATENCY: 19.05 cycles
cpu0->LLC TOTAL        ACCESS:     462917 HIT:      96290 MISS:     366627 MSHR_MERGE:          2
cpu0->LLC LOAD         ACCESS:     239687 HIT:       7857 MISS:     231830 MSHR_MERGE:          0
cpu0->LLC RFO          ACCESS:          3 HIT:          0 MISS:          3 MSHR_MERGE:          0
cpu0->LLC PREFETCH     ACCESS:     189448 HIT:      64891 MISS:     124557 MSHR_MERGE:          2
cpu0->LLC WRITE        ACCESS:      12747 HIT:      11525 MISS:       1222 MSHR_MERGE:          0
cpu0->LLC TRANSLATION  ACCESS:      21032 HIT:      12017 MISS:       9015 MSHR_MERGE:          0
cpu0->LLC PREFETCH REQUESTED:          0 ISSUED:          0 USEFUL:          0 USELESS:          0 LATE:          0
cpu0->LLC AVERAGE MISS LATENCY: 192.2 cycles

DRAM Statistics

Channel 0 RQ ROW_BUFFER_HIT:         61
  ROW_BUFFER_MISS:     365342
  AVG DBUS CONGESTED CYCLE: 11.44
Channel 0 WQ ROW_BUFFER_HIT:        827
  ROW_BUFFER_MISS:       1781
  FULL:          0
Channel 0 REFRESHES ISSUED:       4479

[ROI Statistics]
[System Configuration]
num_cpus 1
cpu_freq 4000
fetch_width 6
decode_width 6
dispatch_width 6
execute_width 6
lq_width 2
sq_width 2
retire_width 6
scheduler_size 128
branch_mispredict_penalty 15
rob_size 352
lq_size 128
sq_size 72
ifetch_buffer_size 64
decode_buffer_size 32
dispatch_buffer_size 32
register_file_size 288
decode_latency 1
dispatch_latency 1
schedule_latency 1
execute_latency 1
page_size 4096
block_size 64
core_0_itlb_set 16
core_0_itlb_way 4
core_0_itlb_rq_size 16
core_0_itlb_wq_size 16
core_0_itlb_pq_size 0
core_0_itlb_mshr_size 8
core_0_itlb_hit_latency 1
core_0_itlb_fill_latency 1
core_0_itlb_max_tag_check 2
core_0_itlb_max_fill 2
core_0_dtlb_set 16
core_0_dtlb_way 4
core_0_dtlb_rq_size 16
core_0_dtlb_wq_size 16
core_0_dtlb_pq_size 0
core_0_dtlb_mshr_size 8
core_0_dtlb_hit_latency 1
core_0_dtlb_fill_latency 1
core_0_dtlb_max_tag_check 2
core_0_dtlb_max_fill 2
core_0_stlb_set 128
core_0_stlb_way 12
core_0_stlb_rq_size 32
core_0_stlb_wq_size 32
core_0_stlb_pq_size 0
core_0_stlb_mshr_size 16
core_0_stlb_hit_latency 4
core_0_stlb_fill_latency 4
core_0_stlb_max_tag_check 1
core_0_stlb_max_fill 1
core_0_l1i_set 64
core_0_l1i_way 8
core_0_l1i_rq_size 64
core_0_l1i_wq_size 64
core_0_l1i_pq_size 32
core_0_l1i_mshr_size 8
core_0_l1i_hit_latency 2
core_0_l1i_fill_latency 2
core_0_l1i_max_tag_check 2
core_0_l1i_max_fill 2
core_0_l1d_set 64
core_0_l1d_way 12
core_0_l1d_rq_size 64
core_0_l1d_wq_size 64
core_0_l1d_pq_size 8
core_0_l1d_mshr_size 16
core_0_l1d_hit_latency 2
core_0_l1d_fill_latency 3
core_0_l1d_max_tag_check 2
core_0_l1d_max_fill 2
core_0_l2c_set 1024
core_0_l2c_way 8
core_0_l2c_rq_size 32
core_0_l2c_wq_size 32
core_0_l2c_pq_size 16
core_0_l2c_mshr_size 32
core_0_l2c_hit_latency 5
core_0_l2c_fill_latency 5
core_0_l2c_max_tag_check 1
core_0_l2c_max_fill 1
llc_set 2048
llc_way 16
llc_rq_size 32
llc_wq_size 32
llc_pq_size 32
llc_mshr_size 64
llc_hit_latency 10
llc_fill_latency 10
llc_max_tag_check 1
llc_max_fill 1
dram_channels 1
dram_ranks 1
dram_bankgroups 8
dram_banks 4
dram_rows 65536
dram_columns 1024
dram_channel_width 8
dram_rq_size 64
dram_wq_size 64
dram_size 17179869184
core_0_itlb_prefetcher no
core_0_dtlb_prefetcher no
core_0_stlb_prefetcher no
core_0_l1i_prefetcher next_line
core_0_l1d_prefetcher vberti
core_0_l2c_prefetcher ip_stride
llc_prefetcher no
llc_replacement drrip

Core_0_instructions 50000004
Core_0_cycles 53751049
Core_0_IPC 0.930214
Core_0_branch_prediction_accuracy 99.9172
Core_0_branch_MPKI 0.0022
Core_0_average_ROB_occupancy_at_mispredict 321.964

Core_0_ITLB_total_access 8532496
Core_0_ITLB_total_hit 8532483
Core_0_ITLB_total_miss 13
Core_0_ITLB_total_MPKI 0.00026
Core_0_ITLB_total_miss_rate 1.52359e-06
Core_0_ITLB_demand_access 8532496
Core_0_ITLB_demand_hit 8532483
Core_0_ITLB_demand_miss 13
Core_0_ITLB_demand_MPKI 0.00026
Core_0_ITLB_demand_miss_rate 1.52359e-06
Core_0_ITLB_load_access 8532496
Core_0_ITLB_load_hit 8532483
Core_0_ITLB_load_miss 13
Core_0_ITLB_load_MPKI 0.00026
Core_0_ITLB_load_miss_rate 1.52359e-06
Core_0_ITLB_rfo_access 0
Core_0_ITLB_rfo_hit 0
Core_0_ITLB_rfo_miss 0
Core_0_ITLB_rfo_MPKI 0
Core_0_ITLB_rfo_miss_rate 0
Core_0_ITLB_prefetch_access 0
Core_0_ITLB_prefetch_hit 0
Core_0_ITLB_prefetch_miss 0
Core_0_ITLB_prefetch_MPKI 0
Core_0_ITLB_prefetch_miss_rate 0
Core_0_ITLB_writeback_access 0
Core_0_ITLB_writeback_hit 0
Core_0_ITLB_writeback_miss 0
Core_0_ITLB_writeback_MPKI 0
Core_0_ITLB_writeback_miss_rate 0
Core_0_ITLB_prefetch_requested 0
Core_0_ITLB_prefetch_issued 0
Core_0_ITLB_prefetch_useful 0
Core_0_ITLB_prefetch_useless 0
Core_0_ITLB_prefetch_late 0
Core_0_ITLB_prefetch_accuracy 0
Core_0_ITLB_prefetch_coverage 0

Core_0_DTLB_total_access 24962708
Core_0_DTLB_total_hit 23674733
Core_0_DTLB_total_miss 1287975
Core_0_DTLB_total_MPKI 25.7595
Core_0_DTLB_total_miss_rate 0.051596
Core_0_DTLB_demand_access 24962708
Core_0_DTLB_demand_hit 23674733
Core_0_DTLB_demand_miss 1287975
Core_0_DTLB_demand_MPKI 25.7595
Core_0_DTLB_demand_miss_rate 0.051596
Core_0_DTLB_load_access 24962708
Core_0_DTLB_load_hit 23674733
Core_0_DTLB_load_miss 1287975
Core_0_DTLB_load_MPKI 25.7595
Core_0_DTLB_load_miss_rate 0.051596
Core_0_DTLB_rfo_access 0
Core_0_DTLB_rfo_hit 0
Core_0_DTLB_rfo_miss 0
Core_0_DTLB_rfo_MPKI 0
Core_0_DTLB_rfo_miss_rate 0
Core_0_DTLB_prefetch_access 0
Core_0_DTLB_prefetch_hit 0
Core_0_DTLB_prefetch_miss 0
Core_0_DTLB_prefetch_MPKI 0
Core_0_DTLB_prefetch_miss_rate 0
Core_0_DTLB_writeback_access 0
Core_0_DTLB_writeback_hit 0
Core_0_DTLB_writeback_miss 0
Core_0_DTLB_writeback_MPKI 0
Core_0_DTLB_writeback_miss_rate 0
Core_0_DTLB_prefetch_requested 0
Core_0_DTLB_prefetch_issued 0
Core_0_DTLB_prefetch_useful 0
Core_0_DTLB_prefetch_useless 0
Core_0_DTLB_prefetch_late 0
Core_0_DTLB_prefetch_accuracy 0
Core_0_DTLB_prefetch_coverage 0

Core_0_STLB_total_access 1080617
Core_0_STLB_total_hit 916267
Core_0_STLB_total_miss 164350
Core_0_STLB_total_MPKI 3.287
Core_0_STLB_total_miss_rate 0.152089
Core_0_STLB_demand_access 1080617
Core_0_STLB_demand_hit 916267
Core_0_STLB_demand_miss 164350
Core_0_STLB_demand_MPKI 3.287
Core_0_STLB_demand_miss_rate 0.152089
Core_0_STLB_load_access 1080617
Core_0_STLB_load_hit 916267
Core_0_STLB_load_miss 164350
Core_0_STLB_load_MPKI 3.287
Core_0_STLB_load_miss_rate 0.152089
Core_0_STLB_rfo_access 0
Core_0_STLB_rfo_hit 0
Core_0_STLB_rfo_miss 0
Core_0_STLB_rfo_MPKI 0
Core_0_STLB_rfo_miss_rate 0
Core_0_STLB_prefetch_access 0
Core_0_STLB_prefetch_hit 0
Core_0_STLB_prefetch_miss 0
Core_0_STLB_prefetch_MPKI 0
Core_0_STLB_prefetch_miss_rate 0
Core_0_STLB_writeback_access 0
Core_0_STLB_writeback_hit 0
Core_0_STLB_writeback_miss 0
Core_0_STLB_writeback_MPKI 0
Core_0_STLB_writeback_miss_rate 0
Core_0_STLB_prefetch_requested 0
Core_0_STLB_prefetch_issued 0
Core_0_STLB_prefetch_useful 0
Core_0_STLB_prefetch_useless 0
Core_0_STLB_prefetch_late 0
Core_0_STLB_prefetch_accuracy 0
Core_0_STLB_prefetch_coverage 0

Core_0_L1I_total_access 10317820
Core_0_L1I_total_hit 10317556
Core_0_L1I_total_miss 264
Core_0_L1I_total_MPKI 0.00528
Core_0_L1I_total_miss_rate 2.55868e-05
Core_0_L1I_demand_access 10317820
Core_0_L1I_demand_hit 10317556
Core_0_L1I_demand_miss 264
Core_0_L1I_demand_MPKI 0.00528
Core_0_L1I_demand_miss_rate 2.55868e-05
Core_0_L1I_load_access 10317820
Core_0_L1I_load_hit 10317556
Core_0_L1I_load_miss 264
Core_0_L1I_load_MPKI 0.00528
Core_0_L1I_load_miss_rate 2.55868e-05
Core_0_L1I_rfo_access 0
Core_0_L1I_rfo_hit 0
Core_0_L1I_rfo_miss 0
Core_0_L1I_rfo_MPKI 0
Core_0_L1I_rfo_miss_rate 0
Core_0_L1I_prefetch_access 0
Core_0_L1I_prefetch_hit 0
Core_0_L1I_prefetch_miss 0
Core_0_L1I_prefetch_MPKI 0
Core_0_L1I_prefetch_miss_rate 0
Core_0_L1I_writeback_access 0
Core_0_L1I_writeback_hit 0
Core_0_L1I_writeback_miss 0
Core_0_L1I_writeback_MPKI 0
Core_0_L1I_writeback_miss_rate 0
Core_0_L1I_prefetch_requested 0
Core_0_L1I_prefetch_issued 0
Core_0_L1I_prefetch_useful 0
Core_0_L1I_prefetch_useless 0
Core_0_L1I_prefetch_late 0
Core_0_L1I_prefetch_accuracy 0
Core_0_L1I_prefetch_coverage 0

Core_0_L1D_total_access 26507851
Core_0_L1D_total_hit 22739825
Core_0_L1D_total_miss 3768026
Core_0_L1D_total_MPKI 75.3605
Core_0_L1D_total_miss_rate 0.142148
Core_0_L1D_demand_access 19318432
Core_0_L1D_demand_hit 18490304
Core_0_L1D_demand_miss 828128
Core_0_L1D_demand_MPKI 16.5626
Core_0_L1D_demand_miss_rate 0.0428672
Core_0_L1D_load_access 19318432
Core_0_L1D_load_hit 18490304
Core_0_L1D_load_miss 828128
Core_0_L1D_load_MPKI 16.5626
Core_0_L1D_load_miss_rate 0.0428672
Core_0_L1D_rfo_access 0
Core_0_L1D_rfo_hit 0
Core_0_L1D_rfo_miss 0
Core_0_L1D_rfo_MPKI 0
Core_0_L1D_rfo_miss_rate 0
Core_0_L1D_prefetch_access 5545402
Core_0_L1D_prefetch_hit 2605508
Core_0_L1D_prefetch_miss 2939894
Core_0_L1D_prefetch_MPKI 58.7979
Core_0_L1D_prefetch_miss_rate 0.53015
Core_0_L1D_writeback_access 1644017
Core_0_L1D_writeback_hit 1644013
Core_0_L1D_writeback_miss 4
Core_0_L1D_writeback_MPKI 8e-05
Core_0_L1D_writeback_miss_rate 2.43306e-06
Core_0_L1D_prefetch_requested 9597838
Core_0_L1D_prefetch_issued 5545406
Core_0_L1D_prefetch_useful 1285269
Core_0_L1D_prefetch_useless 363565
Core_0_L1D_prefetch_late 449
Core_0_L1D_prefetch_accuracy 0.231772
Core_0_L1D_prefetch_coverage 0.608153

Core_0_L2C_total_access 4320167
Core_0_L2C_total_hit 3888272
Core_0_L2C_total_miss 431895
Core_0_L2C_total_MPKI 8.6379
Core_0_L2C_total_miss_rate 0.0999718
Core_0_L2C_demand_access 704850
Core_0_L2C_demand_hit 464882
Core_0_L2C_demand_miss 239968
Core_0_L2C_demand_MPKI 4.79936
Core_0_L2C_demand_miss_rate 0.340453
Core_0_L2C_load_access 704847
Core_0_L2C_load_hit 464882
Core_0_L2C_load_miss 239965
Core_0_L2C_load_MPKI 4.7993
Core_0_L2C_load_miss_rate 0.34045
Core_0_L2C_rfo_access 3
Core_0_L2C_rfo_hit 0
Core_0_L2C_rfo_miss 3
Core_0_L2C_rfo_MPKI 6e-05
Core_0_L2C_rfo_miss_rate 1
Core_0_L2C_prefetch_access 3199218
Core_0_L2C_prefetch_hit 3007291
Core_0_L2C_prefetch_miss 191927
Core_0_L2C_prefetch_MPKI 3.83854
Core_0_L2C_prefetch_miss_rate 0.0599918
Core_0_L2C_writeback_access 416099
Core_0_L2C_writeback_hit 416099
Core_0_L2C_writeback_miss 0
Core_0_L2C_writeback_MPKI 0
Core_0_L2C_writeback_miss_rate 0
Core_0_L2C_prefetch_requested 260987
Core_0_L2C_prefetch_issued 260985
Core_0_L2C_prefetch_useful 3985
Core_0_L2C_prefetch_useless 1208
Core_0_L2C_prefetch_late 0
Core_0_L2C_prefetch_accuracy 0.0152691
Core_0_L2C_prefetch_coverage 0.0163351

Core_0_LLC_total_access 441885
Core_0_LLC_total_hit 84273
Core_0_LLC_total_miss 357612
Core_0_LLC_total_MPKI 7.15224
Core_0_LLC_total_miss_rate 0.809287
Core_0_LLC_demand_access 239690
Core_0_LLC_demand_hit 7857
Core_0_LLC_demand_miss 231833
Core_0_LLC_demand_MPKI 4.63666
Core_0_LLC_demand_miss_rate 0.96722
Core_0_LLC_load_access 239687
Core_0_LLC_load_hit 7857
Core_0_LLC_load_miss 231830
Core_0_LLC_load_MPKI 4.6366
Core_0_LLC_load_miss_rate 0.96722
Core_0_LLC_rfo_access 3
Core_0_LLC_rfo_hit 0
Core_0_LLC_rfo_miss 3
Core_0_LLC_rfo_MPKI 6e-05
Core_0_LLC_rfo_miss_rate 1
Core_0_LLC_prefetch_access 189448
Core_0_LLC_prefetch_hit 64891
Core_0_LLC_prefetch_miss 124557
Core_0_LLC_prefetch_MPKI 2.49114
Core_0_LLC_prefetch_miss_rate 0.657473
Core_0_LLC_writeback_access 12747
Core_0_LLC_writeback_hit 11525
Core_0_LLC_writeback_miss 1222
Core_0_LLC_writeback_MPKI 0.02444
Core_0_LLC_writeback_miss_rate 0.0958657
Core_0_LLC_prefetch_requested 0
Core_0_LLC_prefetch_issued 0
Core_0_LLC_prefetch_useful 0
Core_0_LLC_prefetch_useless 0
Core_0_LLC_prefetch_late 0
Core_0_LLC_prefetch_accuracy 0
Core_0_LLC_prefetch_coverage 0

[DRAM Statistics]
Channel_0_RQ_row_buffer_hit 61
Channel_0_RQ_row_buffer_miss 365342
Channel_0_WQ_row_buffer_hit 827
Channel_0_WQ_row_buffer_miss 1781
Channel_0_WQ_full 0
Channel_0_dbus_congested 163825
DRAM_total_RQ_row_buffer_hit 61
DRAM_total_RQ_row_buffer_miss 365342
DRAM_total_WQ_row_buffer_hit 827
DRAM_total_WQ_row_buffer_miss 1781
DRAM_total_WQ_full 0
DRAM_total_dbus_congested 163825
DRAM_avg_congested_cycle 11.4419

====== DRAM_RQ_TRAFFIC ========
DRAM_RQ_READ_TRAFFIC_BREAKDOWN:
data_demand_read.count = 231692
data_demand_read.share = 63.41%

inst_demand_read.count = 141
inst_demand_read.share = 0.04%

cache_inst_prefetch.count = 0
cache_inst_prefetch.share = 0.00%

cache_data_prefetch.count = 124555
cache_data_prefetch.share = 34.09%

stlb_data_demand.count = 8596
stlb_data_demand.share = 2.35%

stlb_inst_demand.count = 2
stlb_inst_demand.share = 0.00%

stlb_l1i_pref.count = 0
stlb_l1i_pref.share = 0.00%

stlb_l1d_pref.count = 417
stlb_l1d_pref.share = 0.11%

DRAM_RQ_READ_TRAFFIC_SUMMARY:
cache_demand.count = 231833
cache_demand.share = 63.45%

cache_prefetch.count = 124555
cache_prefetch.share = 34.09%

stlb_demand.count = 8598
stlb_demand.share = 2.35%

stlb_prefetch.count = 417
stlb_prefetch.share = 0.11%

DRAM_RQ_READ_TRAFFIC_DEBUG:
total_classified_read.count = 365403
unclassified_read.count = 0
total_read_with_other.count = 365403

classified_plus_unclassified_check.count = 365403
dram_rq_read_total_observed.count = 365403
dram_rq_read_total_observed.per_1K_instructions = 7.30806

STLB_MISS_PTW_DRAM_TOUCH_BREAKDOWN:
stlb_miss_total.count = 164350

stlb_miss_touch_dram.count = 8978
stlb_miss_touch_dram.share = 5.46%

stlb_miss_no_dram_touch.count = 155372
stlb_miss_no_dram_touch.share = 94.54%

STLB_MISS_PTW_DRAM_TOUCH_DEBUG:
stlb_miss_touch_plus_no_touch.count = 164350
stlb_miss_total_check.count = 164350

======STLB miss causes ========
Core_0_STLB_miss_cause_breakdown
Core_0_STLB_cause_Demand_Data_miss 102732
Core_0_STLB_cause_Demand_Data_miss_rate 0.0950679
Core_0_STLB_cause_Demand_Instruction_miss 2
Core_0_STLB_cause_Demand_Instruction_miss_rate 1.85079e-06
Core_0_STLB_cause_L1D_Prefetch_miss 61616
Core_0_STLB_cause_L1D_Prefetch_miss_rate 0.0570193
Core_0_STLB_cause_L1I_Prefetch_miss 0
Core_0_STLB_cause_L1I_Prefetch_miss_rate 0
Core_0_STLB_cause_Other_miss 0
Core_0_STLB_cause_Other_miss_rate 0
Core_0_STLB_Demand_miss 102734
Core_0_STLB_Demand_miss_rate 0.0950698
Core_0_STLB_L1D_Prefetch_miss 61616
Core_0_STLB_L1D_Prefetch_miss_rate 0.0570193
Core_0_STLB_Other_miss 0
Core_0_STLB_Other_miss_rate 0
BERTI TO_L1: 12212720 TO_L2: 5082882 TO_L2_BC_MSHR: 626
BERTI AVG_LAT: 46.3677 NUM_TRACK_LATENCY: 2747744 NUM_CANT_TRACK_LATENCY: 5
BERTI CROSS_PAGE 7147306 NO_CROSS_PAGE: 10148296
BERTI FOUND_BERTI: 2628344 NO_FOUND_BERTI: 22576595
BERTI AVERAGE_ISSUED: 3.52526
