[VMEM] WARNING: physical memory size is smaller than virtual memory size.

*** ChampSim Multicore Out-of-Order Simulator ***
Warmup Instructions: 20000000
Simulation Instructions: 50000000
Number of CPUs: 1
Page size: 4096
Core 0: /data0/tzh/champsim_traces/SPEC17/605.mcf_s-994B.champsimtrace.xz
VBerti Prefetcher
BERTI HASH ENTANGLING
BERTI IP MASK ffff
Off-chip DRAM Size: 16 GiB Channels: 1 Width: 64-bit Data Rate: 3205 MT/s
Warmup halting CPU 0 at instruction 20000004 cycle 5262991 for remainder of phase
Warmup finished CPU 0 instructions: 20000004 cycles: 5262991 cumulative IPC: 3.8 (Simulation time: 00 hr 01 min 08 sec)
Warmup complete CPU 0 instructions: 20000004 cycles: 5262991 cumulative IPC: 3.8 (Simulation time: 00 hr 01 min 08 sec)
Simulation finished CPU 0 instructions: 50000001 cycles: 146256361 cumulative IPC: 0.3419 (Simulation time: 00 hr 12 min 12 sec)
Simulation complete CPU 0 instructions: 50000001 cycles: 146256361 cumulative IPC: 0.3419 (Simulation time: 00 hr 12 min 12 sec)

ChampSim completed all CPUs

=== Simulation ===
CPU 0 runs /data0/tzh/champsim_traces/SPEC17/605.mcf_s-994B.champsimtrace.xz

Region of Interest Statistics

CPU 0 cumulative IPC: 0.3419 instructions: 50000001 cycles: 146256361
CPU 0 Branch Prediction Accuracy: 94.39% MPKI: 14.14 Average ROB Occupancy at Mispredict: 48.48
Branch type MPKI
BRANCH_DIRECT_JUMP: 0.1366
BRANCH_INDIRECT: 0
BRANCH_CONDITIONAL: 14
BRANCH_DIRECT_CALL: 0
BRANCH_INDIRECT_CALL: 0.00264
BRANCH_RETURN: 4e-05

cpu0->cpu0_STLB TOTAL        ACCESS:     809873 HIT:     369267 MISS:     440606 MSHR_MERGE:          0
cpu0->cpu0_STLB LOAD         ACCESS:     809873 HIT:     369267 MISS:     440606 MSHR_MERGE:          0
cpu0->cpu0_STLB RFO          ACCESS:          0 HIT:          0 MISS:          0 MSHR_MERGE:          0
cpu0->cpu0_STLB PREFETCH     ACCESS:          0 HIT:          0 MISS:          0 MSHR_MERGE:          0
cpu0->cpu0_STLB WRITE        ACCESS:          0 HIT:          0 MISS:          0 MSHR_MERGE:          0
cpu0->cpu0_STLB TRANSLATION  ACCESS:          0 HIT:          0 MISS:          0 MSHR_MERGE:          0
cpu0->cpu0_STLB PREFETCH REQUESTED:          0 ISSUED:          0 USEFUL:          0 USELESS:          0 LATE:          0
cpu0->cpu0_STLB AVERAGE MISS LATENCY: 128.4 cycles
cpu0->cpu0_L2C TOTAL        ACCESS:    4534177 HIT:    3149997 MISS:    1384180 MSHR_MERGE:      14003
cpu0->cpu0_L2C LOAD         ACCESS:    1700430 HIT:     586614 MISS:    1113816 MSHR_MERGE:         10
cpu0->cpu0_L2C RFO          ACCESS:       8780 HIT:       8252 MISS:        528 MSHR_MERGE:          6
cpu0->cpu0_L2C PREFETCH     ACCESS:    2396435 HIT:    2293650 MISS:     102785 MSHR_MERGE:      13987
cpu0->cpu0_L2C WRITE        ACCESS:     128385 HIT:     128232 MISS:        153 MSHR_MERGE:          0
cpu0->cpu0_L2C TRANSLATION  ACCESS:     300147 HIT:     133249 MISS:     166898 MSHR_MERGE:          0
cpu0->cpu0_L2C PREFETCH REQUESTED:     944914 ISSUED:     944675 USEFUL:      55066 USELESS:        551 LATE:         11
cpu0->cpu0_L2C AVERAGE MISS LATENCY: 178.4 cycles
cpu0->cpu0_L1I TOTAL        ACCESS:      39843 HIT:      39843 MISS:          0 MSHR_MERGE:          0
cpu0->cpu0_L1I LOAD         ACCESS:      39843 HIT:      39843 MISS:          0 MSHR_MERGE:          0
cpu0->cpu0_L1I RFO          ACCESS:          0 HIT:          0 MISS:          0 MSHR_MERGE:          0
cpu0->cpu0_L1I PREFETCH     ACCESS:          0 HIT:          0 MISS:          0 MSHR_MERGE:          0
cpu0->cpu0_L1I WRITE        ACCESS:          0 HIT:          0 MISS:          0 MSHR_MERGE:          0
cpu0->cpu0_L1I TRANSLATION  ACCESS:          0 HIT:          0 MISS:          0 MSHR_MERGE:          0
cpu0->cpu0_L1I PREFETCH REQUESTED:          0 ISSUED:          0 USEFUL:          0 USELESS:          0 LATE:          0
cpu0->cpu0_L1I AVERAGE MISS LATENCY: - cycles
cpu0->cpu0_L1D TOTAL        ACCESS:   28100982 HIT:   24556672 MISS:    3544310 MSHR_MERGE:      76765
cpu0->cpu0_L1D LOAD         ACCESS:   14144116 HIT:   12388001 MISS:    1756115 MSHR_MERGE:      55686
cpu0->cpu0_L1D RFO          ACCESS:          0 HIT:          0 MISS:          0 MSHR_MERGE:          0
cpu0->cpu0_L1D PREFETCH     ACCESS:    7692493 HIT:    6228246 MISS:    1464247 MSHR_MERGE:       6079
cpu0->cpu0_L1D WRITE        ACCESS:    5077178 HIT:    5055250 MISS:      21928 MSHR_MERGE:      13127
cpu0->cpu0_L1D TRANSLATION  ACCESS:    1187195 HIT:     885175 MISS:     302020 MSHR_MERGE:       1873
cpu0->cpu0_L1D PREFETCH REQUESTED:   11798760 ISSUED:    7692485 USEFUL:      79735 USELESS:       5541 LATE:         76
cpu0->cpu0_L1D AVERAGE MISS LATENCY: 122.6 cycles
cpu0->cpu0_ITLB TOTAL        ACCESS:      35364 HIT:      35364 MISS:          0 MSHR_MERGE:          0
cpu0->cpu0_ITLB LOAD         ACCESS:      35364 HIT:      35364 MISS:          0 MSHR_MERGE:          0
cpu0->cpu0_ITLB RFO          ACCESS:          0 HIT:          0 MISS:          0 MSHR_MERGE:          0
cpu0->cpu0_ITLB PREFETCH     ACCESS:          0 HIT:          0 MISS:          0 MSHR_MERGE:          0
cpu0->cpu0_ITLB WRITE        ACCESS:          0 HIT:          0 MISS:          0 MSHR_MERGE:          0
cpu0->cpu0_ITLB TRANSLATION  ACCESS:          0 HIT:          0 MISS:          0 MSHR_MERGE:          0
cpu0->cpu0_ITLB PREFETCH REQUESTED:          0 ISSUED:          0 USEFUL:          0 USELESS:          0 LATE:          0
cpu0->cpu0_ITLB AVERAGE MISS LATENCY: - cycles
cpu0->cpu0_DTLB TOTAL        ACCESS:   23682846 HIT:   22597278 MISS:    1085568 MSHR_MERGE:     275695
cpu0->cpu0_DTLB LOAD         ACCESS:   23682846 HIT:   22597278 MISS:    1085568 MSHR_MERGE:     275695
cpu0->cpu0_DTLB RFO          ACCESS:          0 HIT:          0 MISS:          0 MSHR_MERGE:          0
cpu0->cpu0_DTLB PREFETCH     ACCESS:          0 HIT:          0 MISS:          0 MSHR_MERGE:          0
cpu0->cpu0_DTLB WRITE        ACCESS:          0 HIT:          0 MISS:          0 MSHR_MERGE:          0
cpu0->cpu0_DTLB TRANSLATION  ACCESS:          0 HIT:          0 MISS:          0 MSHR_MERGE:          0
cpu0->cpu0_DTLB PREFETCH REQUESTED:          0 ISSUED:          0 USEFUL:          0 USELESS:          0 LATE:          0
cpu0->cpu0_DTLB AVERAGE MISS LATENCY: 75.42 cycles
cpu0->LLC TOTAL        ACCESS:    1455906 HIT:     389497 MISS:    1066409 MSHR_MERGE:         71
cpu0->LLC LOAD         ACCESS:    1113806 HIT:     242462 MISS:     871344 MSHR_MERGE:          1
cpu0->LLC RFO          ACCESS:        522 HIT:        311 MISS:        211 MSHR_MERGE:          0
cpu0->LLC PREFETCH     ACCESS:      88798 HIT:      29019 MISS:      59779 MSHR_MERGE:         70
cpu0->LLC WRITE        ACCESS:      85882 HIT:      70990 MISS:      14892 MSHR_MERGE:          0
cpu0->LLC TRANSLATION  ACCESS:     166898 HIT:      46715 MISS:     120183 MSHR_MERGE:          0
cpu0->LLC PREFETCH REQUESTED:          0 ISSUED:          0 USEFUL:          0 USELESS:          0 LATE:          0
cpu0->LLC AVERAGE MISS LATENCY: 207.2 cycles

DRAM Statistics

Channel 0 RQ ROW_BUFFER_HIT:       1131
  ROW_BUFFER_MISS:    1050178
  AVG DBUS CONGESTED CYCLE: 11.16
Channel 0 WQ ROW_BUFFER_HIT:      17270
  ROW_BUFFER_MISS:      40401
  FULL:          0
Channel 0 REFRESHES ISSUED:      12188

[ROI Statistics]
[System Configuration]
num_cpus 1
cpu_freq 4000
fetch_width 6
decode_width 6
dispatch_width 6
execute_width 6
lq_width 2
sq_width 2
retire_width 6
scheduler_size 128
branch_mispredict_penalty 15
rob_size 352
lq_size 128
sq_size 72
ifetch_buffer_size 64
decode_buffer_size 32
dispatch_buffer_size 32
register_file_size 288
decode_latency 1
dispatch_latency 1
schedule_latency 1
execute_latency 1
page_size 4096
block_size 64
core_0_itlb_set 16
core_0_itlb_way 4
core_0_itlb_rq_size 16
core_0_itlb_wq_size 16
core_0_itlb_pq_size 0
core_0_itlb_mshr_size 8
core_0_itlb_hit_latency 1
core_0_itlb_fill_latency 1
core_0_itlb_max_tag_check 2
core_0_itlb_max_fill 2
core_0_dtlb_set 16
core_0_dtlb_way 4
core_0_dtlb_rq_size 16
core_0_dtlb_wq_size 16
core_0_dtlb_pq_size 0
core_0_dtlb_mshr_size 8
core_0_dtlb_hit_latency 1
core_0_dtlb_fill_latency 1
core_0_dtlb_max_tag_check 2
core_0_dtlb_max_fill 2
core_0_stlb_set 128
core_0_stlb_way 12
core_0_stlb_rq_size 32
core_0_stlb_wq_size 32
core_0_stlb_pq_size 0
core_0_stlb_mshr_size 16
core_0_stlb_hit_latency 4
core_0_stlb_fill_latency 4
core_0_stlb_max_tag_check 1
core_0_stlb_max_fill 1
core_0_l1i_set 64
core_0_l1i_way 8
core_0_l1i_rq_size 64
core_0_l1i_wq_size 64
core_0_l1i_pq_size 32
core_0_l1i_mshr_size 8
core_0_l1i_hit_latency 2
core_0_l1i_fill_latency 2
core_0_l1i_max_tag_check 2
core_0_l1i_max_fill 2
core_0_l1d_set 64
core_0_l1d_way 12
core_0_l1d_rq_size 64
core_0_l1d_wq_size 64
core_0_l1d_pq_size 8
core_0_l1d_mshr_size 16
core_0_l1d_hit_latency 2
core_0_l1d_fill_latency 3
core_0_l1d_max_tag_check 2
core_0_l1d_max_fill 2
core_0_l2c_set 1024
core_0_l2c_way 8
core_0_l2c_rq_size 32
core_0_l2c_wq_size 32
core_0_l2c_pq_size 16
core_0_l2c_mshr_size 32
core_0_l2c_hit_latency 5
core_0_l2c_fill_latency 5
core_0_l2c_max_tag_check 1
core_0_l2c_max_fill 1
llc_set 2048
llc_way 16
llc_rq_size 32
llc_wq_size 32
llc_pq_size 32
llc_mshr_size 64
llc_hit_latency 10
llc_fill_latency 10
llc_max_tag_check 1
llc_max_fill 1
dram_channels 1
dram_ranks 1
dram_bankgroups 8
dram_banks 4
dram_rows 65536
dram_columns 1024
dram_channel_width 8
dram_rq_size 64
dram_wq_size 64
dram_size 17179869184
core_0_itlb_prefetcher no
core_0_dtlb_prefetcher no
core_0_stlb_prefetcher no
core_0_l1i_prefetcher next_line
core_0_l1d_prefetcher vberti
core_0_l2c_prefetcher ip_stride
llc_prefetcher no
llc_replacement drrip

Core_0_instructions 50000001
Core_0_cycles 146256361
Core_0_IPC 0.341865
Core_0_branch_prediction_accuracy 94.391
Core_0_branch_MPKI 14.1351
Core_0_average_ROB_occupancy_at_mispredict 48.4794

Core_0_ITLB_total_access 35364
Core_0_ITLB_total_hit 35364
Core_0_ITLB_total_miss 0
Core_0_ITLB_total_MPKI 0
Core_0_ITLB_total_miss_rate 0
Core_0_ITLB_demand_access 35364
Core_0_ITLB_demand_hit 35364
Core_0_ITLB_demand_miss 0
Core_0_ITLB_demand_MPKI 0
Core_0_ITLB_demand_miss_rate 0
Core_0_ITLB_load_access 35364
Core_0_ITLB_load_hit 35364
Core_0_ITLB_load_miss 0
Core_0_ITLB_load_MPKI 0
Core_0_ITLB_load_miss_rate 0
Core_0_ITLB_rfo_access 0
Core_0_ITLB_rfo_hit 0
Core_0_ITLB_rfo_miss 0
Core_0_ITLB_rfo_MPKI 0
Core_0_ITLB_rfo_miss_rate 0
Core_0_ITLB_prefetch_access 0
Core_0_ITLB_prefetch_hit 0
Core_0_ITLB_prefetch_miss 0
Core_0_ITLB_prefetch_MPKI 0
Core_0_ITLB_prefetch_miss_rate 0
Core_0_ITLB_writeback_access 0
Core_0_ITLB_writeback_hit 0
Core_0_ITLB_writeback_miss 0
Core_0_ITLB_writeback_MPKI 0
Core_0_ITLB_writeback_miss_rate 0
Core_0_ITLB_prefetch_requested 0
Core_0_ITLB_prefetch_issued 0
Core_0_ITLB_prefetch_useful 0
Core_0_ITLB_prefetch_useless 0
Core_0_ITLB_prefetch_late 0
Core_0_ITLB_prefetch_accuracy 0
Core_0_ITLB_prefetch_coverage 0

Core_0_DTLB_total_access 23682846
Core_0_DTLB_total_hit 22597278
Core_0_DTLB_total_miss 1085568
Core_0_DTLB_total_MPKI 21.7114
Core_0_DTLB_total_miss_rate 0.0458377
Core_0_DTLB_demand_access 23682846
Core_0_DTLB_demand_hit 22597278
Core_0_DTLB_demand_miss 1085568
Core_0_DTLB_demand_MPKI 21.7114
Core_0_DTLB_demand_miss_rate 0.0458377
Core_0_DTLB_load_access 23682846
Core_0_DTLB_load_hit 22597278
Core_0_DTLB_load_miss 1085568
Core_0_DTLB_load_MPKI 21.7114
Core_0_DTLB_load_miss_rate 0.0458377
Core_0_DTLB_rfo_access 0
Core_0_DTLB_rfo_hit 0
Core_0_DTLB_rfo_miss 0
Core_0_DTLB_rfo_MPKI 0
Core_0_DTLB_rfo_miss_rate 0
Core_0_DTLB_prefetch_access 0
Core_0_DTLB_prefetch_hit 0
Core_0_DTLB_prefetch_miss 0
Core_0_DTLB_prefetch_MPKI 0
Core_0_DTLB_prefetch_miss_rate 0
Core_0_DTLB_writeback_access 0
Core_0_DTLB_writeback_hit 0
Core_0_DTLB_writeback_miss 0
Core_0_DTLB_writeback_MPKI 0
Core_0_DTLB_writeback_miss_rate 0
Core_0_DTLB_prefetch_requested 0
Core_0_DTLB_prefetch_issued 0
Core_0_DTLB_prefetch_useful 0
Core_0_DTLB_prefetch_useless 0
Core_0_DTLB_prefetch_late 0
Core_0_DTLB_prefetch_accuracy 0
Core_0_DTLB_prefetch_coverage 0

Core_0_STLB_total_access 809873
Core_0_STLB_total_hit 369267
Core_0_STLB_total_miss 440606
Core_0_STLB_total_MPKI 8.81212
Core_0_STLB_total_miss_rate 0.544043
Core_0_STLB_demand_access 809873
Core_0_STLB_demand_hit 369267
Core_0_STLB_demand_miss 440606
Core_0_STLB_demand_MPKI 8.81212
Core_0_STLB_demand_miss_rate 0.544043
Core_0_STLB_load_access 809873
Core_0_STLB_load_hit 369267
Core_0_STLB_load_miss 440606
Core_0_STLB_load_MPKI 8.81212
Core_0_STLB_load_miss_rate 0.544043
Core_0_STLB_rfo_access 0
Core_0_STLB_rfo_hit 0
Core_0_STLB_rfo_miss 0
Core_0_STLB_rfo_MPKI 0
Core_0_STLB_rfo_miss_rate 0
Core_0_STLB_prefetch_access 0
Core_0_STLB_prefetch_hit 0
Core_0_STLB_prefetch_miss 0
Core_0_STLB_prefetch_MPKI 0
Core_0_STLB_prefetch_miss_rate 0
Core_0_STLB_writeback_access 0
Core_0_STLB_writeback_hit 0
Core_0_STLB_writeback_miss 0
Core_0_STLB_writeback_MPKI 0
Core_0_STLB_writeback_miss_rate 0
Core_0_STLB_prefetch_requested 0
Core_0_STLB_prefetch_issued 0
Core_0_STLB_prefetch_useful 0
Core_0_STLB_prefetch_useless 0
Core_0_STLB_prefetch_late 0
Core_0_STLB_prefetch_accuracy 0
Core_0_STLB_prefetch_coverage 0

Core_0_L1I_total_access 39843
Core_0_L1I_total_hit 39843
Core_0_L1I_total_miss 0
Core_0_L1I_total_MPKI 0
Core_0_L1I_total_miss_rate 0
Core_0_L1I_demand_access 39843
Core_0_L1I_demand_hit 39843
Core_0_L1I_demand_miss 0
Core_0_L1I_demand_MPKI 0
Core_0_L1I_demand_miss_rate 0
Core_0_L1I_load_access 39843
Core_0_L1I_load_hit 39843
Core_0_L1I_load_miss 0
Core_0_L1I_load_MPKI 0
Core_0_L1I_load_miss_rate 0
Core_0_L1I_rfo_access 0
Core_0_L1I_rfo_hit 0
Core_0_L1I_rfo_miss 0
Core_0_L1I_rfo_MPKI 0
Core_0_L1I_rfo_miss_rate 0
Core_0_L1I_prefetch_access 0
Core_0_L1I_prefetch_hit 0
Core_0_L1I_prefetch_miss 0
Core_0_L1I_prefetch_MPKI 0
Core_0_L1I_prefetch_miss_rate 0
Core_0_L1I_writeback_access 0
Core_0_L1I_writeback_hit 0
Core_0_L1I_writeback_miss 0
Core_0_L1I_writeback_MPKI 0
Core_0_L1I_writeback_miss_rate 0
Core_0_L1I_prefetch_requested 0
Core_0_L1I_prefetch_issued 0
Core_0_L1I_prefetch_useful 0
Core_0_L1I_prefetch_useless 0
Core_0_L1I_prefetch_late 0
Core_0_L1I_prefetch_accuracy 0
Core_0_L1I_prefetch_coverage 0

Core_0_L1D_total_access 26913787
Core_0_L1D_total_hit 23671497
Core_0_L1D_total_miss 3242290
Core_0_L1D_total_MPKI 64.8458
Core_0_L1D_total_miss_rate 0.120469
Core_0_L1D_demand_access 14144116
Core_0_L1D_demand_hit 12388001
Core_0_L1D_demand_miss 1756115
Core_0_L1D_demand_MPKI 35.1223
Core_0_L1D_demand_miss_rate 0.124159
Core_0_L1D_load_access 14144116
Core_0_L1D_load_hit 12388001
Core_0_L1D_load_miss 1756115
Core_0_L1D_load_MPKI 35.1223
Core_0_L1D_load_miss_rate 0.124159
Core_0_L1D_rfo_access 0
Core_0_L1D_rfo_hit 0
Core_0_L1D_rfo_miss 0
Core_0_L1D_rfo_MPKI 0
Core_0_L1D_rfo_miss_rate 0
Core_0_L1D_prefetch_access 7692493
Core_0_L1D_prefetch_hit 6228246
Core_0_L1D_prefetch_miss 1464247
Core_0_L1D_prefetch_MPKI 29.2849
Core_0_L1D_prefetch_miss_rate 0.190348
Core_0_L1D_writeback_access 5077178
Core_0_L1D_writeback_hit 5055250
Core_0_L1D_writeback_miss 21928
Core_0_L1D_writeback_MPKI 0.43856
Core_0_L1D_writeback_miss_rate 0.00431893
Core_0_L1D_prefetch_requested 11798760
Core_0_L1D_prefetch_issued 7692485
Core_0_L1D_prefetch_useful 79735
Core_0_L1D_prefetch_useless 5541
Core_0_L1D_prefetch_late 76
Core_0_L1D_prefetch_accuracy 0.0103653
Core_0_L1D_prefetch_coverage 0.0434322

Core_0_L2C_total_access 4234030
Core_0_L2C_total_hit 3016748
Core_0_L2C_total_miss 1217282
Core_0_L2C_total_MPKI 24.3456
Core_0_L2C_total_miss_rate 0.2875
Core_0_L2C_demand_access 1709210
Core_0_L2C_demand_hit 594866
Core_0_L2C_demand_miss 1114344
Core_0_L2C_demand_MPKI 22.2869
Core_0_L2C_demand_miss_rate 0.651964
Core_0_L2C_load_access 1700430
Core_0_L2C_load_hit 586614
Core_0_L2C_load_miss 1113816
Core_0_L2C_load_MPKI 22.2763
Core_0_L2C_load_miss_rate 0.65502
Core_0_L2C_rfo_access 8780
Core_0_L2C_rfo_hit 8252
Core_0_L2C_rfo_miss 528
Core_0_L2C_rfo_MPKI 0.01056
Core_0_L2C_rfo_miss_rate 0.0601367
Core_0_L2C_prefetch_access 2396435
Core_0_L2C_prefetch_hit 2293650
Core_0_L2C_prefetch_miss 102785
Core_0_L2C_prefetch_MPKI 2.0557
Core_0_L2C_prefetch_miss_rate 0.0428908
Core_0_L2C_writeback_access 128385
Core_0_L2C_writeback_hit 128232
Core_0_L2C_writeback_miss 153
Core_0_L2C_writeback_MPKI 0.00306
Core_0_L2C_writeback_miss_rate 0.00119173
Core_0_L2C_prefetch_requested 944914
Core_0_L2C_prefetch_issued 944675
Core_0_L2C_prefetch_useful 55066
Core_0_L2C_prefetch_useless 551
Core_0_L2C_prefetch_late 11
Core_0_L2C_prefetch_accuracy 0.0582909
Core_0_L2C_prefetch_coverage 0.0470887

Core_0_LLC_total_access 1289008
Core_0_LLC_total_hit 342782
Core_0_LLC_total_miss 946226
Core_0_LLC_total_MPKI 18.9245
Core_0_LLC_total_miss_rate 0.734073
Core_0_LLC_demand_access 1114328
Core_0_LLC_demand_hit 242773
Core_0_LLC_demand_miss 871555
Core_0_LLC_demand_MPKI 17.4311
Core_0_LLC_demand_miss_rate 0.782135
Core_0_LLC_load_access 1113806
Core_0_LLC_load_hit 242462
Core_0_LLC_load_miss 871344
Core_0_LLC_load_MPKI 17.4269
Core_0_LLC_load_miss_rate 0.782312
Core_0_LLC_rfo_access 522
Core_0_LLC_rfo_hit 311
Core_0_LLC_rfo_miss 211
Core_0_LLC_rfo_MPKI 0.00422
Core_0_LLC_rfo_miss_rate 0.404215
Core_0_LLC_prefetch_access 88798
Core_0_LLC_prefetch_hit 29019
Core_0_LLC_prefetch_miss 59779
Core_0_LLC_prefetch_MPKI 1.19558
Core_0_LLC_prefetch_miss_rate 0.673202
Core_0_LLC_writeback_access 85882
Core_0_LLC_writeback_hit 70990
Core_0_LLC_writeback_miss 14892
Core_0_LLC_writeback_MPKI 0.29784
Core_0_LLC_writeback_miss_rate 0.173401
Core_0_LLC_prefetch_requested 0
Core_0_LLC_prefetch_issued 0
Core_0_LLC_prefetch_useful 0
Core_0_LLC_prefetch_useless 0
Core_0_LLC_prefetch_late 0
Core_0_LLC_prefetch_accuracy 0
Core_0_LLC_prefetch_coverage 0

[DRAM Statistics]
Channel_0_RQ_row_buffer_hit 1131
Channel_0_RQ_row_buffer_miss 1050178
Channel_0_WQ_row_buffer_hit 17270
Channel_0_WQ_row_buffer_miss 40401
Channel_0_WQ_full 0
Channel_0_dbus_congested 1962429
DRAM_total_RQ_row_buffer_hit 1131
DRAM_total_RQ_row_buffer_miss 1050178
DRAM_total_WQ_row_buffer_hit 17270
DRAM_total_WQ_row_buffer_miss 40401
DRAM_total_WQ_full 0
DRAM_total_dbus_congested 1962429
DRAM_avg_congested_cycle 11.1637

====== DRAM_RQ_TRAFFIC ========
DRAM_RQ_READ_TRAFFIC_BREAKDOWN:
data_demand_read.count = 871554
data_demand_read.share = 82.89%

inst_demand_read.count = 0
inst_demand_read.share = 0.00%

cache_inst_prefetch.count = 0
cache_inst_prefetch.share = 0.00%

cache_data_prefetch.count = 59709
cache_data_prefetch.share = 5.68%

stlb_data_demand.count = 120071
stlb_data_demand.share = 11.42%

stlb_inst_demand.count = 0
stlb_inst_demand.share = 0.00%

stlb_l1i_pref.count = 0
stlb_l1i_pref.share = 0.00%

stlb_l1d_pref.count = 112
stlb_l1d_pref.share = 0.01%

DRAM_RQ_READ_TRAFFIC_SUMMARY:
cache_demand.count = 871554
cache_demand.share = 82.89%

cache_prefetch.count = 59709
cache_prefetch.share = 5.68%

stlb_demand.count = 120071
stlb_demand.share = 11.42%

stlb_prefetch.count = 112
stlb_prefetch.share = 0.01%

DRAM_RQ_READ_TRAFFIC_DEBUG:
total_classified_read.count = 1051446
unclassified_read.count = 0
total_read_with_other.count = 1051446

classified_plus_unclassified_check.count = 1051446
dram_rq_read_total_observed.count = 1051446
dram_rq_read_total_observed.per_1K_instructions = 21.0289

STLB_MISS_PTW_DRAM_TOUCH_BREAKDOWN:
stlb_miss_total.count = 440606

stlb_miss_touch_dram.count = 119822
stlb_miss_touch_dram.share = 27.19%

stlb_miss_no_dram_touch.count = 320784
stlb_miss_no_dram_touch.share = 72.81%

STLB_MISS_PTW_DRAM_TOUCH_DEBUG:
stlb_miss_touch_plus_no_touch.count = 440606
stlb_miss_total_check.count = 440606

======STLB miss causes ========
Core_0_STLB_miss_cause_breakdown
Core_0_STLB_cause_Demand_Data_miss 439394
Core_0_STLB_cause_Demand_Data_miss_rate 0.542547
Core_0_STLB_cause_Demand_Instruction_miss 0
Core_0_STLB_cause_Demand_Instruction_miss_rate 0
Core_0_STLB_cause_L1D_Prefetch_miss 1212
Core_0_STLB_cause_L1D_Prefetch_miss_rate 0.00149653
Core_0_STLB_cause_L1I_Prefetch_miss 0
Core_0_STLB_cause_L1I_Prefetch_miss_rate 0
Core_0_STLB_cause_Other_miss 0
Core_0_STLB_cause_Other_miss_rate 0
Core_0_STLB_Demand_miss 439394
Core_0_STLB_Demand_miss_rate 0.542547
Core_0_STLB_L1D_Prefetch_miss 1212
Core_0_STLB_L1D_Prefetch_miss_rate 0.00149653
Core_0_STLB_Other_miss 0
Core_0_STLB_Other_miss_rate 0
BERTI TO_L1: 4770467 TO_L2: 8754337 TO_L2_BC_MSHR: 6044
BERTI AVG_LAT: 93.5029 NUM_TRACK_LATENCY: 2391169 NUM_CANT_TRACK_LATENCY: 0
BERTI CROSS_PAGE 1117017 NO_CROSS_PAGE: 12407787
BERTI FOUND_BERTI: 13271680 NO_FOUND_BERTI: 10353001
BERTI AVERAGE_ISSUED: 2.92248
