[VMEM] WARNING: physical memory size is smaller than virtual memory size.

*** ChampSim Multicore Out-of-Order Simulator ***
Warmup Instructions: 20000000
Simulation Instructions: 50000000
Number of CPUs: 1
Page size: 4096
Core 0: /data0/tzh/champsim_traces/SPEC17/605.mcf_s-782B.champsimtrace.xz
VBerti Prefetcher
BERTI HASH ENTANGLING
BERTI IP MASK ffff
Off-chip DRAM Size: 16 GiB Channels: 1 Width: 64-bit Data Rate: 3205 MT/s
Warmup halting CPU 0 at instruction 20000000 cycle 7611038 for remainder of phase
Warmup finished CPU 0 instructions: 20000000 cycles: 7611038 cumulative IPC: 2.628 (Simulation time: 00 hr 01 min 42 sec)
Warmup complete CPU 0 instructions: 20000000 cycles: 7611038 cumulative IPC: 2.628 (Simulation time: 00 hr 01 min 42 sec)
Simulation finished CPU 0 instructions: 50000000 cycles: 336625007 cumulative IPC: 0.1485 (Simulation time: 00 hr 21 min 53 sec)
Simulation complete CPU 0 instructions: 50000000 cycles: 336625007 cumulative IPC: 0.1485 (Simulation time: 00 hr 21 min 53 sec)

ChampSim completed all CPUs

=== Simulation ===
CPU 0 runs /data0/tzh/champsim_traces/SPEC17/605.mcf_s-782B.champsimtrace.xz

Region of Interest Statistics

CPU 0 cumulative IPC: 0.1485 instructions: 50000000 cycles: 336625007
CPU 0 Branch Prediction Accuracy: 85.36% MPKI: 44.43 Average ROB Occupancy at Mispredict: 4.158
Branch type MPKI
BRANCH_DIRECT_JUMP: 0.7225
BRANCH_INDIRECT: 0
BRANCH_CONDITIONAL: 43.7
BRANCH_DIRECT_CALL: 2e-05
BRANCH_INDIRECT_CALL: 0.00076
BRANCH_RETURN: 0

cpu0->cpu0_STLB TOTAL        ACCESS:    4385324 HIT:    4325440 MISS:      59884 MSHR_MERGE:          0
cpu0->cpu0_STLB LOAD         ACCESS:    4385324 HIT:    4325440 MISS:      59884 MSHR_MERGE:          0
cpu0->cpu0_STLB RFO          ACCESS:          0 HIT:          0 MISS:          0 MSHR_MERGE:          0
cpu0->cpu0_STLB PREFETCH     ACCESS:          0 HIT:          0 MISS:          0 MSHR_MERGE:          0
cpu0->cpu0_STLB WRITE        ACCESS:          0 HIT:          0 MISS:          0 MSHR_MERGE:          0
cpu0->cpu0_STLB TRANSLATION  ACCESS:          0 HIT:          0 MISS:          0 MSHR_MERGE:          0
cpu0->cpu0_STLB PREFETCH REQUESTED:          0 ISSUED:          0 USEFUL:          0 USELESS:          0 LATE:          0
cpu0->cpu0_STLB AVERAGE MISS LATENCY: 207.7 cycles
cpu0->cpu0_L2C TOTAL        ACCESS:   10255649 HIT:    2423225 MISS:    7832424 MSHR_MERGE:     770091
cpu0->cpu0_L2C LOAD         ACCESS:    4897030 HIT:     953949 MISS:    3943081 MSHR_MERGE:       7894
cpu0->cpu0_L2C RFO          ACCESS:      15284 HIT:       2716 MISS:      12568 MSHR_MERGE:          6
cpu0->cpu0_L2C PREFETCH     ACCESS:    5177867 HIT:    1321363 MISS:    3856504 MSHR_MERGE:     762191
cpu0->cpu0_L2C WRITE        ACCESS:     143709 HIT:     143707 MISS:          2 MSHR_MERGE:          0
cpu0->cpu0_L2C TRANSLATION  ACCESS:      21759 HIT:       1490 MISS:      20269 MSHR_MERGE:          0
cpu0->cpu0_L2C PREFETCH REQUESTED:    1606117 ISSUED:    1598995 USEFUL:     248252 USELESS:     162983 LATE:       1211
cpu0->cpu0_L2C AVERAGE MISS LATENCY: 52.21 cycles
cpu0->cpu0_L1I TOTAL        ACCESS:     654934 HIT:     654934 MISS:          0 MSHR_MERGE:          0
cpu0->cpu0_L1I LOAD         ACCESS:     654934 HIT:     654934 MISS:          0 MSHR_MERGE:          0
cpu0->cpu0_L1I RFO          ACCESS:          0 HIT:          0 MISS:          0 MSHR_MERGE:          0
cpu0->cpu0_L1I PREFETCH     ACCESS:          0 HIT:          0 MISS:          0 MSHR_MERGE:          0
cpu0->cpu0_L1I WRITE        ACCESS:          0 HIT:          0 MISS:          0 MSHR_MERGE:          0
cpu0->cpu0_L1I TRANSLATION  ACCESS:          0 HIT:          0 MISS:          0 MSHR_MERGE:          0
cpu0->cpu0_L1I PREFETCH REQUESTED:          0 ISSUED:          0 USEFUL:          0 USELESS:          0 LATE:          0
cpu0->cpu0_L1I AVERAGE MISS LATENCY: - cycles
cpu0->cpu0_L1D TOTAL        ACCESS:   32877551 HIT:   24103855 MISS:    8773696 MSHR_MERGE:     236388
cpu0->cpu0_L1D LOAD         ACCESS:   12322615 HIT:    7236122 MISS:    5086493 MSHR_MERGE:     189463
cpu0->cpu0_L1D RFO          ACCESS:          0 HIT:          0 MISS:          0 MSHR_MERGE:          0
cpu0->cpu0_L1D PREFETCH     ACCESS:   19439177 HIT:   15820569 MISS:    3618608 MSHR_MERGE:      15373
cpu0->cpu0_L1D WRITE        ACCESS:     995649 HIT:     948935 MISS:      46714 MSHR_MERGE:      31430
cpu0->cpu0_L1D TRANSLATION  ACCESS:     120110 HIT:      98229 MISS:      21881 MSHR_MERGE:        122
cpu0->cpu0_L1D PREFETCH REQUESTED:   47736193 ISSUED:   19439178 USEFUL:    2687533 USELESS:      27134 LATE:      48749
cpu0->cpu0_L1D AVERAGE MISS LATENCY: 51.66 cycles
cpu0->cpu0_ITLB TOTAL        ACCESS:     597544 HIT:     597544 MISS:          0 MSHR_MERGE:          0
cpu0->cpu0_ITLB LOAD         ACCESS:     597544 HIT:     597544 MISS:          0 MSHR_MERGE:          0
cpu0->cpu0_ITLB RFO          ACCESS:          0 HIT:          0 MISS:          0 MSHR_MERGE:          0
cpu0->cpu0_ITLB PREFETCH     ACCESS:          0 HIT:          0 MISS:          0 MSHR_MERGE:          0
cpu0->cpu0_ITLB WRITE        ACCESS:          0 HIT:          0 MISS:          0 MSHR_MERGE:          0
cpu0->cpu0_ITLB TRANSLATION  ACCESS:          0 HIT:          0 MISS:          0 MSHR_MERGE:          0
cpu0->cpu0_ITLB PREFETCH REQUESTED:          0 ISSUED:          0 USEFUL:          0 USELESS:          0 LATE:          0
cpu0->cpu0_ITLB AVERAGE MISS LATENCY: - cycles
cpu0->cpu0_DTLB TOTAL        ACCESS:   25527756 HIT:   20898196 MISS:    4629560 MSHR_MERGE:     244236
cpu0->cpu0_DTLB LOAD         ACCESS:   25527756 HIT:   20898196 MISS:    4629560 MSHR_MERGE:     244236
cpu0->cpu0_DTLB RFO          ACCESS:          0 HIT:          0 MISS:          0 MSHR_MERGE:          0
cpu0->cpu0_DTLB PREFETCH     ACCESS:          0 HIT:          0 MISS:          0 MSHR_MERGE:          0
cpu0->cpu0_DTLB WRITE        ACCESS:          0 HIT:          0 MISS:          0 MSHR_MERGE:          0
cpu0->cpu0_DTLB TRANSLATION  ACCESS:          0 HIT:          0 MISS:          0 MSHR_MERGE:          0
cpu0->cpu0_DTLB PREFETCH REQUESTED:          0 ISSUED:          0 USEFUL:          0 USELESS:          0 LATE:          0
cpu0->cpu0_DTLB AVERAGE MISS LATENCY: 7.853 cycles
cpu0->LLC TOTAL        ACCESS:    7195784 HIT:    3657694 MISS:    3538090 MSHR_MERGE:      25364
cpu0->LLC LOAD         ACCESS:    3935187 HIT:    3259590 MISS:     675597 MSHR_MERGE:        178
cpu0->LLC RFO          ACCESS:      12562 HIT:      11347 MISS:       1215 MSHR_MERGE:          0
cpu0->LLC PREFETCH     ACCESS:    3094309 HIT:     265587 MISS:    2828722 MSHR_MERGE:      25186
cpu0->LLC WRITE        ACCESS:     133457 HIT:     112430 MISS:      21027 MSHR_MERGE:          0
cpu0->LLC TRANSLATION  ACCESS:      20269 HIT:       8740 MISS:      11529 MSHR_MERGE:          0
cpu0->LLC PREFETCH REQUESTED:          0 ISSUED:          0 USEFUL:          0 USELESS:          0 LATE:          0
cpu0->LLC AVERAGE MISS LATENCY: 206.8 cycles

DRAM Statistics

Channel 0 RQ ROW_BUFFER_HIT:     712928
  ROW_BUFFER_MISS:    2778759
  AVG DBUS CONGESTED CYCLE: 6.732
Channel 0 WQ ROW_BUFFER_HIT:       8801
  ROW_BUFFER_MISS:      26085
  FULL:          0
Channel 0 REFRESHES ISSUED:      28052

[ROI Statistics]
[System Configuration]
num_cpus 1
cpu_freq 4000
fetch_width 6
decode_width 6
dispatch_width 6
execute_width 6
lq_width 2
sq_width 2
retire_width 6
scheduler_size 128
branch_mispredict_penalty 15
rob_size 352
lq_size 128
sq_size 72
ifetch_buffer_size 64
decode_buffer_size 32
dispatch_buffer_size 32
register_file_size 288
decode_latency 1
dispatch_latency 1
schedule_latency 1
execute_latency 1
page_size 4096
block_size 64
core_0_itlb_set 16
core_0_itlb_way 4
core_0_itlb_rq_size 16
core_0_itlb_wq_size 16
core_0_itlb_pq_size 0
core_0_itlb_mshr_size 8
core_0_itlb_hit_latency 1
core_0_itlb_fill_latency 1
core_0_itlb_max_tag_check 2
core_0_itlb_max_fill 2
core_0_dtlb_set 16
core_0_dtlb_way 4
core_0_dtlb_rq_size 16
core_0_dtlb_wq_size 16
core_0_dtlb_pq_size 0
core_0_dtlb_mshr_size 8
core_0_dtlb_hit_latency 1
core_0_dtlb_fill_latency 1
core_0_dtlb_max_tag_check 2
core_0_dtlb_max_fill 2
core_0_stlb_set 128
core_0_stlb_way 12
core_0_stlb_rq_size 32
core_0_stlb_wq_size 32
core_0_stlb_pq_size 0
core_0_stlb_mshr_size 16
core_0_stlb_hit_latency 4
core_0_stlb_fill_latency 4
core_0_stlb_max_tag_check 1
core_0_stlb_max_fill 1
core_0_l1i_set 64
core_0_l1i_way 8
core_0_l1i_rq_size 64
core_0_l1i_wq_size 64
core_0_l1i_pq_size 32
core_0_l1i_mshr_size 8
core_0_l1i_hit_latency 2
core_0_l1i_fill_latency 2
core_0_l1i_max_tag_check 2
core_0_l1i_max_fill 2
core_0_l1d_set 64
core_0_l1d_way 12
core_0_l1d_rq_size 64
core_0_l1d_wq_size 64
core_0_l1d_pq_size 8
core_0_l1d_mshr_size 16
core_0_l1d_hit_latency 2
core_0_l1d_fill_latency 3
core_0_l1d_max_tag_check 2
core_0_l1d_max_fill 2
core_0_l2c_set 1024
core_0_l2c_way 8
core_0_l2c_rq_size 32
core_0_l2c_wq_size 32
core_0_l2c_pq_size 16
core_0_l2c_mshr_size 32
core_0_l2c_hit_latency 5
core_0_l2c_fill_latency 5
core_0_l2c_max_tag_check 1
core_0_l2c_max_fill 1
llc_set 2048
llc_way 16
llc_rq_size 32
llc_wq_size 32
llc_pq_size 32
llc_mshr_size 64
llc_hit_latency 10
llc_fill_latency 10
llc_max_tag_check 1
llc_max_fill 1
dram_channels 1
dram_ranks 1
dram_bankgroups 8
dram_banks 4
dram_rows 65536
dram_columns 1024
dram_channel_width 8
dram_rq_size 64
dram_wq_size 64
dram_size 17179869184
core_0_itlb_prefetcher no
core_0_dtlb_prefetcher no
core_0_stlb_prefetcher no
core_0_l1i_prefetcher next_line
core_0_l1d_prefetcher vberti
core_0_l2c_prefetcher ip_stride
llc_prefetcher no
llc_replacement drrip

Core_0_instructions 50000000
Core_0_cycles 336625007
Core_0_IPC 0.148533
Core_0_branch_prediction_accuracy 85.3618
Core_0_branch_MPKI 44.4252
Core_0_average_ROB_occupancy_at_mispredict 4.15774

Core_0_ITLB_total_access 597544
Core_0_ITLB_total_hit 597544
Core_0_ITLB_total_miss 0
Core_0_ITLB_total_MPKI 0
Core_0_ITLB_total_miss_rate 0
Core_0_ITLB_demand_access 597544
Core_0_ITLB_demand_hit 597544
Core_0_ITLB_demand_miss 0
Core_0_ITLB_demand_MPKI 0
Core_0_ITLB_demand_miss_rate 0
Core_0_ITLB_load_access 597544
Core_0_ITLB_load_hit 597544
Core_0_ITLB_load_miss 0
Core_0_ITLB_load_MPKI 0
Core_0_ITLB_load_miss_rate 0
Core_0_ITLB_rfo_access 0
Core_0_ITLB_rfo_hit 0
Core_0_ITLB_rfo_miss 0
Core_0_ITLB_rfo_MPKI 0
Core_0_ITLB_rfo_miss_rate 0
Core_0_ITLB_prefetch_access 0
Core_0_ITLB_prefetch_hit 0
Core_0_ITLB_prefetch_miss 0
Core_0_ITLB_prefetch_MPKI 0
Core_0_ITLB_prefetch_miss_rate 0
Core_0_ITLB_writeback_access 0
Core_0_ITLB_writeback_hit 0
Core_0_ITLB_writeback_miss 0
Core_0_ITLB_writeback_MPKI 0
Core_0_ITLB_writeback_miss_rate 0
Core_0_ITLB_prefetch_requested 0
Core_0_ITLB_prefetch_issued 0
Core_0_ITLB_prefetch_useful 0
Core_0_ITLB_prefetch_useless 0
Core_0_ITLB_prefetch_late 0
Core_0_ITLB_prefetch_accuracy 0
Core_0_ITLB_prefetch_coverage 0

Core_0_DTLB_total_access 25527756
Core_0_DTLB_total_hit 20898196
Core_0_DTLB_total_miss 4629560
Core_0_DTLB_total_MPKI 92.5912
Core_0_DTLB_total_miss_rate 0.181354
Core_0_DTLB_demand_access 25527756
Core_0_DTLB_demand_hit 20898196
Core_0_DTLB_demand_miss 4629560
Core_0_DTLB_demand_MPKI 92.5912
Core_0_DTLB_demand_miss_rate 0.181354
Core_0_DTLB_load_access 25527756
Core_0_DTLB_load_hit 20898196
Core_0_DTLB_load_miss 4629560
Core_0_DTLB_load_MPKI 92.5912
Core_0_DTLB_load_miss_rate 0.181354
Core_0_DTLB_rfo_access 0
Core_0_DTLB_rfo_hit 0
Core_0_DTLB_rfo_miss 0
Core_0_DTLB_rfo_MPKI 0
Core_0_DTLB_rfo_miss_rate 0
Core_0_DTLB_prefetch_access 0
Core_0_DTLB_prefetch_hit 0
Core_0_DTLB_prefetch_miss 0
Core_0_DTLB_prefetch_MPKI 0
Core_0_DTLB_prefetch_miss_rate 0
Core_0_DTLB_writeback_access 0
Core_0_DTLB_writeback_hit 0
Core_0_DTLB_writeback_miss 0
Core_0_DTLB_writeback_MPKI 0
Core_0_DTLB_writeback_miss_rate 0
Core_0_DTLB_prefetch_requested 0
Core_0_DTLB_prefetch_issued 0
Core_0_DTLB_prefetch_useful 0
Core_0_DTLB_prefetch_useless 0
Core_0_DTLB_prefetch_late 0
Core_0_DTLB_prefetch_accuracy 0
Core_0_DTLB_prefetch_coverage 0

Core_0_STLB_total_access 4385324
Core_0_STLB_total_hit 4325440
Core_0_STLB_total_miss 59884
Core_0_STLB_total_MPKI 1.19768
Core_0_STLB_total_miss_rate 0.0136555
Core_0_STLB_demand_access 4385324
Core_0_STLB_demand_hit 4325440
Core_0_STLB_demand_miss 59884
Core_0_STLB_demand_MPKI 1.19768
Core_0_STLB_demand_miss_rate 0.0136555
Core_0_STLB_load_access 4385324
Core_0_STLB_load_hit 4325440
Core_0_STLB_load_miss 59884
Core_0_STLB_load_MPKI 1.19768
Core_0_STLB_load_miss_rate 0.0136555
Core_0_STLB_rfo_access 0
Core_0_STLB_rfo_hit 0
Core_0_STLB_rfo_miss 0
Core_0_STLB_rfo_MPKI 0
Core_0_STLB_rfo_miss_rate 0
Core_0_STLB_prefetch_access 0
Core_0_STLB_prefetch_hit 0
Core_0_STLB_prefetch_miss 0
Core_0_STLB_prefetch_MPKI 0
Core_0_STLB_prefetch_miss_rate 0
Core_0_STLB_writeback_access 0
Core_0_STLB_writeback_hit 0
Core_0_STLB_writeback_miss 0
Core_0_STLB_writeback_MPKI 0
Core_0_STLB_writeback_miss_rate 0
Core_0_STLB_prefetch_requested 0
Core_0_STLB_prefetch_issued 0
Core_0_STLB_prefetch_useful 0
Core_0_STLB_prefetch_useless 0
Core_0_STLB_prefetch_late 0
Core_0_STLB_prefetch_accuracy 0
Core_0_STLB_prefetch_coverage 0

Core_0_L1I_total_access 654934
Core_0_L1I_total_hit 654934
Core_0_L1I_total_miss 0
Core_0_L1I_total_MPKI 0
Core_0_L1I_total_miss_rate 0
Core_0_L1I_demand_access 654934
Core_0_L1I_demand_hit 654934
Core_0_L1I_demand_miss 0
Core_0_L1I_demand_MPKI 0
Core_0_L1I_demand_miss_rate 0
Core_0_L1I_load_access 654934
Core_0_L1I_load_hit 654934
Core_0_L1I_load_miss 0
Core_0_L1I_load_MPKI 0
Core_0_L1I_load_miss_rate 0
Core_0_L1I_rfo_access 0
Core_0_L1I_rfo_hit 0
Core_0_L1I_rfo_miss 0
Core_0_L1I_rfo_MPKI 0
Core_0_L1I_rfo_miss_rate 0
Core_0_L1I_prefetch_access 0
Core_0_L1I_prefetch_hit 0
Core_0_L1I_prefetch_miss 0
Core_0_L1I_prefetch_MPKI 0
Core_0_L1I_prefetch_miss_rate 0
Core_0_L1I_writeback_access 0
Core_0_L1I_writeback_hit 0
Core_0_L1I_writeback_miss 0
Core_0_L1I_writeback_MPKI 0
Core_0_L1I_writeback_miss_rate 0
Core_0_L1I_prefetch_requested 0
Core_0_L1I_prefetch_issued 0
Core_0_L1I_prefetch_useful 0
Core_0_L1I_prefetch_useless 0
Core_0_L1I_prefetch_late 0
Core_0_L1I_prefetch_accuracy 0
Core_0_L1I_prefetch_coverage 0

Core_0_L1D_total_access 32757441
Core_0_L1D_total_hit 24005626
Core_0_L1D_total_miss 8751815
Core_0_L1D_total_MPKI 175.036
Core_0_L1D_total_miss_rate 0.26717
Core_0_L1D_demand_access 12322615
Core_0_L1D_demand_hit 7236122
Core_0_L1D_demand_miss 5086493
Core_0_L1D_demand_MPKI 101.73
Core_0_L1D_demand_miss_rate 0.412777
Core_0_L1D_load_access 12322615
Core_0_L1D_load_hit 7236122
Core_0_L1D_load_miss 5086493
Core_0_L1D_load_MPKI 101.73
Core_0_L1D_load_miss_rate 0.412777
Core_0_L1D_rfo_access 0
Core_0_L1D_rfo_hit 0
Core_0_L1D_rfo_miss 0
Core_0_L1D_rfo_MPKI 0
Core_0_L1D_rfo_miss_rate 0
Core_0_L1D_prefetch_access 19439177
Core_0_L1D_prefetch_hit 15820569
Core_0_L1D_prefetch_miss 3618608
Core_0_L1D_prefetch_MPKI 72.3722
Core_0_L1D_prefetch_miss_rate 0.18615
Core_0_L1D_writeback_access 995649
Core_0_L1D_writeback_hit 948935
Core_0_L1D_writeback_miss 46714
Core_0_L1D_writeback_MPKI 0.93428
Core_0_L1D_writeback_miss_rate 0.0469181
Core_0_L1D_prefetch_requested 47736193
Core_0_L1D_prefetch_issued 19439178
Core_0_L1D_prefetch_useful 2687533
Core_0_L1D_prefetch_useless 27134
Core_0_L1D_prefetch_late 48749
Core_0_L1D_prefetch_accuracy 0.138253
Core_0_L1D_prefetch_coverage 0.345707

Core_0_L2C_total_access 10233890
Core_0_L2C_total_hit 2421735
Core_0_L2C_total_miss 7812155
Core_0_L2C_total_MPKI 156.243
Core_0_L2C_total_miss_rate 0.763361
Core_0_L2C_demand_access 4912314
Core_0_L2C_demand_hit 956665
Core_0_L2C_demand_miss 3955649
Core_0_L2C_demand_MPKI 79.113
Core_0_L2C_demand_miss_rate 0.805252
Core_0_L2C_load_access 4897030
Core_0_L2C_load_hit 953949
Core_0_L2C_load_miss 3943081
Core_0_L2C_load_MPKI 78.8616
Core_0_L2C_load_miss_rate 0.805198
Core_0_L2C_rfo_access 15284
Core_0_L2C_rfo_hit 2716
Core_0_L2C_rfo_miss 12568
Core_0_L2C_rfo_MPKI 0.25136
Core_0_L2C_rfo_miss_rate 0.822298
Core_0_L2C_prefetch_access 5177867
Core_0_L2C_prefetch_hit 1321363
Core_0_L2C_prefetch_miss 3856504
Core_0_L2C_prefetch_MPKI 77.1301
Core_0_L2C_prefetch_miss_rate 0.744806
Core_0_L2C_writeback_access 143709
Core_0_L2C_writeback_hit 143707
Core_0_L2C_writeback_miss 2
Core_0_L2C_writeback_MPKI 4e-05
Core_0_L2C_writeback_miss_rate 1.3917e-05
Core_0_L2C_prefetch_requested 1606117
Core_0_L2C_prefetch_issued 1598995
Core_0_L2C_prefetch_useful 248252
Core_0_L2C_prefetch_useless 162983
Core_0_L2C_prefetch_late 1211
Core_0_L2C_prefetch_accuracy 0.155255
Core_0_L2C_prefetch_coverage 0.0590528

Core_0_LLC_total_access 7175515
Core_0_LLC_total_hit 3648954
Core_0_LLC_total_miss 3526561
Core_0_LLC_total_MPKI 70.5312
Core_0_LLC_total_miss_rate 0.491471
Core_0_LLC_demand_access 3947749
Core_0_LLC_demand_hit 3270937
Core_0_LLC_demand_miss 676812
Core_0_LLC_demand_MPKI 13.5362
Core_0_LLC_demand_miss_rate 0.171443
Core_0_LLC_load_access 3935187
Core_0_LLC_load_hit 3259590
Core_0_LLC_load_miss 675597
Core_0_LLC_load_MPKI 13.5119
Core_0_LLC_load_miss_rate 0.171681
Core_0_LLC_rfo_access 12562
Core_0_LLC_rfo_hit 11347
Core_0_LLC_rfo_miss 1215
Core_0_LLC_rfo_MPKI 0.0243
Core_0_LLC_rfo_miss_rate 0.0967203
Core_0_LLC_prefetch_access 3094309
Core_0_LLC_prefetch_hit 265587
Core_0_LLC_prefetch_miss 2828722
Core_0_LLC_prefetch_MPKI 56.5744
Core_0_LLC_prefetch_miss_rate 0.914169
Core_0_LLC_writeback_access 133457
Core_0_LLC_writeback_hit 112430
Core_0_LLC_writeback_miss 21027
Core_0_LLC_writeback_MPKI 0.42054
Core_0_LLC_writeback_miss_rate 0.157556
Core_0_LLC_prefetch_requested 0
Core_0_LLC_prefetch_issued 0
Core_0_LLC_prefetch_useful 0
Core_0_LLC_prefetch_useless 0
Core_0_LLC_prefetch_late 0
Core_0_LLC_prefetch_accuracy 0
Core_0_LLC_prefetch_coverage 0

[DRAM Statistics]
Channel_0_RQ_row_buffer_hit 712928
Channel_0_RQ_row_buffer_miss 2778759
Channel_0_WQ_row_buffer_hit 8801
Channel_0_WQ_row_buffer_miss 26085
Channel_0_WQ_full 0
Channel_0_dbus_congested 5273618
DRAM_total_RQ_row_buffer_hit 712928
DRAM_total_RQ_row_buffer_miss 2778759
DRAM_total_WQ_row_buffer_hit 8801
DRAM_total_WQ_row_buffer_miss 26085
DRAM_total_WQ_full 0
DRAM_total_dbus_congested 5273618
DRAM_avg_congested_cycle 6.73181

====== DRAM_RQ_TRAFFIC ========
DRAM_RQ_READ_TRAFFIC_BREAKDOWN:
data_demand_read.count = 676634
data_demand_read.share = 19.38%

inst_demand_read.count = 0
inst_demand_read.share = 0.00%

cache_inst_prefetch.count = 0
cache_inst_prefetch.share = 0.00%

cache_data_prefetch.count = 2803536
cache_data_prefetch.share = 80.29%

stlb_data_demand.count = 5839
stlb_data_demand.share = 0.17%

stlb_inst_demand.count = 0
stlb_inst_demand.share = 0.00%

stlb_l1i_pref.count = 0
stlb_l1i_pref.share = 0.00%

stlb_l1d_pref.count = 5690
stlb_l1d_pref.share = 0.16%

DRAM_RQ_READ_TRAFFIC_SUMMARY:
cache_demand.count = 676634
cache_demand.share = 19.38%

cache_prefetch.count = 2803536
cache_prefetch.share = 80.29%

stlb_demand.count = 5839
stlb_demand.share = 0.17%

stlb_prefetch.count = 5690
stlb_prefetch.share = 0.16%

DRAM_RQ_READ_TRAFFIC_DEBUG:
total_classified_read.count = 3491699
unclassified_read.count = 0
total_read_with_other.count = 3491699

classified_plus_unclassified_check.count = 3491699
dram_rq_read_total_observed.count = 3491699
dram_rq_read_total_observed.per_1K_instructions = 69.834

STLB_MISS_PTW_DRAM_TOUCH_BREAKDOWN:
stlb_miss_total.count = 59884

stlb_miss_touch_dram.count = 11103
stlb_miss_touch_dram.share = 18.54%

stlb_miss_no_dram_touch.count = 48781
stlb_miss_no_dram_touch.share = 81.46%

STLB_MISS_PTW_DRAM_TOUCH_DEBUG:
stlb_miss_touch_plus_no_touch.count = 59884
stlb_miss_total_check.count = 59884

======STLB miss causes ========
Core_0_STLB_miss_cause_breakdown
Core_0_STLB_cause_Demand_Data_miss 15826
Core_0_STLB_cause_Demand_Data_miss_rate 0.00360886
Core_0_STLB_cause_Demand_Instruction_miss 0
Core_0_STLB_cause_Demand_Instruction_miss_rate 0
Core_0_STLB_cause_L1D_Prefetch_miss 44058
Core_0_STLB_cause_L1D_Prefetch_miss_rate 0.0100467
Core_0_STLB_cause_L1I_Prefetch_miss 0
Core_0_STLB_cause_L1I_Prefetch_miss_rate 0
Core_0_STLB_cause_Other_miss 0
Core_0_STLB_cause_Other_miss_rate 0
Core_0_STLB_Demand_miss 15826
Core_0_STLB_Demand_miss_rate 0.00360886
Core_0_STLB_L1D_Prefetch_miss 44058
Core_0_STLB_L1D_Prefetch_miss_rate 0.0100467
Core_0_STLB_Other_miss 0
Core_0_STLB_Other_miss_rate 0
BERTI TO_L1: 46221121 TO_L2: 9566317 TO_L2_BC_MSHR: 1125573
BERTI AVG_LAT: 74.4702 NUM_TRACK_LATENCY: 10499601 NUM_CANT_TRACK_LATENCY: 0
BERTI CROSS_PAGE 18477996 NO_CROSS_PAGE: 37309442
BERTI FOUND_BERTI: 16904203 NO_FOUND_BERTI: 2150268
BERTI AVERAGE_ISSUED: 4.22306
