[VMEM] WARNING: physical memory size is smaller than virtual memory size.

*** ChampSim Multicore Out-of-Order Simulator ***
Warmup Instructions: 20000000
Simulation Instructions: 50000000
Number of CPUs: 1
Page size: 4096
Core 0: /data0/tzh/champsim_traces/SPEC17/623.xalancbmk_s-592B.champsimtrace.xz
VBerti Prefetcher
BERTI HASH ENTANGLING
BERTI IP MASK ffff
Off-chip DRAM Size: 16 GiB Channels: 1 Width: 64-bit Data Rate: 3205 MT/s
Warmup halting CPU 0 at instruction 20000003 cycle 4641042 for remainder of phase
Warmup finished CPU 0 instructions: 20000003 cycles: 4641042 cumulative IPC: 4.309 (Simulation time: 00 hr 00 min 58 sec)
Warmup complete CPU 0 instructions: 20000003 cycles: 4641042 cumulative IPC: 4.309 (Simulation time: 00 hr 00 min 58 sec)
Simulation finished CPU 0 instructions: 50000000 cycles: 47930820 cumulative IPC: 1.043 (Simulation time: 00 hr 07 min 15 sec)
Simulation complete CPU 0 instructions: 50000000 cycles: 47930820 cumulative IPC: 1.043 (Simulation time: 00 hr 07 min 15 sec)

ChampSim completed all CPUs

=== Simulation ===
CPU 0 runs /data0/tzh/champsim_traces/SPEC17/623.xalancbmk_s-592B.champsimtrace.xz

Region of Interest Statistics

CPU 0 cumulative IPC: 1.043 instructions: 50000000 cycles: 47930820
CPU 0 Branch Prediction Accuracy: 97.13% MPKI: 7.59 Average ROB Occupancy at Mispredict: 44.84
Branch type MPKI
BRANCH_DIRECT_JUMP: 0.1648
BRANCH_INDIRECT: 0.5087
BRANCH_CONDITIONAL: 4.263
BRANCH_DIRECT_CALL: 0.0076
BRANCH_INDIRECT_CALL: 0.5543
BRANCH_RETURN: 2.092

cpu0->cpu0_STLB TOTAL        ACCESS:    1241908 HIT:    1168474 MISS:      73434 MSHR_MERGE:          0
cpu0->cpu0_STLB LOAD         ACCESS:    1241908 HIT:    1168474 MISS:      73434 MSHR_MERGE:          0
cpu0->cpu0_STLB RFO          ACCESS:          0 HIT:          0 MISS:          0 MSHR_MERGE:          0
cpu0->cpu0_STLB PREFETCH     ACCESS:          0 HIT:          0 MISS:          0 MSHR_MERGE:          0
cpu0->cpu0_STLB WRITE        ACCESS:          0 HIT:          0 MISS:          0 MSHR_MERGE:          0
cpu0->cpu0_STLB TRANSLATION  ACCESS:          0 HIT:          0 MISS:          0 MSHR_MERGE:          0
cpu0->cpu0_STLB PREFETCH REQUESTED:          0 ISSUED:          0 USEFUL:          0 USELESS:          0 LATE:          0
cpu0->cpu0_STLB AVERAGE MISS LATENCY: 26.02 cycles
cpu0->cpu0_L2C TOTAL        ACCESS:    3326516 HIT:    3064146 MISS:     262370 MSHR_MERGE:      22556
cpu0->cpu0_L2C LOAD         ACCESS:    2236917 HIT:    2133100 MISS:     103817 MSHR_MERGE:         89
cpu0->cpu0_L2C RFO          ACCESS:     123981 HIT:      30104 MISS:      93877 MSHR_MERGE:       5877
cpu0->cpu0_L2C PREFETCH     ACCESS:     719653 HIT:     661147 MISS:      58506 MSHR_MERGE:      16590
cpu0->cpu0_L2C WRITE        ACCESS:     177410 HIT:     177409 MISS:          1 MSHR_MERGE:          0
cpu0->cpu0_L2C TRANSLATION  ACCESS:      68555 HIT:      62386 MISS:       6169 MSHR_MERGE:          0
cpu0->cpu0_L2C PREFETCH REQUESTED:     250440 ISSUED:     235674 USEFUL:       5195 USELESS:       2268 LATE:        709
cpu0->cpu0_L2C AVERAGE MISS LATENCY: 105.9 cycles
cpu0->cpu0_L1I TOTAL        ACCESS:    9112692 HIT:    8851148 MISS:     261544 MSHR_MERGE:      78689
cpu0->cpu0_L1I LOAD         ACCESS:    9112692 HIT:    8851148 MISS:     261544 MSHR_MERGE:      78689
cpu0->cpu0_L1I RFO          ACCESS:          0 HIT:          0 MISS:          0 MSHR_MERGE:          0
cpu0->cpu0_L1I PREFETCH     ACCESS:          0 HIT:          0 MISS:          0 MSHR_MERGE:          0
cpu0->cpu0_L1I WRITE        ACCESS:          0 HIT:          0 MISS:          0 MSHR_MERGE:          0
cpu0->cpu0_L1I TRANSLATION  ACCESS:          0 HIT:          0 MISS:          0 MSHR_MERGE:          0
cpu0->cpu0_L1I PREFETCH REQUESTED:          0 ISSUED:          0 USEFUL:          0 USELESS:          0 LATE:          0
cpu0->cpu0_L1I AVERAGE MISS LATENCY: 8.57 cycles
cpu0->cpu0_L1D TOTAL        ACCESS:   17121271 HIT:   13565634 MISS:    3555637 MSHR_MERGE:     819432
cpu0->cpu0_L1D LOAD         ACCESS:    8957098 HIT:    6456603 MISS:    2500495 MSHR_MERGE:     446434
cpu0->cpu0_L1D RFO          ACCESS:          0 HIT:          0 MISS:          0 MSHR_MERGE:          0
cpu0->cpu0_L1D PREFETCH     ACCESS:    3126244 HIT:    2617920 MISS:     508324 MSHR_MERGE:      18717
cpu0->cpu0_L1D WRITE        ACCESS:    4890853 HIT:    4412785 MISS:     478068 MSHR_MERGE:     354086
cpu0->cpu0_L1D TRANSLATION  ACCESS:     147076 HIT:      78326 MISS:      68750 MSHR_MERGE:        195
cpu0->cpu0_L1D PREFETCH REQUESTED:    8958545 ISSUED:    3126255 USEFUL:     122806 USELESS:      16083 LATE:       2935
cpu0->cpu0_L1D AVERAGE MISS LATENCY: 17.82 cycles
cpu0->cpu0_ITLB TOTAL        ACCESS:    8378124 HIT:    8314658 MISS:      63466 MSHR_MERGE:      36590
cpu0->cpu0_ITLB LOAD         ACCESS:    8378124 HIT:    8314658 MISS:      63466 MSHR_MERGE:      36590
cpu0->cpu0_ITLB RFO          ACCESS:          0 HIT:          0 MISS:          0 MSHR_MERGE:          0
cpu0->cpu0_ITLB PREFETCH     ACCESS:          0 HIT:          0 MISS:          0 MSHR_MERGE:          0
cpu0->cpu0_ITLB WRITE        ACCESS:          0 HIT:          0 MISS:          0 MSHR_MERGE:          0
cpu0->cpu0_ITLB TRANSLATION  ACCESS:          0 HIT:          0 MISS:          0 MSHR_MERGE:          0
cpu0->cpu0_ITLB PREFETCH REQUESTED:          0 ISSUED:          0 USEFUL:          0 USELESS:          0 LATE:          0
cpu0->cpu0_ITLB AVERAGE MISS LATENCY: 7.057 cycles
cpu0->cpu0_DTLB TOTAL        ACCESS:   15125545 HIT:   13291965 MISS:    1833580 MSHR_MERGE:     618548
cpu0->cpu0_DTLB LOAD         ACCESS:   15125545 HIT:   13291965 MISS:    1833580 MSHR_MERGE:     618548
cpu0->cpu0_DTLB RFO          ACCESS:          0 HIT:          0 MISS:          0 MSHR_MERGE:          0
cpu0->cpu0_DTLB PREFETCH     ACCESS:          0 HIT:          0 MISS:          0 MSHR_MERGE:          0
cpu0->cpu0_DTLB WRITE        ACCESS:          0 HIT:          0 MISS:          0 MSHR_MERGE:          0
cpu0->cpu0_DTLB TRANSLATION  ACCESS:          0 HIT:          0 MISS:          0 MSHR_MERGE:          0
cpu0->cpu0_DTLB PREFETCH REQUESTED:          0 ISSUED:          0 USEFUL:          0 USELESS:          0 LATE:          0
cpu0->cpu0_DTLB AVERAGE MISS LATENCY: 6.588 cycles
cpu0->LLC TOTAL        ACCESS:     360402 HIT:     205989 MISS:     154413 MSHR_MERGE:       2555
cpu0->LLC LOAD         ACCESS:     103728 HIT:      94058 MISS:       9670 MSHR_MERGE:         14
cpu0->LLC RFO          ACCESS:      88000 HIT:       7182 MISS:      80818 MSHR_MERGE:        153
cpu0->LLC PREFETCH     ACCESS:      41910 HIT:       8730 MISS:      33180 MSHR_MERGE:       2388
cpu0->LLC WRITE        ACCESS:     120595 HIT:      90474 MISS:      30121 MSHR_MERGE:          0
cpu0->LLC TRANSLATION  ACCESS:       6169 HIT:       5545 MISS:        624 MSHR_MERGE:          0
cpu0->LLC PREFETCH REQUESTED:          0 ISSUED:          0 USEFUL:          0 USELESS:          0 LATE:          0
cpu0->LLC AVERAGE MISS LATENCY: 147 cycles

DRAM Statistics

Channel 0 RQ ROW_BUFFER_HIT:      12264
  ROW_BUFFER_MISS:     109473
  AVG DBUS CONGESTED CYCLE: 5.328
Channel 0 WQ ROW_BUFFER_HIT:       6114
  ROW_BUFFER_MISS:      82927
  FULL:          0
Channel 0 REFRESHES ISSUED:       3994

[ROI Statistics]
[System Configuration]
num_cpus 1
cpu_freq 4000
fetch_width 6
decode_width 6
dispatch_width 6
execute_width 6
lq_width 2
sq_width 2
retire_width 6
scheduler_size 128
branch_mispredict_penalty 15
rob_size 352
lq_size 128
sq_size 72
ifetch_buffer_size 64
decode_buffer_size 32
dispatch_buffer_size 32
register_file_size 288
decode_latency 1
dispatch_latency 1
schedule_latency 1
execute_latency 1
page_size 4096
block_size 64
core_0_itlb_set 16
core_0_itlb_way 4
core_0_itlb_rq_size 16
core_0_itlb_wq_size 16
core_0_itlb_pq_size 0
core_0_itlb_mshr_size 8
core_0_itlb_hit_latency 1
core_0_itlb_fill_latency 1
core_0_itlb_max_tag_check 2
core_0_itlb_max_fill 2
core_0_dtlb_set 16
core_0_dtlb_way 4
core_0_dtlb_rq_size 16
core_0_dtlb_wq_size 16
core_0_dtlb_pq_size 0
core_0_dtlb_mshr_size 8
core_0_dtlb_hit_latency 1
core_0_dtlb_fill_latency 1
core_0_dtlb_max_tag_check 2
core_0_dtlb_max_fill 2
core_0_stlb_set 128
core_0_stlb_way 12
core_0_stlb_rq_size 32
core_0_stlb_wq_size 32
core_0_stlb_pq_size 0
core_0_stlb_mshr_size 16
core_0_stlb_hit_latency 4
core_0_stlb_fill_latency 4
core_0_stlb_max_tag_check 1
core_0_stlb_max_fill 1
core_0_l1i_set 64
core_0_l1i_way 8
core_0_l1i_rq_size 64
core_0_l1i_wq_size 64
core_0_l1i_pq_size 32
core_0_l1i_mshr_size 8
core_0_l1i_hit_latency 2
core_0_l1i_fill_latency 2
core_0_l1i_max_tag_check 2
core_0_l1i_max_fill 2
core_0_l1d_set 64
core_0_l1d_way 12
core_0_l1d_rq_size 64
core_0_l1d_wq_size 64
core_0_l1d_pq_size 8
core_0_l1d_mshr_size 16
core_0_l1d_hit_latency 2
core_0_l1d_fill_latency 3
core_0_l1d_max_tag_check 2
core_0_l1d_max_fill 2
core_0_l2c_set 1024
core_0_l2c_way 8
core_0_l2c_rq_size 32
core_0_l2c_wq_size 32
core_0_l2c_pq_size 16
core_0_l2c_mshr_size 32
core_0_l2c_hit_latency 5
core_0_l2c_fill_latency 5
core_0_l2c_max_tag_check 1
core_0_l2c_max_fill 1
llc_set 2048
llc_way 16
llc_rq_size 32
llc_wq_size 32
llc_pq_size 32
llc_mshr_size 64
llc_hit_latency 10
llc_fill_latency 10
llc_max_tag_check 1
llc_max_fill 1
dram_channels 1
dram_ranks 1
dram_bankgroups 8
dram_banks 4
dram_rows 65536
dram_columns 1024
dram_channel_width 8
dram_rq_size 64
dram_wq_size 64
dram_size 17179869184
core_0_itlb_prefetcher no
core_0_dtlb_prefetcher no
core_0_stlb_prefetcher no
core_0_l1i_prefetcher next_line
core_0_l1d_prefetcher vberti
core_0_l2c_prefetcher ip_stride
llc_prefetcher no
llc_replacement drrip

Core_0_instructions 50000000
Core_0_cycles 47930820
Core_0_IPC 1.04317
Core_0_branch_prediction_accuracy 97.1281
Core_0_branch_MPKI 7.59034
Core_0_average_ROB_occupancy_at_mispredict 44.8396

Core_0_ITLB_total_access 8378124
Core_0_ITLB_total_hit 8314658
Core_0_ITLB_total_miss 63466
Core_0_ITLB_total_MPKI 1.26932
Core_0_ITLB_total_miss_rate 0.0075752
Core_0_ITLB_demand_access 8378124
Core_0_ITLB_demand_hit 8314658
Core_0_ITLB_demand_miss 63466
Core_0_ITLB_demand_MPKI 1.26932
Core_0_ITLB_demand_miss_rate 0.0075752
Core_0_ITLB_load_access 8378124
Core_0_ITLB_load_hit 8314658
Core_0_ITLB_load_miss 63466
Core_0_ITLB_load_MPKI 1.26932
Core_0_ITLB_load_miss_rate 0.0075752
Core_0_ITLB_rfo_access 0
Core_0_ITLB_rfo_hit 0
Core_0_ITLB_rfo_miss 0
Core_0_ITLB_rfo_MPKI 0
Core_0_ITLB_rfo_miss_rate 0
Core_0_ITLB_prefetch_access 0
Core_0_ITLB_prefetch_hit 0
Core_0_ITLB_prefetch_miss 0
Core_0_ITLB_prefetch_MPKI 0
Core_0_ITLB_prefetch_miss_rate 0
Core_0_ITLB_writeback_access 0
Core_0_ITLB_writeback_hit 0
Core_0_ITLB_writeback_miss 0
Core_0_ITLB_writeback_MPKI 0
Core_0_ITLB_writeback_miss_rate 0
Core_0_ITLB_prefetch_requested 0
Core_0_ITLB_prefetch_issued 0
Core_0_ITLB_prefetch_useful 0
Core_0_ITLB_prefetch_useless 0
Core_0_ITLB_prefetch_late 0
Core_0_ITLB_prefetch_accuracy 0
Core_0_ITLB_prefetch_coverage 0

Core_0_DTLB_total_access 15125545
Core_0_DTLB_total_hit 13291965
Core_0_DTLB_total_miss 1833580
Core_0_DTLB_total_MPKI 36.6716
Core_0_DTLB_total_miss_rate 0.121224
Core_0_DTLB_demand_access 15125545
Core_0_DTLB_demand_hit 13291965
Core_0_DTLB_demand_miss 1833580
Core_0_DTLB_demand_MPKI 36.6716
Core_0_DTLB_demand_miss_rate 0.121224
Core_0_DTLB_load_access 15125545
Core_0_DTLB_load_hit 13291965
Core_0_DTLB_load_miss 1833580
Core_0_DTLB_load_MPKI 36.6716
Core_0_DTLB_load_miss_rate 0.121224
Core_0_DTLB_rfo_access 0
Core_0_DTLB_rfo_hit 0
Core_0_DTLB_rfo_miss 0
Core_0_DTLB_rfo_MPKI 0
Core_0_DTLB_rfo_miss_rate 0
Core_0_DTLB_prefetch_access 0
Core_0_DTLB_prefetch_hit 0
Core_0_DTLB_prefetch_miss 0
Core_0_DTLB_prefetch_MPKI 0
Core_0_DTLB_prefetch_miss_rate 0
Core_0_DTLB_writeback_access 0
Core_0_DTLB_writeback_hit 0
Core_0_DTLB_writeback_miss 0
Core_0_DTLB_writeback_MPKI 0
Core_0_DTLB_writeback_miss_rate 0
Core_0_DTLB_prefetch_requested 0
Core_0_DTLB_prefetch_issued 0
Core_0_DTLB_prefetch_useful 0
Core_0_DTLB_prefetch_useless 0
Core_0_DTLB_prefetch_late 0
Core_0_DTLB_prefetch_accuracy 0
Core_0_DTLB_prefetch_coverage 0

Core_0_STLB_total_access 1241908
Core_0_STLB_total_hit 1168474
Core_0_STLB_total_miss 73434
Core_0_STLB_total_MPKI 1.46868
Core_0_STLB_total_miss_rate 0.05913
Core_0_STLB_demand_access 1241908
Core_0_STLB_demand_hit 1168474
Core_0_STLB_demand_miss 73434
Core_0_STLB_demand_MPKI 1.46868
Core_0_STLB_demand_miss_rate 0.05913
Core_0_STLB_load_access 1241908
Core_0_STLB_load_hit 1168474
Core_0_STLB_load_miss 73434
Core_0_STLB_load_MPKI 1.46868
Core_0_STLB_load_miss_rate 0.05913
Core_0_STLB_rfo_access 0
Core_0_STLB_rfo_hit 0
Core_0_STLB_rfo_miss 0
Core_0_STLB_rfo_MPKI 0
Core_0_STLB_rfo_miss_rate 0
Core_0_STLB_prefetch_access 0
Core_0_STLB_prefetch_hit 0
Core_0_STLB_prefetch_miss 0
Core_0_STLB_prefetch_MPKI 0
Core_0_STLB_prefetch_miss_rate 0
Core_0_STLB_writeback_access 0
Core_0_STLB_writeback_hit 0
Core_0_STLB_writeback_miss 0
Core_0_STLB_writeback_MPKI 0
Core_0_STLB_writeback_miss_rate 0
Core_0_STLB_prefetch_requested 0
Core_0_STLB_prefetch_issued 0
Core_0_STLB_prefetch_useful 0
Core_0_STLB_prefetch_useless 0
Core_0_STLB_prefetch_late 0
Core_0_STLB_prefetch_accuracy 0
Core_0_STLB_prefetch_coverage 0

Core_0_L1I_total_access 9112692
Core_0_L1I_total_hit 8851148
Core_0_L1I_total_miss 261544
Core_0_L1I_total_MPKI 5.23088
Core_0_L1I_total_miss_rate 0.0287011
Core_0_L1I_demand_access 9112692
Core_0_L1I_demand_hit 8851148
Core_0_L1I_demand_miss 261544
Core_0_L1I_demand_MPKI 5.23088
Core_0_L1I_demand_miss_rate 0.0287011
Core_0_L1I_load_access 9112692
Core_0_L1I_load_hit 8851148
Core_0_L1I_load_miss 261544
Core_0_L1I_load_MPKI 5.23088
Core_0_L1I_load_miss_rate 0.0287011
Core_0_L1I_rfo_access 0
Core_0_L1I_rfo_hit 0
Core_0_L1I_rfo_miss 0
Core_0_L1I_rfo_MPKI 0
Core_0_L1I_rfo_miss_rate 0
Core_0_L1I_prefetch_access 0
Core_0_L1I_prefetch_hit 0
Core_0_L1I_prefetch_miss 0
Core_0_L1I_prefetch_MPKI 0
Core_0_L1I_prefetch_miss_rate 0
Core_0_L1I_writeback_access 0
Core_0_L1I_writeback_hit 0
Core_0_L1I_writeback_miss 0
Core_0_L1I_writeback_MPKI 0
Core_0_L1I_writeback_miss_rate 0
Core_0_L1I_prefetch_requested 0
Core_0_L1I_prefetch_issued 0
Core_0_L1I_prefetch_useful 0
Core_0_L1I_prefetch_useless 0
Core_0_L1I_prefetch_late 0
Core_0_L1I_prefetch_accuracy 0
Core_0_L1I_prefetch_coverage 0

Core_0_L1D_total_access 16974195
Core_0_L1D_total_hit 13487308
Core_0_L1D_total_miss 3486887
Core_0_L1D_total_MPKI 69.7377
Core_0_L1D_total_miss_rate 0.205423
Core_0_L1D_demand_access 8957098
Core_0_L1D_demand_hit 6456603
Core_0_L1D_demand_miss 2500495
Core_0_L1D_demand_MPKI 50.0099
Core_0_L1D_demand_miss_rate 0.279164
Core_0_L1D_load_access 8957098
Core_0_L1D_load_hit 6456603
Core_0_L1D_load_miss 2500495
Core_0_L1D_load_MPKI 50.0099
Core_0_L1D_load_miss_rate 0.279164
Core_0_L1D_rfo_access 0
Core_0_L1D_rfo_hit 0
Core_0_L1D_rfo_miss 0
Core_0_L1D_rfo_MPKI 0
Core_0_L1D_rfo_miss_rate 0
Core_0_L1D_prefetch_access 3126244
Core_0_L1D_prefetch_hit 2617920
Core_0_L1D_prefetch_miss 508324
Core_0_L1D_prefetch_MPKI 10.1665
Core_0_L1D_prefetch_miss_rate 0.162599
Core_0_L1D_writeback_access 4890853
Core_0_L1D_writeback_hit 4412785
Core_0_L1D_writeback_miss 478068
Core_0_L1D_writeback_MPKI 9.56136
Core_0_L1D_writeback_miss_rate 0.0977474
Core_0_L1D_prefetch_requested 8958545
Core_0_L1D_prefetch_issued 3126255
Core_0_L1D_prefetch_useful 122806
Core_0_L1D_prefetch_useless 16083
Core_0_L1D_prefetch_late 2935
Core_0_L1D_prefetch_accuracy 0.0392821
Core_0_L1D_prefetch_coverage 0.0468135

Core_0_L2C_total_access 3257961
Core_0_L2C_total_hit 3001760
Core_0_L2C_total_miss 256201
Core_0_L2C_total_MPKI 5.12402
Core_0_L2C_total_miss_rate 0.0786384
Core_0_L2C_demand_access 2360898
Core_0_L2C_demand_hit 2163204
Core_0_L2C_demand_miss 197694
Core_0_L2C_demand_MPKI 3.95388
Core_0_L2C_demand_miss_rate 0.0837368
Core_0_L2C_load_access 2236917
Core_0_L2C_load_hit 2133100
Core_0_L2C_load_miss 103817
Core_0_L2C_load_MPKI 2.07634
Core_0_L2C_load_miss_rate 0.0464108
Core_0_L2C_rfo_access 123981
Core_0_L2C_rfo_hit 30104
Core_0_L2C_rfo_miss 93877
Core_0_L2C_rfo_MPKI 1.87754
Core_0_L2C_rfo_miss_rate 0.757189
Core_0_L2C_prefetch_access 719653
Core_0_L2C_prefetch_hit 661147
Core_0_L2C_prefetch_miss 58506
Core_0_L2C_prefetch_MPKI 1.17012
Core_0_L2C_prefetch_miss_rate 0.0812975
Core_0_L2C_writeback_access 177410
Core_0_L2C_writeback_hit 177409
Core_0_L2C_writeback_miss 1
Core_0_L2C_writeback_MPKI 2e-05
Core_0_L2C_writeback_miss_rate 5.63666e-06
Core_0_L2C_prefetch_requested 250440
Core_0_L2C_prefetch_issued 235674
Core_0_L2C_prefetch_useful 5195
Core_0_L2C_prefetch_useless 2268
Core_0_L2C_prefetch_late 709
Core_0_L2C_prefetch_accuracy 0.0220432
Core_0_L2C_prefetch_coverage 0.0256051

Core_0_LLC_total_access 354233
Core_0_LLC_total_hit 200444
Core_0_LLC_total_miss 153789
Core_0_LLC_total_MPKI 3.07578
Core_0_LLC_total_miss_rate 0.434146
Core_0_LLC_demand_access 191728
Core_0_LLC_demand_hit 101240
Core_0_LLC_demand_miss 90488
Core_0_LLC_demand_MPKI 1.80976
Core_0_LLC_demand_miss_rate 0.47196
Core_0_LLC_load_access 103728
Core_0_LLC_load_hit 94058
Core_0_LLC_load_miss 9670
Core_0_LLC_load_MPKI 0.1934
Core_0_LLC_load_miss_rate 0.0932246
Core_0_LLC_rfo_access 88000
Core_0_LLC_rfo_hit 7182
Core_0_LLC_rfo_miss 80818
Core_0_LLC_rfo_MPKI 1.61636
Core_0_LLC_rfo_miss_rate 0.918386
Core_0_LLC_prefetch_access 41910
Core_0_LLC_prefetch_hit 8730
Core_0_LLC_prefetch_miss 33180
Core_0_LLC_prefetch_MPKI 0.6636
Core_0_LLC_prefetch_miss_rate 0.791696
Core_0_LLC_writeback_access 120595
Core_0_LLC_writeback_hit 90474
Core_0_LLC_writeback_miss 30121
Core_0_LLC_writeback_MPKI 0.60242
Core_0_LLC_writeback_miss_rate 0.24977
Core_0_LLC_prefetch_requested 0
Core_0_LLC_prefetch_issued 0
Core_0_LLC_prefetch_useful 0
Core_0_LLC_prefetch_useless 0
Core_0_LLC_prefetch_late 0
Core_0_LLC_prefetch_accuracy 0
Core_0_LLC_prefetch_coverage 0

[DRAM Statistics]
Channel_0_RQ_row_buffer_hit 12264
Channel_0_RQ_row_buffer_miss 109473
Channel_0_WQ_row_buffer_hit 6114
Channel_0_WQ_row_buffer_miss 82927
Channel_0_WQ_full 0
Channel_0_dbus_congested 462054
DRAM_total_RQ_row_buffer_hit 12264
DRAM_total_RQ_row_buffer_miss 109473
DRAM_total_WQ_row_buffer_hit 6114
DRAM_total_WQ_row_buffer_miss 82927
DRAM_total_WQ_full 0
DRAM_total_dbus_congested 462054
DRAM_avg_congested_cycle 5.32826

====== DRAM_RQ_TRAFFIC ========
DRAM_RQ_READ_TRAFFIC_BREAKDOWN:
data_demand_read.count = 89019
data_demand_read.share = 73.12%

inst_demand_read.count = 1302
inst_demand_read.share = 1.07%

cache_inst_prefetch.count = 0
cache_inst_prefetch.share = 0.00%

cache_data_prefetch.count = 30792
cache_data_prefetch.share = 25.29%

stlb_data_demand.count = 517
stlb_data_demand.share = 0.42%

stlb_inst_demand.count = 40
stlb_inst_demand.share = 0.03%

stlb_l1i_pref.count = 0
stlb_l1i_pref.share = 0.00%

stlb_l1d_pref.count = 67
stlb_l1d_pref.share = 0.06%

DRAM_RQ_READ_TRAFFIC_SUMMARY:
cache_demand.count = 90321
cache_demand.share = 74.19%

cache_prefetch.count = 30792
cache_prefetch.share = 25.29%

stlb_demand.count = 557
stlb_demand.share = 0.46%

stlb_prefetch.count = 67
stlb_prefetch.share = 0.06%

DRAM_RQ_READ_TRAFFIC_DEBUG:
total_classified_read.count = 121737
unclassified_read.count = 0
total_read_with_other.count = 121737

classified_plus_unclassified_check.count = 121737
dram_rq_read_total_observed.count = 121737
dram_rq_read_total_observed.per_1K_instructions = 2.43474

STLB_MISS_PTW_DRAM_TOUCH_BREAKDOWN:
stlb_miss_total.count = 73434

stlb_miss_touch_dram.count = 620
stlb_miss_touch_dram.share = 0.84%

stlb_miss_no_dram_touch.count = 72814
stlb_miss_no_dram_touch.share = 99.16%

STLB_MISS_PTW_DRAM_TOUCH_DEBUG:
stlb_miss_touch_plus_no_touch.count = 73434
stlb_miss_total_check.count = 73434

======STLB miss causes ========
Core_0_STLB_miss_cause_breakdown
Core_0_STLB_cause_Demand_Data_miss 69799
Core_0_STLB_cause_Demand_Data_miss_rate 0.056203
Core_0_STLB_cause_Demand_Instruction_miss 1574
Core_0_STLB_cause_Demand_Instruction_miss_rate 0.0012674
Core_0_STLB_cause_L1D_Prefetch_miss 2061
Core_0_STLB_cause_L1D_Prefetch_miss_rate 0.00165954
Core_0_STLB_cause_L1I_Prefetch_miss 0
Core_0_STLB_cause_L1I_Prefetch_miss_rate 0
Core_0_STLB_cause_Other_miss 0
Core_0_STLB_cause_Other_miss_rate 0
Core_0_STLB_Demand_miss 71373
Core_0_STLB_Demand_miss_rate 0.0574704
Core_0_STLB_L1D_Prefetch_miss 2061
Core_0_STLB_L1D_Prefetch_miss_rate 0.00165954
Core_0_STLB_Other_miss 0
Core_0_STLB_Other_miss_rate 0
BERTI TO_L1: 8737227 TO_L2: 5954645 TO_L2_BC_MSHR: 317342
BERTI AVG_LAT: 14.6472 NUM_TRACK_LATENCY: 3259652 NUM_CANT_TRACK_LATENCY: 0
BERTI CROSS_PAGE 2975098 NO_CROSS_PAGE: 11716774
BERTI FOUND_BERTI: 8805533 NO_FOUND_BERTI: 9089327
BERTI AVERAGE_ISSUED: 2.62463
