[VMEM] WARNING: physical memory size is smaller than virtual memory size.

*** ChampSim Multicore Out-of-Order Simulator ***
Warmup Instructions: 20000000
Simulation Instructions: 50000000
Number of CPUs: 1
Page size: 4096
Core 0: /data0/tzh/champsim_traces/QMM/compute_int_34_new.xz
VBerti Prefetcher
BERTI HASH ENTANGLING
BERTI IP MASK ffff
Off-chip DRAM Size: 16 GiB Channels: 1 Width: 64-bit Data Rate: 3205 MT/s
Warmup halting CPU 0 at instruction 20000000 cycle 6206904 for remainder of phase
Warmup finished CPU 0 instructions: 20000000 cycles: 6206904 cumulative IPC: 3.222 (Simulation time: 00 hr 01 min 26 sec)
Warmup complete CPU 0 instructions: 20000000 cycles: 6206904 cumulative IPC: 3.222 (Simulation time: 00 hr 01 min 26 sec)
*** Reached end of trace: (0, "/data0/tzh/champsim_traces/QMM/compute_int_34_new.xz")
*** Reached end of trace: (0, "/data0/tzh/champsim_traces/QMM/compute_int_34_new.xz")
Simulation finished CPU 0 instructions: 50000000 cycles: 61264450 cumulative IPC: 0.8161 (Simulation time: 00 hr 09 min 53 sec)
Simulation complete CPU 0 instructions: 50000000 cycles: 61264450 cumulative IPC: 0.8161 (Simulation time: 00 hr 09 min 53 sec)

ChampSim completed all CPUs

=== Simulation ===
CPU 0 runs /data0/tzh/champsim_traces/QMM/compute_int_34_new.xz

Region of Interest Statistics

CPU 0 cumulative IPC: 0.8161 instructions: 50000000 cycles: 61264450
CPU 0 Branch Prediction Accuracy: 97.36% MPKI: 3.286 Average ROB Occupancy at Mispredict: 97.54
Branch type MPKI
BRANCH_DIRECT_JUMP: 0.00052
BRANCH_INDIRECT: 0
BRANCH_CONDITIONAL: 3.282
BRANCH_DIRECT_CALL: 0.0019
BRANCH_INDIRECT_CALL: 0.00038
BRANCH_RETURN: 0.00186

cpu0->cpu0_STLB TOTAL        ACCESS:     124238 HIT:      53074 MISS:      71164 MSHR_MERGE:          0
cpu0->cpu0_STLB LOAD         ACCESS:     124238 HIT:      53074 MISS:      71164 MSHR_MERGE:          0
cpu0->cpu0_STLB RFO          ACCESS:          0 HIT:          0 MISS:          0 MSHR_MERGE:          0
cpu0->cpu0_STLB PREFETCH     ACCESS:          0 HIT:          0 MISS:          0 MSHR_MERGE:          0
cpu0->cpu0_STLB WRITE        ACCESS:          0 HIT:          0 MISS:          0 MSHR_MERGE:          0
cpu0->cpu0_STLB TRANSLATION  ACCESS:          0 HIT:          0 MISS:          0 MSHR_MERGE:          0
cpu0->cpu0_STLB PREFETCH REQUESTED:          0 ISSUED:          0 USEFUL:          0 USELESS:          0 LATE:          0
cpu0->cpu0_STLB AVERAGE MISS LATENCY: 71.23 cycles
cpu0->cpu0_L2C TOTAL        ACCESS:    8525141 HIT:    3470935 MISS:    5054206 MSHR_MERGE:    1511716
cpu0->cpu0_L2C LOAD         ACCESS:    1182586 HIT:     651072 MISS:     531514 MSHR_MERGE:     281752
cpu0->cpu0_L2C RFO          ACCESS:     127919 HIT:      87766 MISS:      40153 MSHR_MERGE:      17298
cpu0->cpu0_L2C PREFETCH     ACCESS:    6834542 HIT:    2363650 MISS:    4470892 MSHR_MERGE:    1212666
cpu0->cpu0_L2C WRITE        ACCESS:     366720 HIT:     365738 MISS:        982 MSHR_MERGE:          0
cpu0->cpu0_L2C TRANSLATION  ACCESS:      13374 HIT:       2709 MISS:      10665 MSHR_MERGE:          0
cpu0->cpu0_L2C PREFETCH REQUESTED:    1106025 ISSUED:     702058 USEFUL:      68287 USELESS:      25999 LATE:       3782
cpu0->cpu0_L2C AVERAGE MISS LATENCY: 247.2 cycles
cpu0->cpu0_L1I TOTAL        ACCESS:    5727027 HIT:    5726414 MISS:        613 MSHR_MERGE:        145
cpu0->cpu0_L1I LOAD         ACCESS:    5727027 HIT:    5726414 MISS:        613 MSHR_MERGE:        145
cpu0->cpu0_L1I RFO          ACCESS:          0 HIT:          0 MISS:          0 MSHR_MERGE:          0
cpu0->cpu0_L1I PREFETCH     ACCESS:          0 HIT:          0 MISS:          0 MSHR_MERGE:          0
cpu0->cpu0_L1I WRITE        ACCESS:          0 HIT:          0 MISS:          0 MSHR_MERGE:          0
cpu0->cpu0_L1I TRANSLATION  ACCESS:          0 HIT:          0 MISS:          0 MSHR_MERGE:          0
cpu0->cpu0_L1I PREFETCH REQUESTED:          0 ISSUED:          0 USEFUL:          0 USELESS:          0 LATE:          0
cpu0->cpu0_L1I AVERAGE MISS LATENCY: 220.7 cycles
cpu0->cpu0_L1D TOTAL        ACCESS:   23938111 HIT:   15569186 MISS:    8368925 MSHR_MERGE:     753070
cpu0->cpu0_L1D LOAD         ACCESS:    8619007 HIT:    7039114 MISS:    1579893 MSHR_MERGE:     397764
cpu0->cpu0_L1D RFO          ACCESS:          0 HIT:          0 MISS:          0 MSHR_MERGE:          0
cpu0->cpu0_L1D PREFETCH     ACCESS:    8529109 HIT:    2148976 MISS:    6380133 MSHR_MERGE:      87726
cpu0->cpu0_L1D WRITE        ACCESS:    6647550 HIT:    6252094 MISS:     395456 MSHR_MERGE:     267511
cpu0->cpu0_L1D TRANSLATION  ACCESS:     142445 HIT:     129002 MISS:      13443 MSHR_MERGE:         69
cpu0->cpu0_L1D PREFETCH REQUESTED:   29166422 ISSUED:    8529107 USEFUL:    1564306 USELESS:     119251 LATE:     305560
cpu0->cpu0_L1D AVERAGE MISS LATENCY: 138.1 cycles
cpu0->cpu0_ITLB TOTAL        ACCESS:    4550261 HIT:    4550035 MISS:        226 MSHR_MERGE:        131
cpu0->cpu0_ITLB LOAD         ACCESS:    4550261 HIT:    4550035 MISS:        226 MSHR_MERGE:        131
cpu0->cpu0_ITLB RFO          ACCESS:          0 HIT:          0 MISS:          0 MSHR_MERGE:          0
cpu0->cpu0_ITLB PREFETCH     ACCESS:          0 HIT:          0 MISS:          0 MSHR_MERGE:          0
cpu0->cpu0_ITLB WRITE        ACCESS:          0 HIT:          0 MISS:          0 MSHR_MERGE:          0
cpu0->cpu0_ITLB TRANSLATION  ACCESS:          0 HIT:          0 MISS:          0 MSHR_MERGE:          0
cpu0->cpu0_ITLB PREFETCH REQUESTED:          0 ISSUED:          0 USEFUL:          0 USELESS:          0 LATE:          0
cpu0->cpu0_ITLB AVERAGE MISS LATENCY: 275.4 cycles
cpu0->cpu0_DTLB TOTAL        ACCESS:   19913573 HIT:   19634609 MISS:     278964 MSHR_MERGE:     154821
cpu0->cpu0_DTLB LOAD         ACCESS:   19913573 HIT:   19634609 MISS:     278964 MSHR_MERGE:     154821
cpu0->cpu0_DTLB RFO          ACCESS:          0 HIT:          0 MISS:          0 MSHR_MERGE:          0
cpu0->cpu0_DTLB PREFETCH     ACCESS:          0 HIT:          0 MISS:          0 MSHR_MERGE:          0
cpu0->cpu0_DTLB WRITE        ACCESS:          0 HIT:          0 MISS:          0 MSHR_MERGE:          0
cpu0->cpu0_DTLB TRANSLATION  ACCESS:          0 HIT:          0 MISS:          0 MSHR_MERGE:          0
cpu0->cpu0_DTLB PREFETCH REQUESTED:          0 ISSUED:          0 USEFUL:          0 USELESS:          0 LATE:          0
cpu0->cpu0_DTLB AVERAGE MISS LATENCY: 46.2 cycles
cpu0->LLC TOTAL        ACCESS:    3881435 HIT:     898370 MISS:    2983065 MSHR_MERGE:      70167
cpu0->LLC LOAD         ACCESS:     249762 HIT:      48042 MISS:     201720 MSHR_MERGE:       5787
cpu0->LLC RFO          ACCESS:      22855 HIT:       3854 MISS:      19001 MSHR_MERGE:        609
cpu0->LLC PREFETCH     ACCESS:    3258196 HIT:     770315 MISS:    2487881 MSHR_MERGE:      63771
cpu0->LLC WRITE        ACCESS:     339957 HIT:      74641 MISS:     265316 MSHR_MERGE:          0
cpu0->LLC TRANSLATION  ACCESS:      10665 HIT:       1518 MISS:       9147 MSHR_MERGE:          0
cpu0->LLC PREFETCH REQUESTED:          0 ISSUED:          0 USEFUL:          0 USELESS:          0 LATE:          0
cpu0->LLC AVERAGE MISS LATENCY: 148.9 cycles

DRAM Statistics

Channel 0 RQ ROW_BUFFER_HIT:     168200
  ROW_BUFFER_MISS:    2479346
  AVG DBUS CONGESTED CYCLE: 4.46
Channel 0 WQ ROW_BUFFER_HIT:      21985
  ROW_BUFFER_MISS:     310873
  FULL:          0
Channel 0 REFRESHES ISSUED:       5105

[ROI Statistics]
[System Configuration]
num_cpus 1
cpu_freq 4000
fetch_width 6
decode_width 6
dispatch_width 6
execute_width 6
lq_width 2
sq_width 2
retire_width 6
scheduler_size 128
branch_mispredict_penalty 15
rob_size 352
lq_size 128
sq_size 72
ifetch_buffer_size 64
decode_buffer_size 32
dispatch_buffer_size 32
register_file_size 288
decode_latency 1
dispatch_latency 1
schedule_latency 1
execute_latency 1
page_size 4096
block_size 64
core_0_itlb_set 16
core_0_itlb_way 4
core_0_itlb_rq_size 16
core_0_itlb_wq_size 16
core_0_itlb_pq_size 0
core_0_itlb_mshr_size 8
core_0_itlb_hit_latency 1
core_0_itlb_fill_latency 1
core_0_itlb_max_tag_check 2
core_0_itlb_max_fill 2
core_0_dtlb_set 16
core_0_dtlb_way 4
core_0_dtlb_rq_size 16
core_0_dtlb_wq_size 16
core_0_dtlb_pq_size 0
core_0_dtlb_mshr_size 8
core_0_dtlb_hit_latency 1
core_0_dtlb_fill_latency 1
core_0_dtlb_max_tag_check 2
core_0_dtlb_max_fill 2
core_0_stlb_set 128
core_0_stlb_way 12
core_0_stlb_rq_size 32
core_0_stlb_wq_size 32
core_0_stlb_pq_size 0
core_0_stlb_mshr_size 16
core_0_stlb_hit_latency 4
core_0_stlb_fill_latency 4
core_0_stlb_max_tag_check 1
core_0_stlb_max_fill 1
core_0_l1i_set 64
core_0_l1i_way 8
core_0_l1i_rq_size 64
core_0_l1i_wq_size 64
core_0_l1i_pq_size 32
core_0_l1i_mshr_size 8
core_0_l1i_hit_latency 2
core_0_l1i_fill_latency 2
core_0_l1i_max_tag_check 2
core_0_l1i_max_fill 2
core_0_l1d_set 64
core_0_l1d_way 12
core_0_l1d_rq_size 64
core_0_l1d_wq_size 64
core_0_l1d_pq_size 8
core_0_l1d_mshr_size 16
core_0_l1d_hit_latency 2
core_0_l1d_fill_latency 3
core_0_l1d_max_tag_check 2
core_0_l1d_max_fill 2
core_0_l2c_set 1024
core_0_l2c_way 8
core_0_l2c_rq_size 32
core_0_l2c_wq_size 32
core_0_l2c_pq_size 16
core_0_l2c_mshr_size 32
core_0_l2c_hit_latency 5
core_0_l2c_fill_latency 5
core_0_l2c_max_tag_check 1
core_0_l2c_max_fill 1
llc_set 2048
llc_way 16
llc_rq_size 32
llc_wq_size 32
llc_pq_size 32
llc_mshr_size 64
llc_hit_latency 10
llc_fill_latency 10
llc_max_tag_check 1
llc_max_fill 1
dram_channels 1
dram_ranks 1
dram_bankgroups 8
dram_banks 4
dram_rows 65536
dram_columns 1024
dram_channel_width 8
dram_rq_size 64
dram_wq_size 64
dram_size 17179869184
core_0_itlb_prefetcher no
core_0_dtlb_prefetcher no
core_0_stlb_prefetcher no
core_0_l1i_prefetcher next_line
core_0_l1d_prefetcher vberti
core_0_l2c_prefetcher ip_stride
llc_prefetcher no
llc_replacement drrip

Core_0_instructions 50000000
Core_0_cycles 61264450
Core_0_IPC 0.816134
Core_0_branch_prediction_accuracy 97.364
Core_0_branch_MPKI 3.28638
Core_0_average_ROB_occupancy_at_mispredict 97.5424

Core_0_ITLB_total_access 4550261
Core_0_ITLB_total_hit 4550035
Core_0_ITLB_total_miss 226
Core_0_ITLB_total_MPKI 0.00452
Core_0_ITLB_total_miss_rate 4.96675e-05
Core_0_ITLB_demand_access 4550261
Core_0_ITLB_demand_hit 4550035
Core_0_ITLB_demand_miss 226
Core_0_ITLB_demand_MPKI 0.00452
Core_0_ITLB_demand_miss_rate 4.96675e-05
Core_0_ITLB_load_access 4550261
Core_0_ITLB_load_hit 4550035
Core_0_ITLB_load_miss 226
Core_0_ITLB_load_MPKI 0.00452
Core_0_ITLB_load_miss_rate 4.96675e-05
Core_0_ITLB_rfo_access 0
Core_0_ITLB_rfo_hit 0
Core_0_ITLB_rfo_miss 0
Core_0_ITLB_rfo_MPKI 0
Core_0_ITLB_rfo_miss_rate 0
Core_0_ITLB_prefetch_access 0
Core_0_ITLB_prefetch_hit 0
Core_0_ITLB_prefetch_miss 0
Core_0_ITLB_prefetch_MPKI 0
Core_0_ITLB_prefetch_miss_rate 0
Core_0_ITLB_writeback_access 0
Core_0_ITLB_writeback_hit 0
Core_0_ITLB_writeback_miss 0
Core_0_ITLB_writeback_MPKI 0
Core_0_ITLB_writeback_miss_rate 0
Core_0_ITLB_prefetch_requested 0
Core_0_ITLB_prefetch_issued 0
Core_0_ITLB_prefetch_useful 0
Core_0_ITLB_prefetch_useless 0
Core_0_ITLB_prefetch_late 0
Core_0_ITLB_prefetch_accuracy 0
Core_0_ITLB_prefetch_coverage 0

Core_0_DTLB_total_access 19913573
Core_0_DTLB_total_hit 19634609
Core_0_DTLB_total_miss 278964
Core_0_DTLB_total_MPKI 5.57928
Core_0_DTLB_total_miss_rate 0.0140087
Core_0_DTLB_demand_access 19913573
Core_0_DTLB_demand_hit 19634609
Core_0_DTLB_demand_miss 278964
Core_0_DTLB_demand_MPKI 5.57928
Core_0_DTLB_demand_miss_rate 0.0140087
Core_0_DTLB_load_access 19913573
Core_0_DTLB_load_hit 19634609
Core_0_DTLB_load_miss 278964
Core_0_DTLB_load_MPKI 5.57928
Core_0_DTLB_load_miss_rate 0.0140087
Core_0_DTLB_rfo_access 0
Core_0_DTLB_rfo_hit 0
Core_0_DTLB_rfo_miss 0
Core_0_DTLB_rfo_MPKI 0
Core_0_DTLB_rfo_miss_rate 0
Core_0_DTLB_prefetch_access 0
Core_0_DTLB_prefetch_hit 0
Core_0_DTLB_prefetch_miss 0
Core_0_DTLB_prefetch_MPKI 0
Core_0_DTLB_prefetch_miss_rate 0
Core_0_DTLB_writeback_access 0
Core_0_DTLB_writeback_hit 0
Core_0_DTLB_writeback_miss 0
Core_0_DTLB_writeback_MPKI 0
Core_0_DTLB_writeback_miss_rate 0
Core_0_DTLB_prefetch_requested 0
Core_0_DTLB_prefetch_issued 0
Core_0_DTLB_prefetch_useful 0
Core_0_DTLB_prefetch_useless 0
Core_0_DTLB_prefetch_late 0
Core_0_DTLB_prefetch_accuracy 0
Core_0_DTLB_prefetch_coverage 0

Core_0_STLB_total_access 124238
Core_0_STLB_total_hit 53074
Core_0_STLB_total_miss 71164
Core_0_STLB_total_MPKI 1.42328
Core_0_STLB_total_miss_rate 0.572804
Core_0_STLB_demand_access 124238
Core_0_STLB_demand_hit 53074
Core_0_STLB_demand_miss 71164
Core_0_STLB_demand_MPKI 1.42328
Core_0_STLB_demand_miss_rate 0.572804
Core_0_STLB_load_access 124238
Core_0_STLB_load_hit 53074
Core_0_STLB_load_miss 71164
Core_0_STLB_load_MPKI 1.42328
Core_0_STLB_load_miss_rate 0.572804
Core_0_STLB_rfo_access 0
Core_0_STLB_rfo_hit 0
Core_0_STLB_rfo_miss 0
Core_0_STLB_rfo_MPKI 0
Core_0_STLB_rfo_miss_rate 0
Core_0_STLB_prefetch_access 0
Core_0_STLB_prefetch_hit 0
Core_0_STLB_prefetch_miss 0
Core_0_STLB_prefetch_MPKI 0
Core_0_STLB_prefetch_miss_rate 0
Core_0_STLB_writeback_access 0
Core_0_STLB_writeback_hit 0
Core_0_STLB_writeback_miss 0
Core_0_STLB_writeback_MPKI 0
Core_0_STLB_writeback_miss_rate 0
Core_0_STLB_prefetch_requested 0
Core_0_STLB_prefetch_issued 0
Core_0_STLB_prefetch_useful 0
Core_0_STLB_prefetch_useless 0
Core_0_STLB_prefetch_late 0
Core_0_STLB_prefetch_accuracy 0
Core_0_STLB_prefetch_coverage 0

Core_0_L1I_total_access 5727027
Core_0_L1I_total_hit 5726414
Core_0_L1I_total_miss 613
Core_0_L1I_total_MPKI 0.01226
Core_0_L1I_total_miss_rate 0.000107036
Core_0_L1I_demand_access 5727027
Core_0_L1I_demand_hit 5726414
Core_0_L1I_demand_miss 613
Core_0_L1I_demand_MPKI 0.01226
Core_0_L1I_demand_miss_rate 0.000107036
Core_0_L1I_load_access 5727027
Core_0_L1I_load_hit 5726414
Core_0_L1I_load_miss 613
Core_0_L1I_load_MPKI 0.01226
Core_0_L1I_load_miss_rate 0.000107036
Core_0_L1I_rfo_access 0
Core_0_L1I_rfo_hit 0
Core_0_L1I_rfo_miss 0
Core_0_L1I_rfo_MPKI 0
Core_0_L1I_rfo_miss_rate 0
Core_0_L1I_prefetch_access 0
Core_0_L1I_prefetch_hit 0
Core_0_L1I_prefetch_miss 0
Core_0_L1I_prefetch_MPKI 0
Core_0_L1I_prefetch_miss_rate 0
Core_0_L1I_writeback_access 0
Core_0_L1I_writeback_hit 0
Core_0_L1I_writeback_miss 0
Core_0_L1I_writeback_MPKI 0
Core_0_L1I_writeback_miss_rate 0
Core_0_L1I_prefetch_requested 0
Core_0_L1I_prefetch_issued 0
Core_0_L1I_prefetch_useful 0
Core_0_L1I_prefetch_useless 0
Core_0_L1I_prefetch_late 0
Core_0_L1I_prefetch_accuracy 0
Core_0_L1I_prefetch_coverage 0

Core_0_L1D_total_access 23795666
Core_0_L1D_total_hit 15440184
Core_0_L1D_total_miss 8355482
Core_0_L1D_total_MPKI 167.11
Core_0_L1D_total_miss_rate 0.351135
Core_0_L1D_demand_access 8619007
Core_0_L1D_demand_hit 7039114
Core_0_L1D_demand_miss 1579893
Core_0_L1D_demand_MPKI 31.5979
Core_0_L1D_demand_miss_rate 0.183303
Core_0_L1D_load_access 8619007
Core_0_L1D_load_hit 7039114
Core_0_L1D_load_miss 1579893
Core_0_L1D_load_MPKI 31.5979
Core_0_L1D_load_miss_rate 0.183303
Core_0_L1D_rfo_access 0
Core_0_L1D_rfo_hit 0
Core_0_L1D_rfo_miss 0
Core_0_L1D_rfo_MPKI 0
Core_0_L1D_rfo_miss_rate 0
Core_0_L1D_prefetch_access 8529109
Core_0_L1D_prefetch_hit 2148976
Core_0_L1D_prefetch_miss 6380133
Core_0_L1D_prefetch_MPKI 127.603
Core_0_L1D_prefetch_miss_rate 0.748042
Core_0_L1D_writeback_access 6647550
Core_0_L1D_writeback_hit 6252094
Core_0_L1D_writeback_miss 395456
Core_0_L1D_writeback_MPKI 7.90912
Core_0_L1D_writeback_miss_rate 0.059489
Core_0_L1D_prefetch_requested 29166422
Core_0_L1D_prefetch_issued 8529107
Core_0_L1D_prefetch_useful 1564306
Core_0_L1D_prefetch_useless 119251
Core_0_L1D_prefetch_late 305560
Core_0_L1D_prefetch_accuracy 0.183408
Core_0_L1D_prefetch_coverage 0.497521

Core_0_L2C_total_access 8511767
Core_0_L2C_total_hit 3468226
Core_0_L2C_total_miss 5043541
Core_0_L2C_total_MPKI 100.871
Core_0_L2C_total_miss_rate 0.592537
Core_0_L2C_demand_access 1310505
Core_0_L2C_demand_hit 738838
Core_0_L2C_demand_miss 571667
Core_0_L2C_demand_MPKI 11.4333
Core_0_L2C_demand_miss_rate 0.436219
Core_0_L2C_load_access 1182586
Core_0_L2C_load_hit 651072
Core_0_L2C_load_miss 531514
Core_0_L2C_load_MPKI 10.6303
Core_0_L2C_load_miss_rate 0.449451
Core_0_L2C_rfo_access 127919
Core_0_L2C_rfo_hit 87766
Core_0_L2C_rfo_miss 40153
Core_0_L2C_rfo_MPKI 0.80306
Core_0_L2C_rfo_miss_rate 0.313894
Core_0_L2C_prefetch_access 6834542
Core_0_L2C_prefetch_hit 2363650
Core_0_L2C_prefetch_miss 4470892
Core_0_L2C_prefetch_MPKI 89.4178
Core_0_L2C_prefetch_miss_rate 0.654161
Core_0_L2C_writeback_access 366720
Core_0_L2C_writeback_hit 365738
Core_0_L2C_writeback_miss 982
Core_0_L2C_writeback_MPKI 0.01964
Core_0_L2C_writeback_miss_rate 0.00267779
Core_0_L2C_prefetch_requested 1106025
Core_0_L2C_prefetch_issued 702058
Core_0_L2C_prefetch_useful 68287
Core_0_L2C_prefetch_useless 25999
Core_0_L2C_prefetch_late 3782
Core_0_L2C_prefetch_accuracy 0.0972669
Core_0_L2C_prefetch_coverage 0.106706

Core_0_LLC_total_access 3870770
Core_0_LLC_total_hit 896852
Core_0_LLC_total_miss 2973918
Core_0_LLC_total_MPKI 59.4784
Core_0_LLC_total_miss_rate 0.768301
Core_0_LLC_demand_access 272617
Core_0_LLC_demand_hit 51896
Core_0_LLC_demand_miss 220721
Core_0_LLC_demand_MPKI 4.41442
Core_0_LLC_demand_miss_rate 0.809638
Core_0_LLC_load_access 249762
Core_0_LLC_load_hit 48042
Core_0_LLC_load_miss 201720
Core_0_LLC_load_MPKI 4.0344
Core_0_LLC_load_miss_rate 0.807649
Core_0_LLC_rfo_access 22855
Core_0_LLC_rfo_hit 3854
Core_0_LLC_rfo_miss 19001
Core_0_LLC_rfo_MPKI 0.38002
Core_0_LLC_rfo_miss_rate 0.831372
Core_0_LLC_prefetch_access 3258196
Core_0_LLC_prefetch_hit 770315
Core_0_LLC_prefetch_miss 2487881
Core_0_LLC_prefetch_MPKI 49.7576
Core_0_LLC_prefetch_miss_rate 0.763576
Core_0_LLC_writeback_access 339957
Core_0_LLC_writeback_hit 74641
Core_0_LLC_writeback_miss 265316
Core_0_LLC_writeback_MPKI 5.30632
Core_0_LLC_writeback_miss_rate 0.78044
Core_0_LLC_prefetch_requested 0
Core_0_LLC_prefetch_issued 0
Core_0_LLC_prefetch_useful 0
Core_0_LLC_prefetch_useless 0
Core_0_LLC_prefetch_late 0
Core_0_LLC_prefetch_accuracy 0
Core_0_LLC_prefetch_coverage 0

[DRAM Statistics]
Channel_0_RQ_row_buffer_hit 168200
Channel_0_RQ_row_buffer_miss 2479346
Channel_0_WQ_row_buffer_hit 21985
Channel_0_WQ_row_buffer_miss 310873
Channel_0_WQ_full 0
Channel_0_dbus_congested 7843703
DRAM_total_RQ_row_buffer_hit 168200
DRAM_total_RQ_row_buffer_miss 2479346
DRAM_total_WQ_row_buffer_hit 21985
DRAM_total_WQ_row_buffer_miss 310873
DRAM_total_WQ_full 0
DRAM_total_dbus_congested 7843703
DRAM_avg_congested_cycle 4.46018

====== DRAM_RQ_TRAFFIC ========
DRAM_RQ_READ_TRAFFIC_BREAKDOWN:
data_demand_read.count = 213857
data_demand_read.share = 8.08%

inst_demand_read.count = 468
inst_demand_read.share = 0.02%

cache_inst_prefetch.count = 0
cache_inst_prefetch.share = 0.00%

cache_data_prefetch.count = 2424110
cache_data_prefetch.share = 91.56%

stlb_data_demand.count = 1943
stlb_data_demand.share = 0.07%

stlb_inst_demand.count = 55
stlb_inst_demand.share = 0.00%

stlb_l1i_pref.count = 0
stlb_l1i_pref.share = 0.00%

stlb_l1d_pref.count = 7149
stlb_l1d_pref.share = 0.27%

DRAM_RQ_READ_TRAFFIC_SUMMARY:
cache_demand.count = 214325
cache_demand.share = 8.10%

cache_prefetch.count = 2424110
cache_prefetch.share = 91.56%

stlb_demand.count = 1998
stlb_demand.share = 0.08%

stlb_prefetch.count = 7149
stlb_prefetch.share = 0.27%

DRAM_RQ_READ_TRAFFIC_DEBUG:
total_classified_read.count = 2647582
unclassified_read.count = 0
total_read_with_other.count = 2647582

classified_plus_unclassified_check.count = 2647582
dram_rq_read_total_observed.count = 2647582
dram_rq_read_total_observed.per_1K_instructions = 52.9516

STLB_MISS_PTW_DRAM_TOUCH_BREAKDOWN:
stlb_miss_total.count = 71164

stlb_miss_touch_dram.count = 8999
stlb_miss_touch_dram.share = 12.65%

stlb_miss_no_dram_touch.count = 62165
stlb_miss_no_dram_touch.share = 87.35%

STLB_MISS_PTW_DRAM_TOUCH_DEBUG:
stlb_miss_touch_plus_no_touch.count = 71164
stlb_miss_total_check.count = 71164

======STLB miss causes ========
Core_0_STLB_miss_cause_breakdown
Core_0_STLB_cause_Demand_Data_miss 5397
Core_0_STLB_cause_Demand_Data_miss_rate 0.0434408
Core_0_STLB_cause_Demand_Instruction_miss 87
Core_0_STLB_cause_Demand_Instruction_miss_rate 0.000700269
Core_0_STLB_cause_L1D_Prefetch_miss 65680
Core_0_STLB_cause_L1D_Prefetch_miss_rate 0.528663
Core_0_STLB_cause_L1I_Prefetch_miss 0
Core_0_STLB_cause_L1I_Prefetch_miss_rate 0
Core_0_STLB_cause_Other_miss 0
Core_0_STLB_cause_Other_miss_rate 0
Core_0_STLB_Demand_miss 5484
Core_0_STLB_Demand_miss_rate 0.0441411
Core_0_STLB_L1D_Prefetch_miss 65680
Core_0_STLB_L1D_Prefetch_miss_rate 0.528663
Core_0_STLB_Other_miss 0
Core_0_STLB_Other_miss_rate 0
BERTI TO_L1: 9576632 TO_L2: 29218025 TO_L2_BC_MSHR: 5447684
BERTI AVG_LAT: 116.404 NUM_TRACK_LATENCY: 4407768 NUM_CANT_TRACK_LATENCY: 87
BERTI CROSS_PAGE 9632016 NO_CROSS_PAGE: 29162641
BERTI FOUND_BERTI: 12617547 NO_FOUND_BERTI: 9796118
BERTI AVERAGE_ISSUED: 2.25502
