[VMEM] WARNING: physical memory size is smaller than virtual memory size.

*** ChampSim Multicore Out-of-Order Simulator ***
Warmup Instructions: 20000000
Simulation Instructions: 50000000
Number of CPUs: 1
Page size: 4096
Core 0: /data0/tzh/champsim_traces/Ligra/ligra_PageRank.com-lj.ungraph.gcc_6.3.0_O3.drop_79500M.length_250M.champsimtrace.xz
VBerti Prefetcher
BERTI HASH ENTANGLING
BERTI IP MASK ffff
Off-chip DRAM Size: 16 GiB Channels: 1 Width: 64-bit Data Rate: 3205 MT/s
Warmup halting CPU 0 at instruction 20000004 cycle 5850188 for remainder of phase
Warmup finished CPU 0 instructions: 20000004 cycles: 5850188 cumulative IPC: 3.419 (Simulation time: 00 hr 01 min 28 sec)
Warmup complete CPU 0 instructions: 20000004 cycles: 5850188 cumulative IPC: 3.419 (Simulation time: 00 hr 01 min 28 sec)
Simulation finished CPU 0 instructions: 50000005 cycles: 92520308 cumulative IPC: 0.5404 (Simulation time: 00 hr 12 min 47 sec)
Simulation complete CPU 0 instructions: 50000005 cycles: 92520308 cumulative IPC: 0.5404 (Simulation time: 00 hr 12 min 47 sec)

ChampSim completed all CPUs

=== Simulation ===
CPU 0 runs /data0/tzh/champsim_traces/Ligra/ligra_PageRank.com-lj.ungraph.gcc_6.3.0_O3.drop_79500M.length_250M.champsimtrace.xz

Region of Interest Statistics

CPU 0 cumulative IPC: 0.5404 instructions: 50000005 cycles: 92520308
CPU 0 Branch Prediction Accuracy: 94.15% MPKI: 6.766 Average ROB Occupancy at Mispredict: 171.8
Branch type MPKI
BRANCH_DIRECT_JUMP: 0
BRANCH_INDIRECT: 0
BRANCH_CONDITIONAL: 6.766
BRANCH_DIRECT_CALL: 0
BRANCH_INDIRECT_CALL: 0
BRANCH_RETURN: 0

cpu0->cpu0_STLB TOTAL        ACCESS:    3290930 HIT:    1650582 MISS:    1640348 MSHR_MERGE:          0
cpu0->cpu0_STLB LOAD         ACCESS:    3290930 HIT:    1650582 MISS:    1640348 MSHR_MERGE:          0
cpu0->cpu0_STLB RFO          ACCESS:          0 HIT:          0 MISS:          0 MSHR_MERGE:          0
cpu0->cpu0_STLB PREFETCH     ACCESS:          0 HIT:          0 MISS:          0 MSHR_MERGE:          0
cpu0->cpu0_STLB WRITE        ACCESS:          0 HIT:          0 MISS:          0 MSHR_MERGE:          0
cpu0->cpu0_STLB TRANSLATION  ACCESS:          0 HIT:          0 MISS:          0 MSHR_MERGE:          0
cpu0->cpu0_STLB PREFETCH REQUESTED:          0 ISSUED:          0 USEFUL:          0 USELESS:          0 LATE:          0
cpu0->cpu0_STLB AVERAGE MISS LATENCY: 40.3 cycles
cpu0->cpu0_L2C TOTAL        ACCESS:    5590697 HIT:    1866076 MISS:    3724621 MSHR_MERGE:     132651
cpu0->cpu0_L2C LOAD         ACCESS:    3187586 HIT:     349255 MISS:    2838331 MSHR_MERGE:       2871
cpu0->cpu0_L2C RFO          ACCESS:         28 HIT:         28 MISS:          0 MSHR_MERGE:          0
cpu0->cpu0_L2C PREFETCH     ACCESS:    1011641 HIT:     450492 MISS:     561149 MSHR_MERGE:     129780
cpu0->cpu0_L2C WRITE        ACCESS:      42413 HIT:      42413 MISS:          0 MSHR_MERGE:          0
cpu0->cpu0_L2C TRANSLATION  ACCESS:    1349029 HIT:    1023888 MISS:     325141 MSHR_MERGE:          0
cpu0->cpu0_L2C PREFETCH REQUESTED:     350661 ISSUED:     350661 USEFUL:     116088 USELESS:      40720 LATE:       2500
cpu0->cpu0_L2C AVERAGE MISS LATENCY: 208 cycles
cpu0->cpu0_L1I TOTAL        ACCESS:     728106 HIT:     728106 MISS:          0 MSHR_MERGE:          0
cpu0->cpu0_L1I LOAD         ACCESS:     728106 HIT:     728106 MISS:          0 MSHR_MERGE:          0
cpu0->cpu0_L1I RFO          ACCESS:          0 HIT:          0 MISS:          0 MSHR_MERGE:          0
cpu0->cpu0_L1I PREFETCH     ACCESS:          0 HIT:          0 MISS:          0 MSHR_MERGE:          0
cpu0->cpu0_L1I WRITE        ACCESS:          0 HIT:          0 MISS:          0 MSHR_MERGE:          0
cpu0->cpu0_L1I TRANSLATION  ACCESS:          0 HIT:          0 MISS:          0 MSHR_MERGE:          0
cpu0->cpu0_L1I PREFETCH REQUESTED:          0 ISSUED:          0 USEFUL:          0 USELESS:          0 LATE:          0
cpu0->cpu0_L1I AVERAGE MISS LATENCY: - cycles
cpu0->cpu0_L1D TOTAL        ACCESS:   23833765 HIT:   18477047 MISS:    5356718 MSHR_MERGE:     151760
cpu0->cpu0_L1D LOAD         ACCESS:   11418406 HIT:    8096696 MISS:    3321710 MSHR_MERGE:     134125
cpu0->cpu0_L1D RFO          ACCESS:          0 HIT:          0 MISS:          0 MSHR_MERGE:          0
cpu0->cpu0_L1D PREFETCH     ACCESS:    6706912 HIT:    6032714 MISS:     674198 MSHR_MERGE:       5882
cpu0->cpu0_L1D WRITE        ACCESS:    2351723 HIT:    2351677 MISS:         46 MSHR_MERGE:         18
cpu0->cpu0_L1D TRANSLATION  ACCESS:    3356724 HIT:    1995960 MISS:    1360764 MSHR_MERGE:      11735
cpu0->cpu0_L1D PREFETCH REQUESTED:   27296449 ISSUED:    6706904 USEFUL:     318922 USELESS:       2217 LATE:        578
cpu0->cpu0_L1D AVERAGE MISS LATENCY: 153.8 cycles
cpu0->cpu0_ITLB TOTAL        ACCESS:     708752 HIT:     708752 MISS:          0 MSHR_MERGE:          0
cpu0->cpu0_ITLB LOAD         ACCESS:     708752 HIT:     708752 MISS:          0 MSHR_MERGE:          0
cpu0->cpu0_ITLB RFO          ACCESS:          0 HIT:          0 MISS:          0 MSHR_MERGE:          0
cpu0->cpu0_ITLB PREFETCH     ACCESS:          0 HIT:          0 MISS:          0 MSHR_MERGE:          0
cpu0->cpu0_ITLB WRITE        ACCESS:          0 HIT:          0 MISS:          0 MSHR_MERGE:          0
cpu0->cpu0_ITLB TRANSLATION  ACCESS:          0 HIT:          0 MISS:          0 MSHR_MERGE:          0
cpu0->cpu0_ITLB PREFETCH REQUESTED:          0 ISSUED:          0 USEFUL:          0 USELESS:          0 LATE:          0
cpu0->cpu0_ITLB AVERAGE MISS LATENCY: - cycles
cpu0->cpu0_DTLB TOTAL        ACCESS:   18870288 HIT:   15364746 MISS:    3505542 MSHR_MERGE:     214613
cpu0->cpu0_DTLB LOAD         ACCESS:   18870288 HIT:   15364746 MISS:    3505542 MSHR_MERGE:     214613
cpu0->cpu0_DTLB RFO          ACCESS:          0 HIT:          0 MISS:          0 MSHR_MERGE:          0
cpu0->cpu0_DTLB PREFETCH     ACCESS:          0 HIT:          0 MISS:          0 MSHR_MERGE:          0
cpu0->cpu0_DTLB WRITE        ACCESS:          0 HIT:          0 MISS:          0 MSHR_MERGE:          0
cpu0->cpu0_DTLB TRANSLATION  ACCESS:          0 HIT:          0 MISS:          0 MSHR_MERGE:          0
cpu0->cpu0_DTLB PREFETCH REQUESTED:          0 ISSUED:          0 USEFUL:          0 USELESS:          0 LATE:          0
cpu0->cpu0_DTLB AVERAGE MISS LATENCY: 25.61 cycles
cpu0->LLC TOTAL        ACCESS:    3634363 HIT:     802749 MISS:    2831614 MSHR_MERGE:      10342
cpu0->LLC LOAD         ACCESS:    2835457 HIT:     454893 MISS:    2380564 MSHR_MERGE:        892
cpu0->LLC RFO          ACCESS:          0 HIT:          0 MISS:          0 MSHR_MERGE:          0
cpu0->LLC PREFETCH     ACCESS:     431369 HIT:      28196 MISS:     403173 MSHR_MERGE:       9450
cpu0->LLC WRITE        ACCESS:      42396 HIT:       7590 MISS:      34806 MSHR_MERGE:          0
cpu0->LLC TRANSLATION  ACCESS:     325141 HIT:     312070 MISS:      13071 MSHR_MERGE:          0
cpu0->LLC PREFETCH REQUESTED:          0 ISSUED:          0 USEFUL:          0 USELESS:          0 LATE:          0
cpu0->LLC AVERAGE MISS LATENCY: 250.4 cycles

DRAM Statistics

Channel 0 RQ ROW_BUFFER_HIT:       5986
  ROW_BUFFER_MISS:    2780474
  AVG DBUS CONGESTED CYCLE: 3.659
Channel 0 WQ ROW_BUFFER_HIT:      11767
  ROW_BUFFER_MISS:      30882
  FULL:          0
Channel 0 REFRESHES ISSUED:       7710

[ROI Statistics]
[System Configuration]
num_cpus 1
cpu_freq 4000
fetch_width 6
decode_width 6
dispatch_width 6
execute_width 6
lq_width 2
sq_width 2
retire_width 6
scheduler_size 128
branch_mispredict_penalty 15
rob_size 352
lq_size 128
sq_size 72
ifetch_buffer_size 64
decode_buffer_size 32
dispatch_buffer_size 32
register_file_size 288
decode_latency 1
dispatch_latency 1
schedule_latency 1
execute_latency 1
page_size 4096
block_size 64
core_0_itlb_set 16
core_0_itlb_way 4
core_0_itlb_rq_size 16
core_0_itlb_wq_size 16
core_0_itlb_pq_size 0
core_0_itlb_mshr_size 8
core_0_itlb_hit_latency 1
core_0_itlb_fill_latency 1
core_0_itlb_max_tag_check 2
core_0_itlb_max_fill 2
core_0_dtlb_set 16
core_0_dtlb_way 4
core_0_dtlb_rq_size 16
core_0_dtlb_wq_size 16
core_0_dtlb_pq_size 0
core_0_dtlb_mshr_size 8
core_0_dtlb_hit_latency 1
core_0_dtlb_fill_latency 1
core_0_dtlb_max_tag_check 2
core_0_dtlb_max_fill 2
core_0_stlb_set 128
core_0_stlb_way 12
core_0_stlb_rq_size 32
core_0_stlb_wq_size 32
core_0_stlb_pq_size 0
core_0_stlb_mshr_size 16
core_0_stlb_hit_latency 4
core_0_stlb_fill_latency 4
core_0_stlb_max_tag_check 1
core_0_stlb_max_fill 1
core_0_l1i_set 64
core_0_l1i_way 8
core_0_l1i_rq_size 64
core_0_l1i_wq_size 64
core_0_l1i_pq_size 32
core_0_l1i_mshr_size 8
core_0_l1i_hit_latency 2
core_0_l1i_fill_latency 2
core_0_l1i_max_tag_check 2
core_0_l1i_max_fill 2
core_0_l1d_set 64
core_0_l1d_way 12
core_0_l1d_rq_size 64
core_0_l1d_wq_size 64
core_0_l1d_pq_size 8
core_0_l1d_mshr_size 16
core_0_l1d_hit_latency 2
core_0_l1d_fill_latency 3
core_0_l1d_max_tag_check 2
core_0_l1d_max_fill 2
core_0_l2c_set 1024
core_0_l2c_way 8
core_0_l2c_rq_size 32
core_0_l2c_wq_size 32
core_0_l2c_pq_size 16
core_0_l2c_mshr_size 32
core_0_l2c_hit_latency 5
core_0_l2c_fill_latency 5
core_0_l2c_max_tag_check 1
core_0_l2c_max_fill 1
llc_set 2048
llc_way 16
llc_rq_size 32
llc_wq_size 32
llc_pq_size 32
llc_mshr_size 64
llc_hit_latency 10
llc_fill_latency 10
llc_max_tag_check 1
llc_max_fill 1
dram_channels 1
dram_ranks 1
dram_bankgroups 8
dram_banks 4
dram_rows 65536
dram_columns 1024
dram_channel_width 8
dram_rq_size 64
dram_wq_size 64
dram_size 17179869184
core_0_itlb_prefetcher no
core_0_dtlb_prefetcher no
core_0_stlb_prefetcher no
core_0_l1i_prefetcher next_line
core_0_l1d_prefetcher vberti
core_0_l2c_prefetcher ip_stride
llc_prefetcher no
llc_replacement drrip

Core_0_instructions 50000005
Core_0_cycles 92520308
Core_0_IPC 0.540422
Core_0_branch_prediction_accuracy 94.148
Core_0_branch_MPKI 6.76564
Core_0_average_ROB_occupancy_at_mispredict 171.818

Core_0_ITLB_total_access 708752
Core_0_ITLB_total_hit 708752
Core_0_ITLB_total_miss 0
Core_0_ITLB_total_MPKI 0
Core_0_ITLB_total_miss_rate 0
Core_0_ITLB_demand_access 708752
Core_0_ITLB_demand_hit 708752
Core_0_ITLB_demand_miss 0
Core_0_ITLB_demand_MPKI 0
Core_0_ITLB_demand_miss_rate 0
Core_0_ITLB_load_access 708752
Core_0_ITLB_load_hit 708752
Core_0_ITLB_load_miss 0
Core_0_ITLB_load_MPKI 0
Core_0_ITLB_load_miss_rate 0
Core_0_ITLB_rfo_access 0
Core_0_ITLB_rfo_hit 0
Core_0_ITLB_rfo_miss 0
Core_0_ITLB_rfo_MPKI 0
Core_0_ITLB_rfo_miss_rate 0
Core_0_ITLB_prefetch_access 0
Core_0_ITLB_prefetch_hit 0
Core_0_ITLB_prefetch_miss 0
Core_0_ITLB_prefetch_MPKI 0
Core_0_ITLB_prefetch_miss_rate 0
Core_0_ITLB_writeback_access 0
Core_0_ITLB_writeback_hit 0
Core_0_ITLB_writeback_miss 0
Core_0_ITLB_writeback_MPKI 0
Core_0_ITLB_writeback_miss_rate 0
Core_0_ITLB_prefetch_requested 0
Core_0_ITLB_prefetch_issued 0
Core_0_ITLB_prefetch_useful 0
Core_0_ITLB_prefetch_useless 0
Core_0_ITLB_prefetch_late 0
Core_0_ITLB_prefetch_accuracy 0
Core_0_ITLB_prefetch_coverage 0

Core_0_DTLB_total_access 18870288
Core_0_DTLB_total_hit 15364746
Core_0_DTLB_total_miss 3505542
Core_0_DTLB_total_MPKI 70.1108
Core_0_DTLB_total_miss_rate 0.18577
Core_0_DTLB_demand_access 18870288
Core_0_DTLB_demand_hit 15364746
Core_0_DTLB_demand_miss 3505542
Core_0_DTLB_demand_MPKI 70.1108
Core_0_DTLB_demand_miss_rate 0.18577
Core_0_DTLB_load_access 18870288
Core_0_DTLB_load_hit 15364746
Core_0_DTLB_load_miss 3505542
Core_0_DTLB_load_MPKI 70.1108
Core_0_DTLB_load_miss_rate 0.18577
Core_0_DTLB_rfo_access 0
Core_0_DTLB_rfo_hit 0
Core_0_DTLB_rfo_miss 0
Core_0_DTLB_rfo_MPKI 0
Core_0_DTLB_rfo_miss_rate 0
Core_0_DTLB_prefetch_access 0
Core_0_DTLB_prefetch_hit 0
Core_0_DTLB_prefetch_miss 0
Core_0_DTLB_prefetch_MPKI 0
Core_0_DTLB_prefetch_miss_rate 0
Core_0_DTLB_writeback_access 0
Core_0_DTLB_writeback_hit 0
Core_0_DTLB_writeback_miss 0
Core_0_DTLB_writeback_MPKI 0
Core_0_DTLB_writeback_miss_rate 0
Core_0_DTLB_prefetch_requested 0
Core_0_DTLB_prefetch_issued 0
Core_0_DTLB_prefetch_useful 0
Core_0_DTLB_prefetch_useless 0
Core_0_DTLB_prefetch_late 0
Core_0_DTLB_prefetch_accuracy 0
Core_0_DTLB_prefetch_coverage 0

Core_0_STLB_total_access 3290930
Core_0_STLB_total_hit 1650582
Core_0_STLB_total_miss 1640348
Core_0_STLB_total_MPKI 32.807
Core_0_STLB_total_miss_rate 0.498445
Core_0_STLB_demand_access 3290930
Core_0_STLB_demand_hit 1650582
Core_0_STLB_demand_miss 1640348
Core_0_STLB_demand_MPKI 32.807
Core_0_STLB_demand_miss_rate 0.498445
Core_0_STLB_load_access 3290930
Core_0_STLB_load_hit 1650582
Core_0_STLB_load_miss 1640348
Core_0_STLB_load_MPKI 32.807
Core_0_STLB_load_miss_rate 0.498445
Core_0_STLB_rfo_access 0
Core_0_STLB_rfo_hit 0
Core_0_STLB_rfo_miss 0
Core_0_STLB_rfo_MPKI 0
Core_0_STLB_rfo_miss_rate 0
Core_0_STLB_prefetch_access 0
Core_0_STLB_prefetch_hit 0
Core_0_STLB_prefetch_miss 0
Core_0_STLB_prefetch_MPKI 0
Core_0_STLB_prefetch_miss_rate 0
Core_0_STLB_writeback_access 0
Core_0_STLB_writeback_hit 0
Core_0_STLB_writeback_miss 0
Core_0_STLB_writeback_MPKI 0
Core_0_STLB_writeback_miss_rate 0
Core_0_STLB_prefetch_requested 0
Core_0_STLB_prefetch_issued 0
Core_0_STLB_prefetch_useful 0
Core_0_STLB_prefetch_useless 0
Core_0_STLB_prefetch_late 0
Core_0_STLB_prefetch_accuracy 0
Core_0_STLB_prefetch_coverage 0

Core_0_L1I_total_access 728106
Core_0_L1I_total_hit 728106
Core_0_L1I_total_miss 0
Core_0_L1I_total_MPKI 0
Core_0_L1I_total_miss_rate 0
Core_0_L1I_demand_access 728106
Core_0_L1I_demand_hit 728106
Core_0_L1I_demand_miss 0
Core_0_L1I_demand_MPKI 0
Core_0_L1I_demand_miss_rate 0
Core_0_L1I_load_access 728106
Core_0_L1I_load_hit 728106
Core_0_L1I_load_miss 0
Core_0_L1I_load_MPKI 0
Core_0_L1I_load_miss_rate 0
Core_0_L1I_rfo_access 0
Core_0_L1I_rfo_hit 0
Core_0_L1I_rfo_miss 0
Core_0_L1I_rfo_MPKI 0
Core_0_L1I_rfo_miss_rate 0
Core_0_L1I_prefetch_access 0
Core_0_L1I_prefetch_hit 0
Core_0_L1I_prefetch_miss 0
Core_0_L1I_prefetch_MPKI 0
Core_0_L1I_prefetch_miss_rate 0
Core_0_L1I_writeback_access 0
Core_0_L1I_writeback_hit 0
Core_0_L1I_writeback_miss 0
Core_0_L1I_writeback_MPKI 0
Core_0_L1I_writeback_miss_rate 0
Core_0_L1I_prefetch_requested 0
Core_0_L1I_prefetch_issued 0
Core_0_L1I_prefetch_useful 0
Core_0_L1I_prefetch_useless 0
Core_0_L1I_prefetch_late 0
Core_0_L1I_prefetch_accuracy 0
Core_0_L1I_prefetch_coverage 0

Core_0_L1D_total_access 20477041
Core_0_L1D_total_hit 16481087
Core_0_L1D_total_miss 3995954
Core_0_L1D_total_MPKI 79.9191
Core_0_L1D_total_miss_rate 0.195143
Core_0_L1D_demand_access 11418406
Core_0_L1D_demand_hit 8096696
Core_0_L1D_demand_miss 3321710
Core_0_L1D_demand_MPKI 66.4342
Core_0_L1D_demand_miss_rate 0.290908
Core_0_L1D_load_access 11418406
Core_0_L1D_load_hit 8096696
Core_0_L1D_load_miss 3321710
Core_0_L1D_load_MPKI 66.4342
Core_0_L1D_load_miss_rate 0.290908
Core_0_L1D_rfo_access 0
Core_0_L1D_rfo_hit 0
Core_0_L1D_rfo_miss 0
Core_0_L1D_rfo_MPKI 0
Core_0_L1D_rfo_miss_rate 0
Core_0_L1D_prefetch_access 6706912
Core_0_L1D_prefetch_hit 6032714
Core_0_L1D_prefetch_miss 674198
Core_0_L1D_prefetch_MPKI 13.484
Core_0_L1D_prefetch_miss_rate 0.100523
Core_0_L1D_writeback_access 2351723
Core_0_L1D_writeback_hit 2351677
Core_0_L1D_writeback_miss 46
Core_0_L1D_writeback_MPKI 0.00092
Core_0_L1D_writeback_miss_rate 1.95601e-05
Core_0_L1D_prefetch_requested 27296449
Core_0_L1D_prefetch_issued 6706904
Core_0_L1D_prefetch_useful 318922
Core_0_L1D_prefetch_useless 2217
Core_0_L1D_prefetch_late 578
Core_0_L1D_prefetch_accuracy 0.0475513
Core_0_L1D_prefetch_coverage 0.0876007

Core_0_L2C_total_access 4241668
Core_0_L2C_total_hit 842188
Core_0_L2C_total_miss 3399480
Core_0_L2C_total_MPKI 67.9896
Core_0_L2C_total_miss_rate 0.801449
Core_0_L2C_demand_access 3187614
Core_0_L2C_demand_hit 349283
Core_0_L2C_demand_miss 2838331
Core_0_L2C_demand_MPKI 56.7666
Core_0_L2C_demand_miss_rate 0.890425
Core_0_L2C_load_access 3187586
Core_0_L2C_load_hit 349255
Core_0_L2C_load_miss 2838331
Core_0_L2C_load_MPKI 56.7666
Core_0_L2C_load_miss_rate 0.890433
Core_0_L2C_rfo_access 28
Core_0_L2C_rfo_hit 28
Core_0_L2C_rfo_miss 0
Core_0_L2C_rfo_MPKI 0
Core_0_L2C_rfo_miss_rate 0
Core_0_L2C_prefetch_access 1011641
Core_0_L2C_prefetch_hit 450492
Core_0_L2C_prefetch_miss 561149
Core_0_L2C_prefetch_MPKI 11.223
Core_0_L2C_prefetch_miss_rate 0.554692
Core_0_L2C_writeback_access 42413
Core_0_L2C_writeback_hit 42413
Core_0_L2C_writeback_miss 0
Core_0_L2C_writeback_MPKI 0
Core_0_L2C_writeback_miss_rate 0
Core_0_L2C_prefetch_requested 350661
Core_0_L2C_prefetch_issued 350661
Core_0_L2C_prefetch_useful 116088
Core_0_L2C_prefetch_useless 40720
Core_0_L2C_prefetch_late 2500
Core_0_L2C_prefetch_accuracy 0.331055
Core_0_L2C_prefetch_coverage 0.039293

Core_0_LLC_total_access 3309222
Core_0_LLC_total_hit 490679
Core_0_LLC_total_miss 2818543
Core_0_LLC_total_MPKI 56.3709
Core_0_LLC_total_miss_rate 0.851724
Core_0_LLC_demand_access 2835457
Core_0_LLC_demand_hit 454893
Core_0_LLC_demand_miss 2380564
Core_0_LLC_demand_MPKI 47.6113
Core_0_LLC_demand_miss_rate 0.83957
Core_0_LLC_load_access 2835457
Core_0_LLC_load_hit 454893
Core_0_LLC_load_miss 2380564
Core_0_LLC_load_MPKI 47.6113
Core_0_LLC_load_miss_rate 0.83957
Core_0_LLC_rfo_access 0
Core_0_LLC_rfo_hit 0
Core_0_LLC_rfo_miss 0
Core_0_LLC_rfo_MPKI 0
Core_0_LLC_rfo_miss_rate 0
Core_0_LLC_prefetch_access 431369
Core_0_LLC_prefetch_hit 28196
Core_0_LLC_prefetch_miss 403173
Core_0_LLC_prefetch_MPKI 8.06346
Core_0_LLC_prefetch_miss_rate 0.934636
Core_0_LLC_writeback_access 42396
Core_0_LLC_writeback_hit 7590
Core_0_LLC_writeback_miss 34806
Core_0_LLC_writeback_MPKI 0.69612
Core_0_LLC_writeback_miss_rate 0.820974
Core_0_LLC_prefetch_requested 0
Core_0_LLC_prefetch_issued 0
Core_0_LLC_prefetch_useful 0
Core_0_LLC_prefetch_useless 0
Core_0_LLC_prefetch_late 0
Core_0_LLC_prefetch_accuracy 0
Core_0_LLC_prefetch_coverage 0

[DRAM Statistics]
Channel_0_RQ_row_buffer_hit 5986
Channel_0_RQ_row_buffer_miss 2780474
Channel_0_WQ_row_buffer_hit 11767
Channel_0_WQ_row_buffer_miss 30882
Channel_0_WQ_full 0
Channel_0_dbus_congested 4684750
DRAM_total_RQ_row_buffer_hit 5986
DRAM_total_RQ_row_buffer_miss 2780474
DRAM_total_WQ_row_buffer_hit 11767
DRAM_total_WQ_row_buffer_miss 30882
DRAM_total_WQ_full 0
DRAM_total_dbus_congested 4684750
DRAM_avg_congested_cycle 3.65913

====== DRAM_RQ_TRAFFIC ========
DRAM_RQ_READ_TRAFFIC_BREAKDOWN:
data_demand_read.count = 2379672
data_demand_read.share = 85.40%

inst_demand_read.count = 0
inst_demand_read.share = 0.00%

cache_inst_prefetch.count = 0
cache_inst_prefetch.share = 0.00%

cache_data_prefetch.count = 393723
cache_data_prefetch.share = 14.13%

stlb_data_demand.count = 11776
stlb_data_demand.share = 0.42%

stlb_inst_demand.count = 0
stlb_inst_demand.share = 0.00%

stlb_l1i_pref.count = 0
stlb_l1i_pref.share = 0.00%

stlb_l1d_pref.count = 1295
stlb_l1d_pref.share = 0.05%

DRAM_RQ_READ_TRAFFIC_SUMMARY:
cache_demand.count = 2379672
cache_demand.share = 85.40%

cache_prefetch.count = 393723
cache_prefetch.share = 14.13%

stlb_demand.count = 11776
stlb_demand.share = 0.42%

stlb_prefetch.count = 1295
stlb_prefetch.share = 0.05%

DRAM_RQ_READ_TRAFFIC_DEBUG:
total_classified_read.count = 2786466
unclassified_read.count = 0
total_read_with_other.count = 2786466

classified_plus_unclassified_check.count = 2786466
dram_rq_read_total_observed.count = 2786466
dram_rq_read_total_observed.per_1K_instructions = 55.7293

STLB_MISS_PTW_DRAM_TOUCH_BREAKDOWN:
stlb_miss_total.count = 1640348

stlb_miss_touch_dram.count = 13107
stlb_miss_touch_dram.share = 0.80%

stlb_miss_no_dram_touch.count = 1627241
stlb_miss_no_dram_touch.share = 99.20%

STLB_MISS_PTW_DRAM_TOUCH_DEBUG:
stlb_miss_touch_plus_no_touch.count = 1640348
stlb_miss_total_check.count = 1640348

======STLB miss causes ========
Core_0_STLB_miss_cause_breakdown
Core_0_STLB_cause_Demand_Data_miss 1617173
Core_0_STLB_cause_Demand_Data_miss_rate 0.491403
Core_0_STLB_cause_Demand_Instruction_miss 0
Core_0_STLB_cause_Demand_Instruction_miss_rate 0
Core_0_STLB_cause_L1D_Prefetch_miss 23175
Core_0_STLB_cause_L1D_Prefetch_miss_rate 0.00704208
Core_0_STLB_cause_L1I_Prefetch_miss 0
Core_0_STLB_cause_L1I_Prefetch_miss_rate 0
Core_0_STLB_cause_Other_miss 0
Core_0_STLB_cause_Other_miss_rate 0
Core_0_STLB_Demand_miss 1617173
Core_0_STLB_Demand_miss_rate 0.491403
Core_0_STLB_L1D_Prefetch_miss 23175
Core_0_STLB_L1D_Prefetch_miss_rate 0.00704208
Core_0_STLB_Other_miss 0
Core_0_STLB_Other_miss_rate 0
BERTI TO_L1: 25520763 TO_L2: 5438270 TO_L2_BC_MSHR: 2430645
BERTI AVG_LAT: 156.738 NUM_TRACK_LATENCY: 4860121 NUM_CANT_TRACK_LATENCY: 0
BERTI CROSS_PAGE 4279100 NO_CROSS_PAGE: 26679933
BERTI FOUND_BERTI: 26209819 NO_FOUND_BERTI: 6161732
BERTI AVERAGE_ISSUED: 3.60567
