[VMEM] WARNING: physical memory size is smaller than virtual memory size.

*** ChampSim Multicore Out-of-Order Simulator ***
Warmup Instructions: 20000000
Simulation Instructions: 50000000
Number of CPUs: 1
Page size: 4096
Core 0: /data0/tzh/champsim_traces/PARSEC/parsec_2.1.canneal.simlarge.prebuilt.drop_4750M.length_250M.champsimtrace.xz
VBerti Prefetcher
BERTI HASH ENTANGLING
BERTI IP MASK ffff
Off-chip DRAM Size: 16 GiB Channels: 1 Width: 64-bit Data Rate: 3205 MT/s
Warmup halting CPU 0 at instruction 20000005 cycle 6746825 for remainder of phase
Warmup finished CPU 0 instructions: 20000005 cycles: 6746825 cumulative IPC: 2.964 (Simulation time: 00 hr 01 min 30 sec)
Warmup complete CPU 0 instructions: 20000005 cycles: 6746825 cumulative IPC: 2.964 (Simulation time: 00 hr 01 min 30 sec)
Simulation finished CPU 0 instructions: 50000002 cycles: 167367428 cumulative IPC: 0.2987 (Simulation time: 00 hr 17 min 37 sec)
Simulation complete CPU 0 instructions: 50000002 cycles: 167367428 cumulative IPC: 0.2987 (Simulation time: 00 hr 17 min 37 sec)

ChampSim completed all CPUs

=== Simulation ===
CPU 0 runs /data0/tzh/champsim_traces/PARSEC/parsec_2.1.canneal.simlarge.prebuilt.drop_4750M.length_250M.champsimtrace.xz

Region of Interest Statistics

CPU 0 cumulative IPC: 0.2987 instructions: 50000002 cycles: 167367428
CPU 0 Branch Prediction Accuracy: 96.91% MPKI: 2.567 Average ROB Occupancy at Mispredict: 200.7
Branch type MPKI
BRANCH_DIRECT_JUMP: 0
BRANCH_INDIRECT: 0
BRANCH_CONDITIONAL: 2.567
BRANCH_DIRECT_CALL: 0
BRANCH_INDIRECT_CALL: 0
BRANCH_RETURN: 0

cpu0->cpu0_STLB TOTAL        ACCESS:    1211245 HIT:     599526 MISS:     611719 MSHR_MERGE:          0
cpu0->cpu0_STLB LOAD         ACCESS:    1211245 HIT:     599526 MISS:     611719 MSHR_MERGE:          0
cpu0->cpu0_STLB RFO          ACCESS:          0 HIT:          0 MISS:          0 MSHR_MERGE:          0
cpu0->cpu0_STLB PREFETCH     ACCESS:          0 HIT:          0 MISS:          0 MSHR_MERGE:          0
cpu0->cpu0_STLB WRITE        ACCESS:          0 HIT:          0 MISS:          0 MSHR_MERGE:          0
cpu0->cpu0_STLB TRANSLATION  ACCESS:          0 HIT:          0 MISS:          0 MSHR_MERGE:          0
cpu0->cpu0_STLB PREFETCH REQUESTED:          0 ISSUED:          0 USEFUL:          0 USELESS:          0 LATE:          0
cpu0->cpu0_STLB AVERAGE MISS LATENCY: 35.62 cycles
cpu0->cpu0_L2C TOTAL        ACCESS:    2642587 HIT:    1442332 MISS:    1200255 MSHR_MERGE:       5727
cpu0->cpu0_L2C LOAD         ACCESS:    1154206 HIT:     101018 MISS:    1053188 MSHR_MERGE:       1057
cpu0->cpu0_L2C RFO          ACCESS:          1 HIT:          1 MISS:          0 MSHR_MERGE:          0
cpu0->cpu0_L2C PREFETCH     ACCESS:     503302 HIT:     474130 MISS:      29172 MSHR_MERGE:       4670
cpu0->cpu0_L2C WRITE        ACCESS:     486138 HIT:     486137 MISS:          1 MSHR_MERGE:          0
cpu0->cpu0_L2C TRANSLATION  ACCESS:     498940 HIT:     381046 MISS:     117894 MSHR_MERGE:          0
cpu0->cpu0_L2C PREFETCH REQUESTED:     107061 ISSUED:     106911 USEFUL:       4580 USELESS:       9635 LATE:        998
cpu0->cpu0_L2C AVERAGE MISS LATENCY: 181.4 cycles
cpu0->cpu0_L1I TOTAL        ACCESS:    3908545 HIT:    3908545 MISS:          0 MSHR_MERGE:          0
cpu0->cpu0_L1I LOAD         ACCESS:    3908545 HIT:    3908545 MISS:          0 MSHR_MERGE:          0
cpu0->cpu0_L1I RFO          ACCESS:          0 HIT:          0 MISS:          0 MSHR_MERGE:          0
cpu0->cpu0_L1I PREFETCH     ACCESS:          0 HIT:          0 MISS:          0 MSHR_MERGE:          0
cpu0->cpu0_L1I WRITE        ACCESS:          0 HIT:          0 MISS:          0 MSHR_MERGE:          0
cpu0->cpu0_L1I TRANSLATION  ACCESS:          0 HIT:          0 MISS:          0 MSHR_MERGE:          0
cpu0->cpu0_L1I PREFETCH REQUESTED:          0 ISSUED:          0 USEFUL:          0 USELESS:          0 LATE:          0
cpu0->cpu0_L1I AVERAGE MISS LATENCY: - cycles
cpu0->cpu0_L1D TOTAL        ACCESS:   14326482 HIT:   11706872 MISS:    2619610 MSHR_MERGE:     569822
cpu0->cpu0_L1D LOAD         ACCESS:    9343808 HIT:    7620572 MISS:    1723236 MSHR_MERGE:     569030
cpu0->cpu0_L1D RFO          ACCESS:          0 HIT:          0 MISS:          0 MSHR_MERGE:          0
cpu0->cpu0_L1D PREFETCH     ACCESS:     742979 HIT:     345931 MISS:     397048 MSHR_MERGE:        407
cpu0->cpu0_L1D WRITE        ACCESS:    2944665 HIT:    2944662 MISS:          3 MSHR_MERGE:          2
cpu0->cpu0_L1D TRANSLATION  ACCESS:    1295030 HIT:     795707 MISS:     499323 MSHR_MERGE:        383
cpu0->cpu0_L1D PREFETCH REQUESTED:     931955 ISSUED:     742981 USEFUL:      24121 USELESS:       2458 LATE:        117
cpu0->cpu0_L1D AVERAGE MISS LATENCY: 137.3 cycles
cpu0->cpu0_ITLB TOTAL        ACCESS:    3553265 HIT:    3553265 MISS:          0 MSHR_MERGE:          0
cpu0->cpu0_ITLB LOAD         ACCESS:    3553265 HIT:    3553265 MISS:          0 MSHR_MERGE:          0
cpu0->cpu0_ITLB RFO          ACCESS:          0 HIT:          0 MISS:          0 MSHR_MERGE:          0
cpu0->cpu0_ITLB PREFETCH     ACCESS:          0 HIT:          0 MISS:          0 MSHR_MERGE:          0
cpu0->cpu0_ITLB WRITE        ACCESS:          0 HIT:          0 MISS:          0 MSHR_MERGE:          0
cpu0->cpu0_ITLB TRANSLATION  ACCESS:          0 HIT:          0 MISS:          0 MSHR_MERGE:          0
cpu0->cpu0_ITLB PREFETCH REQUESTED:          0 ISSUED:          0 USEFUL:          0 USELESS:          0 LATE:          0
cpu0->cpu0_ITLB AVERAGE MISS LATENCY: - cycles
cpu0->cpu0_DTLB TOTAL        ACCESS:   12593764 HIT:   10941259 MISS:    1652505 MSHR_MERGE:     441260
cpu0->cpu0_DTLB LOAD         ACCESS:   12593764 HIT:   10941259 MISS:    1652505 MSHR_MERGE:     441260
cpu0->cpu0_DTLB RFO          ACCESS:          0 HIT:          0 MISS:          0 MSHR_MERGE:          0
cpu0->cpu0_DTLB PREFETCH     ACCESS:          0 HIT:          0 MISS:          0 MSHR_MERGE:          0
cpu0->cpu0_DTLB WRITE        ACCESS:          0 HIT:          0 MISS:          0 MSHR_MERGE:          0
cpu0->cpu0_DTLB TRANSLATION  ACCESS:          0 HIT:          0 MISS:          0 MSHR_MERGE:          0
cpu0->cpu0_DTLB PREFETCH REQUESTED:          0 ISSUED:          0 USEFUL:          0 USELESS:          0 LATE:          0
cpu0->cpu0_DTLB AVERAGE MISS LATENCY: 23.5 cycles
cpu0->LLC TOTAL        ACCESS:    1660274 HIT:     594364 MISS:    1065910 MSHR_MERGE:          0
cpu0->LLC LOAD         ACCESS:    1052131 HIT:      92993 MISS:     959138 MSHR_MERGE:          0
cpu0->LLC RFO          ACCESS:          0 HIT:          0 MISS:          0 MSHR_MERGE:          0
cpu0->LLC PREFETCH     ACCESS:      24502 HIT:       3565 MISS:      20937 MSHR_MERGE:          0
cpu0->LLC WRITE        ACCESS:     465747 HIT:     412996 MISS:      52751 MSHR_MERGE:          0
cpu0->LLC TRANSLATION  ACCESS:     117894 HIT:      84810 MISS:      33084 MSHR_MERGE:          0
cpu0->LLC PREFETCH REQUESTED:          0 ISSUED:          0 USEFUL:          0 USELESS:          0 LATE:          0
cpu0->LLC AVERAGE MISS LATENCY: 186 cycles

DRAM Statistics

Channel 0 RQ ROW_BUFFER_HIT:         43
  ROW_BUFFER_MISS:    1013108
  AVG DBUS CONGESTED CYCLE: 15.75
Channel 0 WQ ROW_BUFFER_HIT:     171047
  ROW_BUFFER_MISS:     278491
  FULL:          0
Channel 0 REFRESHES ISSUED:      13947

[ROI Statistics]
[System Configuration]
num_cpus 1
cpu_freq 4000
fetch_width 6
decode_width 6
dispatch_width 6
execute_width 6
lq_width 2
sq_width 2
retire_width 6
scheduler_size 128
branch_mispredict_penalty 15
rob_size 352
lq_size 128
sq_size 72
ifetch_buffer_size 64
decode_buffer_size 32
dispatch_buffer_size 32
register_file_size 288
decode_latency 1
dispatch_latency 1
schedule_latency 1
execute_latency 1
page_size 4096
block_size 64
core_0_itlb_set 16
core_0_itlb_way 4
core_0_itlb_rq_size 16
core_0_itlb_wq_size 16
core_0_itlb_pq_size 0
core_0_itlb_mshr_size 8
core_0_itlb_hit_latency 1
core_0_itlb_fill_latency 1
core_0_itlb_max_tag_check 2
core_0_itlb_max_fill 2
core_0_dtlb_set 16
core_0_dtlb_way 4
core_0_dtlb_rq_size 16
core_0_dtlb_wq_size 16
core_0_dtlb_pq_size 0
core_0_dtlb_mshr_size 8
core_0_dtlb_hit_latency 1
core_0_dtlb_fill_latency 1
core_0_dtlb_max_tag_check 2
core_0_dtlb_max_fill 2
core_0_stlb_set 128
core_0_stlb_way 12
core_0_stlb_rq_size 32
core_0_stlb_wq_size 32
core_0_stlb_pq_size 0
core_0_stlb_mshr_size 16
core_0_stlb_hit_latency 4
core_0_stlb_fill_latency 4
core_0_stlb_max_tag_check 1
core_0_stlb_max_fill 1
core_0_l1i_set 64
core_0_l1i_way 8
core_0_l1i_rq_size 64
core_0_l1i_wq_size 64
core_0_l1i_pq_size 32
core_0_l1i_mshr_size 8
core_0_l1i_hit_latency 2
core_0_l1i_fill_latency 2
core_0_l1i_max_tag_check 2
core_0_l1i_max_fill 2
core_0_l1d_set 64
core_0_l1d_way 12
core_0_l1d_rq_size 64
core_0_l1d_wq_size 64
core_0_l1d_pq_size 8
core_0_l1d_mshr_size 16
core_0_l1d_hit_latency 2
core_0_l1d_fill_latency 3
core_0_l1d_max_tag_check 2
core_0_l1d_max_fill 2
core_0_l2c_set 1024
core_0_l2c_way 8
core_0_l2c_rq_size 32
core_0_l2c_wq_size 32
core_0_l2c_pq_size 16
core_0_l2c_mshr_size 32
core_0_l2c_hit_latency 5
core_0_l2c_fill_latency 5
core_0_l2c_max_tag_check 1
core_0_l2c_max_fill 1
llc_set 2048
llc_way 16
llc_rq_size 32
llc_wq_size 32
llc_pq_size 32
llc_mshr_size 64
llc_hit_latency 10
llc_fill_latency 10
llc_max_tag_check 1
llc_max_fill 1
dram_channels 1
dram_ranks 1
dram_bankgroups 8
dram_banks 4
dram_rows 65536
dram_columns 1024
dram_channel_width 8
dram_rq_size 64
dram_wq_size 64
dram_size 17179869184
core_0_itlb_prefetcher no
core_0_dtlb_prefetcher no
core_0_stlb_prefetcher no
core_0_l1i_prefetcher next_line
core_0_l1d_prefetcher vberti
core_0_l2c_prefetcher ip_stride
llc_prefetcher no
llc_replacement drrip

Core_0_instructions 50000002
Core_0_cycles 167367428
Core_0_IPC 0.298744
Core_0_branch_prediction_accuracy 96.9129
Core_0_branch_MPKI 2.56718
Core_0_average_ROB_occupancy_at_mispredict 200.656

Core_0_ITLB_total_access 3553265
Core_0_ITLB_total_hit 3553265
Core_0_ITLB_total_miss 0
Core_0_ITLB_total_MPKI 0
Core_0_ITLB_total_miss_rate 0
Core_0_ITLB_demand_access 3553265
Core_0_ITLB_demand_hit 3553265
Core_0_ITLB_demand_miss 0
Core_0_ITLB_demand_MPKI 0
Core_0_ITLB_demand_miss_rate 0
Core_0_ITLB_load_access 3553265
Core_0_ITLB_load_hit 3553265
Core_0_ITLB_load_miss 0
Core_0_ITLB_load_MPKI 0
Core_0_ITLB_load_miss_rate 0
Core_0_ITLB_rfo_access 0
Core_0_ITLB_rfo_hit 0
Core_0_ITLB_rfo_miss 0
Core_0_ITLB_rfo_MPKI 0
Core_0_ITLB_rfo_miss_rate 0
Core_0_ITLB_prefetch_access 0
Core_0_ITLB_prefetch_hit 0
Core_0_ITLB_prefetch_miss 0
Core_0_ITLB_prefetch_MPKI 0
Core_0_ITLB_prefetch_miss_rate 0
Core_0_ITLB_writeback_access 0
Core_0_ITLB_writeback_hit 0
Core_0_ITLB_writeback_miss 0
Core_0_ITLB_writeback_MPKI 0
Core_0_ITLB_writeback_miss_rate 0
Core_0_ITLB_prefetch_requested 0
Core_0_ITLB_prefetch_issued 0
Core_0_ITLB_prefetch_useful 0
Core_0_ITLB_prefetch_useless 0
Core_0_ITLB_prefetch_late 0
Core_0_ITLB_prefetch_accuracy 0
Core_0_ITLB_prefetch_coverage 0

Core_0_DTLB_total_access 12593764
Core_0_DTLB_total_hit 10941259
Core_0_DTLB_total_miss 1652505
Core_0_DTLB_total_MPKI 33.0501
Core_0_DTLB_total_miss_rate 0.131216
Core_0_DTLB_demand_access 12593764
Core_0_DTLB_demand_hit 10941259
Core_0_DTLB_demand_miss 1652505
Core_0_DTLB_demand_MPKI 33.0501
Core_0_DTLB_demand_miss_rate 0.131216
Core_0_DTLB_load_access 12593764
Core_0_DTLB_load_hit 10941259
Core_0_DTLB_load_miss 1652505
Core_0_DTLB_load_MPKI 33.0501
Core_0_DTLB_load_miss_rate 0.131216
Core_0_DTLB_rfo_access 0
Core_0_DTLB_rfo_hit 0
Core_0_DTLB_rfo_miss 0
Core_0_DTLB_rfo_MPKI 0
Core_0_DTLB_rfo_miss_rate 0
Core_0_DTLB_prefetch_access 0
Core_0_DTLB_prefetch_hit 0
Core_0_DTLB_prefetch_miss 0
Core_0_DTLB_prefetch_MPKI 0
Core_0_DTLB_prefetch_miss_rate 0
Core_0_DTLB_writeback_access 0
Core_0_DTLB_writeback_hit 0
Core_0_DTLB_writeback_miss 0
Core_0_DTLB_writeback_MPKI 0
Core_0_DTLB_writeback_miss_rate 0
Core_0_DTLB_prefetch_requested 0
Core_0_DTLB_prefetch_issued 0
Core_0_DTLB_prefetch_useful 0
Core_0_DTLB_prefetch_useless 0
Core_0_DTLB_prefetch_late 0
Core_0_DTLB_prefetch_accuracy 0
Core_0_DTLB_prefetch_coverage 0

Core_0_STLB_total_access 1211245
Core_0_STLB_total_hit 599526
Core_0_STLB_total_miss 611719
Core_0_STLB_total_MPKI 12.2344
Core_0_STLB_total_miss_rate 0.505033
Core_0_STLB_demand_access 1211245
Core_0_STLB_demand_hit 599526
Core_0_STLB_demand_miss 611719
Core_0_STLB_demand_MPKI 12.2344
Core_0_STLB_demand_miss_rate 0.505033
Core_0_STLB_load_access 1211245
Core_0_STLB_load_hit 599526
Core_0_STLB_load_miss 611719
Core_0_STLB_load_MPKI 12.2344
Core_0_STLB_load_miss_rate 0.505033
Core_0_STLB_rfo_access 0
Core_0_STLB_rfo_hit 0
Core_0_STLB_rfo_miss 0
Core_0_STLB_rfo_MPKI 0
Core_0_STLB_rfo_miss_rate 0
Core_0_STLB_prefetch_access 0
Core_0_STLB_prefetch_hit 0
Core_0_STLB_prefetch_miss 0
Core_0_STLB_prefetch_MPKI 0
Core_0_STLB_prefetch_miss_rate 0
Core_0_STLB_writeback_access 0
Core_0_STLB_writeback_hit 0
Core_0_STLB_writeback_miss 0
Core_0_STLB_writeback_MPKI 0
Core_0_STLB_writeback_miss_rate 0
Core_0_STLB_prefetch_requested 0
Core_0_STLB_prefetch_issued 0
Core_0_STLB_prefetch_useful 0
Core_0_STLB_prefetch_useless 0
Core_0_STLB_prefetch_late 0
Core_0_STLB_prefetch_accuracy 0
Core_0_STLB_prefetch_coverage 0

Core_0_L1I_total_access 3908545
Core_0_L1I_total_hit 3908545
Core_0_L1I_total_miss 0
Core_0_L1I_total_MPKI 0
Core_0_L1I_total_miss_rate 0
Core_0_L1I_demand_access 3908545
Core_0_L1I_demand_hit 3908545
Core_0_L1I_demand_miss 0
Core_0_L1I_demand_MPKI 0
Core_0_L1I_demand_miss_rate 0
Core_0_L1I_load_access 3908545
Core_0_L1I_load_hit 3908545
Core_0_L1I_load_miss 0
Core_0_L1I_load_MPKI 0
Core_0_L1I_load_miss_rate 0
Core_0_L1I_rfo_access 0
Core_0_L1I_rfo_hit 0
Core_0_L1I_rfo_miss 0
Core_0_L1I_rfo_MPKI 0
Core_0_L1I_rfo_miss_rate 0
Core_0_L1I_prefetch_access 0
Core_0_L1I_prefetch_hit 0
Core_0_L1I_prefetch_miss 0
Core_0_L1I_prefetch_MPKI 0
Core_0_L1I_prefetch_miss_rate 0
Core_0_L1I_writeback_access 0
Core_0_L1I_writeback_hit 0
Core_0_L1I_writeback_miss 0
Core_0_L1I_writeback_MPKI 0
Core_0_L1I_writeback_miss_rate 0
Core_0_L1I_prefetch_requested 0
Core_0_L1I_prefetch_issued 0
Core_0_L1I_prefetch_useful 0
Core_0_L1I_prefetch_useless 0
Core_0_L1I_prefetch_late 0
Core_0_L1I_prefetch_accuracy 0
Core_0_L1I_prefetch_coverage 0

Core_0_L1D_total_access 13031452
Core_0_L1D_total_hit 10911165
Core_0_L1D_total_miss 2120287
Core_0_L1D_total_MPKI 42.4057
Core_0_L1D_total_miss_rate 0.162705
Core_0_L1D_demand_access 9343808
Core_0_L1D_demand_hit 7620572
Core_0_L1D_demand_miss 1723236
Core_0_L1D_demand_MPKI 34.4647
Core_0_L1D_demand_miss_rate 0.184425
Core_0_L1D_load_access 9343808
Core_0_L1D_load_hit 7620572
Core_0_L1D_load_miss 1723236
Core_0_L1D_load_MPKI 34.4647
Core_0_L1D_load_miss_rate 0.184425
Core_0_L1D_rfo_access 0
Core_0_L1D_rfo_hit 0
Core_0_L1D_rfo_miss 0
Core_0_L1D_rfo_MPKI 0
Core_0_L1D_rfo_miss_rate 0
Core_0_L1D_prefetch_access 742979
Core_0_L1D_prefetch_hit 345931
Core_0_L1D_prefetch_miss 397048
Core_0_L1D_prefetch_MPKI 7.94096
Core_0_L1D_prefetch_miss_rate 0.5344
Core_0_L1D_writeback_access 2944665
Core_0_L1D_writeback_hit 2944662
Core_0_L1D_writeback_miss 3
Core_0_L1D_writeback_MPKI 6e-05
Core_0_L1D_writeback_miss_rate 1.01879e-06
Core_0_L1D_prefetch_requested 931955
Core_0_L1D_prefetch_issued 742981
Core_0_L1D_prefetch_useful 24121
Core_0_L1D_prefetch_useless 2458
Core_0_L1D_prefetch_late 117
Core_0_L1D_prefetch_accuracy 0.0324652
Core_0_L1D_prefetch_coverage 0.0138043

Core_0_L2C_total_access 2143647
Core_0_L2C_total_hit 1061286
Core_0_L2C_total_miss 1082361
Core_0_L2C_total_MPKI 21.6472
Core_0_L2C_total_miss_rate 0.504916
Core_0_L2C_demand_access 1154207
Core_0_L2C_demand_hit 101019
Core_0_L2C_demand_miss 1053188
Core_0_L2C_demand_MPKI 21.0638
Core_0_L2C_demand_miss_rate 0.912478
Core_0_L2C_load_access 1154206
Core_0_L2C_load_hit 101018
Core_0_L2C_load_miss 1053188
Core_0_L2C_load_MPKI 21.0638
Core_0_L2C_load_miss_rate 0.912478
Core_0_L2C_rfo_access 1
Core_0_L2C_rfo_hit 1
Core_0_L2C_rfo_miss 0
Core_0_L2C_rfo_MPKI 0
Core_0_L2C_rfo_miss_rate 0
Core_0_L2C_prefetch_access 503302
Core_0_L2C_prefetch_hit 474130
Core_0_L2C_prefetch_miss 29172
Core_0_L2C_prefetch_MPKI 0.58344
Core_0_L2C_prefetch_miss_rate 0.0579612
Core_0_L2C_writeback_access 486138
Core_0_L2C_writeback_hit 486137
Core_0_L2C_writeback_miss 1
Core_0_L2C_writeback_MPKI 2e-05
Core_0_L2C_writeback_miss_rate 2.05703e-06
Core_0_L2C_prefetch_requested 107061
Core_0_L2C_prefetch_issued 106911
Core_0_L2C_prefetch_useful 4580
Core_0_L2C_prefetch_useless 9635
Core_0_L2C_prefetch_late 998
Core_0_L2C_prefetch_accuracy 0.0428394
Core_0_L2C_prefetch_coverage 0.00432987

Core_0_LLC_total_access 1542380
Core_0_LLC_total_hit 509554
Core_0_LLC_total_miss 1032826
Core_0_LLC_total_MPKI 20.6565
Core_0_LLC_total_miss_rate 0.669631
Core_0_LLC_demand_access 1052131
Core_0_LLC_demand_hit 92993
Core_0_LLC_demand_miss 959138
Core_0_LLC_demand_MPKI 19.1828
Core_0_LLC_demand_miss_rate 0.911615
Core_0_LLC_load_access 1052131
Core_0_LLC_load_hit 92993
Core_0_LLC_load_miss 959138
Core_0_LLC_load_MPKI 19.1828
Core_0_LLC_load_miss_rate 0.911615
Core_0_LLC_rfo_access 0
Core_0_LLC_rfo_hit 0
Core_0_LLC_rfo_miss 0
Core_0_LLC_rfo_MPKI 0
Core_0_LLC_rfo_miss_rate 0
Core_0_LLC_prefetch_access 24502
Core_0_LLC_prefetch_hit 3565
Core_0_LLC_prefetch_miss 20937
Core_0_LLC_prefetch_MPKI 0.41874
Core_0_LLC_prefetch_miss_rate 0.854502
Core_0_LLC_writeback_access 465747
Core_0_LLC_writeback_hit 412996
Core_0_LLC_writeback_miss 52751
Core_0_LLC_writeback_MPKI 1.05502
Core_0_LLC_writeback_miss_rate 0.113261
Core_0_LLC_prefetch_requested 0
Core_0_LLC_prefetch_issued 0
Core_0_LLC_prefetch_useful 0
Core_0_LLC_prefetch_useless 0
Core_0_LLC_prefetch_late 0
Core_0_LLC_prefetch_accuracy 0
Core_0_LLC_prefetch_coverage 0

[DRAM Statistics]
Channel_0_RQ_row_buffer_hit 43
Channel_0_RQ_row_buffer_miss 1013108
Channel_0_WQ_row_buffer_hit 171047
Channel_0_WQ_row_buffer_miss 278491
Channel_0_WQ_full 0
Channel_0_dbus_congested 3978466
DRAM_total_RQ_row_buffer_hit 43
DRAM_total_RQ_row_buffer_miss 1013108
DRAM_total_WQ_row_buffer_hit 171047
DRAM_total_WQ_row_buffer_miss 278491
DRAM_total_WQ_full 0
DRAM_total_dbus_congested 3978466
DRAM_avg_congested_cycle 15.7532

====== DRAM_RQ_TRAFFIC ========
DRAM_RQ_READ_TRAFFIC_BREAKDOWN:
data_demand_read.count = 959138
data_demand_read.share = 94.67%

inst_demand_read.count = 0
inst_demand_read.share = 0.00%

cache_inst_prefetch.count = 0
cache_inst_prefetch.share = 0.00%

cache_data_prefetch.count = 20937
cache_data_prefetch.share = 2.07%

stlb_data_demand.count = 33077
stlb_data_demand.share = 3.26%

stlb_inst_demand.count = 0
stlb_inst_demand.share = 0.00%

stlb_l1i_pref.count = 0
stlb_l1i_pref.share = 0.00%

stlb_l1d_pref.count = 7
stlb_l1d_pref.share = 0.00%

DRAM_RQ_READ_TRAFFIC_SUMMARY:
cache_demand.count = 959138
cache_demand.share = 94.67%

cache_prefetch.count = 20937
cache_prefetch.share = 2.07%

stlb_demand.count = 33077
stlb_demand.share = 3.26%

stlb_prefetch.count = 7
stlb_prefetch.share = 0.00%

DRAM_RQ_READ_TRAFFIC_DEBUG:
total_classified_read.count = 1013159
unclassified_read.count = 0
total_read_with_other.count = 1013159

classified_plus_unclassified_check.count = 1013159
dram_rq_read_total_observed.count = 1013159
dram_rq_read_total_observed.per_1K_instructions = 20.2632

STLB_MISS_PTW_DRAM_TOUCH_BREAKDOWN:
stlb_miss_total.count = 611719

stlb_miss_touch_dram.count = 33116
stlb_miss_touch_dram.share = 5.41%

stlb_miss_no_dram_touch.count = 578603
stlb_miss_no_dram_touch.share = 94.59%

STLB_MISS_PTW_DRAM_TOUCH_DEBUG:
stlb_miss_touch_plus_no_touch.count = 611719
stlb_miss_total_check.count = 611719

======STLB miss causes ========
Core_0_STLB_miss_cause_breakdown
Core_0_STLB_cause_Demand_Data_miss 611465
Core_0_STLB_cause_Demand_Data_miss_rate 0.504824
Core_0_STLB_cause_Demand_Instruction_miss 0
Core_0_STLB_cause_Demand_Instruction_miss_rate 0
Core_0_STLB_cause_L1D_Prefetch_miss 254
Core_0_STLB_cause_L1D_Prefetch_miss_rate 0.000209702
Core_0_STLB_cause_L1I_Prefetch_miss 0
Core_0_STLB_cause_L1I_Prefetch_miss_rate 0
Core_0_STLB_cause_Other_miss 0
Core_0_STLB_cause_Other_miss_rate 0
Core_0_STLB_Demand_miss 611465
Core_0_STLB_Demand_miss_rate 0.504824
Core_0_STLB_L1D_Prefetch_miss 254
Core_0_STLB_L1D_Prefetch_miss_rate 0.000209702
Core_0_STLB_Other_miss 0
Core_0_STLB_Other_miss_rate 0
BERTI TO_L1: 478116 TO_L2: 1028535 TO_L2_BC_MSHR: 0
BERTI AVG_LAT: 132.146 NUM_TRACK_LATENCY: 1649600 NUM_CANT_TRACK_LATENCY: 0
BERTI CROSS_PAGE 158837 NO_CROSS_PAGE: 1347814
BERTI FOUND_BERTI: 8017173 NO_FOUND_BERTI: 7609379
BERTI AVERAGE_ISSUED: 3.52994
