[VMEM] WARNING: physical memory size is smaller than virtual memory size.

*** ChampSim Multicore Out-of-Order Simulator ***
Warmup Instructions: 20000000
Simulation Instructions: 50000000
Number of CPUs: 1
Page size: 4096
Core 0: /data0/tzh/champsim_traces/QMM/srv_66_new.xz
VBerti Prefetcher
BERTI HASH ENTANGLING
BERTI IP MASK ffff
Off-chip DRAM Size: 16 GiB Channels: 1 Width: 64-bit Data Rate: 3205 MT/s
[BTB] WARNING: target of return is a lower address than the corresponding call. This is usually a problem with your trace.
[BTB] WARNING: target of return is a lower address than the corresponding call. This is usually a problem with your trace.
[BTB] WARNING: target of return is a lower address than the corresponding call. This is usually a problem with your trace.
[BTB] WARNING: target of return is a lower address than the corresponding call. This is usually a problem with your trace.
[BTB] WARNING: target of return is a lower address than the corresponding call. This is usually a problem with your trace.
[BTB] WARNING: target of return is a lower address than the corresponding call. This is usually a problem with your trace.
[BTB] WARNING: target of return is a lower address than the corresponding call. This is usually a problem with your trace.
[BTB] WARNING: target of return is a lower address than the corresponding call. This is usually a problem with your trace.
[BTB] WARNING: target of return is a lower address than the corresponding call. This is usually a problem with your trace.
[BTB] WARNING: target of return is a lower address than the corresponding call. This is usually a problem with your trace.
Warmup halting CPU 0 at instruction 20000005 cycle 4550661 for remainder of phase
Warmup finished CPU 0 instructions: 20000005 cycles: 4550661 cumulative IPC: 4.395 (Simulation time: 00 hr 01 min 04 sec)
Warmup complete CPU 0 instructions: 20000005 cycles: 4550661 cumulative IPC: 4.395 (Simulation time: 00 hr 01 min 04 sec)
*** Reached end of trace: (0, "/data0/tzh/champsim_traces/QMM/srv_66_new.xz")
*** Reached end of trace: (0, "/data0/tzh/champsim_traces/QMM/srv_66_new.xz")
Simulation finished CPU 0 instructions: 50000000 cycles: 28658216 cumulative IPC: 1.745 (Simulation time: 00 hr 05 min 41 sec)
Simulation complete CPU 0 instructions: 50000000 cycles: 28658216 cumulative IPC: 1.745 (Simulation time: 00 hr 05 min 41 sec)

ChampSim completed all CPUs

=== Simulation ===
CPU 0 runs /data0/tzh/champsim_traces/QMM/srv_66_new.xz

Region of Interest Statistics

CPU 0 cumulative IPC: 1.745 instructions: 50000000 cycles: 28658216
CPU 0 Branch Prediction Accuracy: 98.4% MPKI: 2.872 Average ROB Occupancy at Mispredict: 127.4
Branch type MPKI
BRANCH_DIRECT_JUMP: 0.1642
BRANCH_INDIRECT: 0.3035
BRANCH_CONDITIONAL: 1.607
BRANCH_DIRECT_CALL: 0.2994
BRANCH_INDIRECT_CALL: 0.216
BRANCH_RETURN: 0.2823

cpu0->cpu0_STLB TOTAL        ACCESS:     811946 HIT:     725639 MISS:      86307 MSHR_MERGE:          0
cpu0->cpu0_STLB LOAD         ACCESS:     811946 HIT:     725639 MISS:      86307 MSHR_MERGE:          0
cpu0->cpu0_STLB RFO          ACCESS:          0 HIT:          0 MISS:          0 MSHR_MERGE:          0
cpu0->cpu0_STLB PREFETCH     ACCESS:          0 HIT:          0 MISS:          0 MSHR_MERGE:          0
cpu0->cpu0_STLB WRITE        ACCESS:          0 HIT:          0 MISS:          0 MSHR_MERGE:          0
cpu0->cpu0_STLB TRANSLATION  ACCESS:          0 HIT:          0 MISS:          0 MSHR_MERGE:          0
cpu0->cpu0_STLB PREFETCH REQUESTED:          0 ISSUED:          0 USEFUL:          0 USELESS:          0 LATE:          0
cpu0->cpu0_STLB AVERAGE MISS LATENCY: 39.8 cycles
cpu0->cpu0_L2C TOTAL        ACCESS:    2243520 HIT:    1457757 MISS:     785763 MSHR_MERGE:        579
cpu0->cpu0_L2C LOAD         ACCESS:    1802626 HIT:    1119462 MISS:     683164 MSHR_MERGE:         71
cpu0->cpu0_L2C RFO          ACCESS:      82931 HIT:      40308 MISS:      42623 MSHR_MERGE:          4
cpu0->cpu0_L2C PREFETCH     ACCESS:      18250 HIT:       8832 MISS:       9418 MSHR_MERGE:        504
cpu0->cpu0_L2C WRITE        ACCESS:     259965 HIT:     258539 MISS:       1426 MSHR_MERGE:          0
cpu0->cpu0_L2C TRANSLATION  ACCESS:      79748 HIT:      30616 MISS:      49132 MSHR_MERGE:          0
cpu0->cpu0_L2C PREFETCH REQUESTED:      17454 ISSUED:      17453 USEFUL:       5344 USELESS:       3412 LATE:         74
cpu0->cpu0_L2C AVERAGE MISS LATENCY: 33.41 cycles
cpu0->cpu0_L1I TOTAL        ACCESS:    7721431 HIT:    5681226 MISS:    2040205 MSHR_MERGE:     781879
cpu0->cpu0_L1I LOAD         ACCESS:    7721431 HIT:    5681226 MISS:    2040205 MSHR_MERGE:     781879
cpu0->cpu0_L1I RFO          ACCESS:          0 HIT:          0 MISS:          0 MSHR_MERGE:          0
cpu0->cpu0_L1I PREFETCH     ACCESS:          0 HIT:          0 MISS:          0 MSHR_MERGE:          0
cpu0->cpu0_L1I WRITE        ACCESS:          0 HIT:          0 MISS:          0 MSHR_MERGE:          0
cpu0->cpu0_L1I TRANSLATION  ACCESS:          0 HIT:          0 MISS:          0 MSHR_MERGE:          0
cpu0->cpu0_L1I PREFETCH REQUESTED:          0 ISSUED:          0 USEFUL:          0 USELESS:          0 LATE:          0
cpu0->cpu0_L1I AVERAGE MISS LATENCY: 13.7 cycles
cpu0->cpu0_L1D TOTAL        ACCESS:   11721909 HIT:   10669385 MISS:    1052524 MSHR_MERGE:     344738
cpu0->cpu0_L1D LOAD         ACCESS:    6537949 HIT:    5798149 MISS:     739800 MSHR_MERGE:     195497
cpu0->cpu0_L1D RFO          ACCESS:          0 HIT:          0 MISS:          0 MSHR_MERGE:          0
cpu0->cpu0_L1D PREFETCH     ACCESS:       6575 HIT:       5760 MISS:        815 MSHR_MERGE:         18
cpu0->cpu0_L1D WRITE        ACCESS:    4981073 HIT:    4750418 MISS:     230655 MSHR_MERGE:     147717
cpu0->cpu0_L1D TRANSLATION  ACCESS:     196312 HIT:     115058 MISS:      81254 MSHR_MERGE:       1506
cpu0->cpu0_L1D PREFETCH REQUESTED:       7983 ISSUED:       6567 USEFUL:         51 USELESS:          7 LATE:          5
cpu0->cpu0_L1D AVERAGE MISS LATENCY: 34.57 cycles
cpu0->cpu0_ITLB TOTAL        ACCESS:    6590601 HIT:    6093789 MISS:     496812 MSHR_MERGE:     307576
cpu0->cpu0_ITLB LOAD         ACCESS:    6590601 HIT:    6093789 MISS:     496812 MSHR_MERGE:     307576
cpu0->cpu0_ITLB RFO          ACCESS:          0 HIT:          0 MISS:          0 MSHR_MERGE:          0
cpu0->cpu0_ITLB PREFETCH     ACCESS:          0 HIT:          0 MISS:          0 MSHR_MERGE:          0
cpu0->cpu0_ITLB WRITE        ACCESS:          0 HIT:          0 MISS:          0 MSHR_MERGE:          0
cpu0->cpu0_ITLB TRANSLATION  ACCESS:          0 HIT:          0 MISS:          0 MSHR_MERGE:          0
cpu0->cpu0_ITLB PREFETCH REQUESTED:          0 ISSUED:          0 USEFUL:          0 USELESS:          0 LATE:          0
cpu0->cpu0_ITLB AVERAGE MISS LATENCY: 9.294 cycles
cpu0->cpu0_DTLB TOTAL        ACCESS:   10852867 HIT:   10008787 MISS:     844080 MSHR_MERGE:     221370
cpu0->cpu0_DTLB LOAD         ACCESS:   10852867 HIT:   10008787 MISS:     844080 MSHR_MERGE:     221370
cpu0->cpu0_DTLB RFO          ACCESS:          0 HIT:          0 MISS:          0 MSHR_MERGE:          0
cpu0->cpu0_DTLB PREFETCH     ACCESS:          0 HIT:          0 MISS:          0 MSHR_MERGE:          0
cpu0->cpu0_DTLB WRITE        ACCESS:          0 HIT:          0 MISS:          0 MSHR_MERGE:          0
cpu0->cpu0_DTLB TRANSLATION  ACCESS:          0 HIT:          0 MISS:          0 MSHR_MERGE:          0
cpu0->cpu0_DTLB PREFETCH REQUESTED:          0 ISSUED:          0 USEFUL:          0 USELESS:          0 LATE:          0
cpu0->cpu0_DTLB AVERAGE MISS LATENCY: 9.365 cycles
cpu0->LLC TOTAL        ACCESS:     920886 HIT:     836707 MISS:      84179 MSHR_MERGE:          0
cpu0->LLC LOAD         ACCESS:     683093 HIT:     622215 MISS:      60878 MSHR_MERGE:          0
cpu0->LLC RFO          ACCESS:      42619 HIT:      30690 MISS:      11929 MSHR_MERGE:          0
cpu0->LLC PREFETCH     ACCESS:       8914 HIT:       3852 MISS:       5062 MSHR_MERGE:          0
cpu0->LLC WRITE        ACCESS:     137128 HIT:     134401 MISS:       2727 MSHR_MERGE:          0
cpu0->LLC TRANSLATION  ACCESS:      49132 HIT:      45549 MISS:       3583 MSHR_MERGE:          0
cpu0->LLC PREFETCH REQUESTED:          0 ISSUED:          0 USEFUL:          0 USELESS:          0 LATE:          0
cpu0->LLC AVERAGE MISS LATENCY: 180 cycles

DRAM Statistics

Channel 0 RQ ROW_BUFFER_HIT:       3228
  ROW_BUFFER_MISS:      78221
  AVG DBUS CONGESTED CYCLE: 16.18
Channel 0 WQ ROW_BUFFER_HIT:      12626
  ROW_BUFFER_MISS:      43311
  FULL:          0
Channel 0 REFRESHES ISSUED:       2388

[ROI Statistics]
[System Configuration]
num_cpus 1
cpu_freq 4000
fetch_width 6
decode_width 6
dispatch_width 6
execute_width 6
lq_width 2
sq_width 2
retire_width 6
scheduler_size 128
branch_mispredict_penalty 15
rob_size 352
lq_size 128
sq_size 72
ifetch_buffer_size 64
decode_buffer_size 32
dispatch_buffer_size 32
register_file_size 288
decode_latency 1
dispatch_latency 1
schedule_latency 1
execute_latency 1
page_size 4096
block_size 64
core_0_itlb_set 16
core_0_itlb_way 4
core_0_itlb_rq_size 16
core_0_itlb_wq_size 16
core_0_itlb_pq_size 0
core_0_itlb_mshr_size 8
core_0_itlb_hit_latency 1
core_0_itlb_fill_latency 1
core_0_itlb_max_tag_check 2
core_0_itlb_max_fill 2
core_0_dtlb_set 16
core_0_dtlb_way 4
core_0_dtlb_rq_size 16
core_0_dtlb_wq_size 16
core_0_dtlb_pq_size 0
core_0_dtlb_mshr_size 8
core_0_dtlb_hit_latency 1
core_0_dtlb_fill_latency 1
core_0_dtlb_max_tag_check 2
core_0_dtlb_max_fill 2
core_0_stlb_set 128
core_0_stlb_way 12
core_0_stlb_rq_size 32
core_0_stlb_wq_size 32
core_0_stlb_pq_size 0
core_0_stlb_mshr_size 16
core_0_stlb_hit_latency 4
core_0_stlb_fill_latency 4
core_0_stlb_max_tag_check 1
core_0_stlb_max_fill 1
core_0_l1i_set 64
core_0_l1i_way 8
core_0_l1i_rq_size 64
core_0_l1i_wq_size 64
core_0_l1i_pq_size 32
core_0_l1i_mshr_size 8
core_0_l1i_hit_latency 2
core_0_l1i_fill_latency 2
core_0_l1i_max_tag_check 2
core_0_l1i_max_fill 2
core_0_l1d_set 64
core_0_l1d_way 12
core_0_l1d_rq_size 64
core_0_l1d_wq_size 64
core_0_l1d_pq_size 8
core_0_l1d_mshr_size 16
core_0_l1d_hit_latency 2
core_0_l1d_fill_latency 3
core_0_l1d_max_tag_check 2
core_0_l1d_max_fill 2
core_0_l2c_set 1024
core_0_l2c_way 8
core_0_l2c_rq_size 32
core_0_l2c_wq_size 32
core_0_l2c_pq_size 16
core_0_l2c_mshr_size 32
core_0_l2c_hit_latency 5
core_0_l2c_fill_latency 5
core_0_l2c_max_tag_check 1
core_0_l2c_max_fill 1
llc_set 2048
llc_way 16
llc_rq_size 32
llc_wq_size 32
llc_pq_size 32
llc_mshr_size 64
llc_hit_latency 10
llc_fill_latency 10
llc_max_tag_check 1
llc_max_fill 1
dram_channels 1
dram_ranks 1
dram_bankgroups 8
dram_banks 4
dram_rows 65536
dram_columns 1024
dram_channel_width 8
dram_rq_size 64
dram_wq_size 64
dram_size 17179869184
core_0_itlb_prefetcher no
core_0_dtlb_prefetcher no
core_0_stlb_prefetcher no
core_0_l1i_prefetcher next_line
core_0_l1d_prefetcher vberti
core_0_l2c_prefetcher ip_stride
llc_prefetcher no
llc_replacement drrip

Core_0_instructions 50000000
Core_0_cycles 28658216
Core_0_IPC 1.7447
Core_0_branch_prediction_accuracy 98.3955
Core_0_branch_MPKI 2.87248
Core_0_average_ROB_occupancy_at_mispredict 127.365

Core_0_ITLB_total_access 6590601
Core_0_ITLB_total_hit 6093789
Core_0_ITLB_total_miss 496812
Core_0_ITLB_total_MPKI 9.93624
Core_0_ITLB_total_miss_rate 0.0753819
Core_0_ITLB_demand_access 6590601
Core_0_ITLB_demand_hit 6093789
Core_0_ITLB_demand_miss 496812
Core_0_ITLB_demand_MPKI 9.93624
Core_0_ITLB_demand_miss_rate 0.0753819
Core_0_ITLB_load_access 6590601
Core_0_ITLB_load_hit 6093789
Core_0_ITLB_load_miss 496812
Core_0_ITLB_load_MPKI 9.93624
Core_0_ITLB_load_miss_rate 0.0753819
Core_0_ITLB_rfo_access 0
Core_0_ITLB_rfo_hit 0
Core_0_ITLB_rfo_miss 0
Core_0_ITLB_rfo_MPKI 0
Core_0_ITLB_rfo_miss_rate 0
Core_0_ITLB_prefetch_access 0
Core_0_ITLB_prefetch_hit 0
Core_0_ITLB_prefetch_miss 0
Core_0_ITLB_prefetch_MPKI 0
Core_0_ITLB_prefetch_miss_rate 0
Core_0_ITLB_writeback_access 0
Core_0_ITLB_writeback_hit 0
Core_0_ITLB_writeback_miss 0
Core_0_ITLB_writeback_MPKI 0
Core_0_ITLB_writeback_miss_rate 0
Core_0_ITLB_prefetch_requested 0
Core_0_ITLB_prefetch_issued 0
Core_0_ITLB_prefetch_useful 0
Core_0_ITLB_prefetch_useless 0
Core_0_ITLB_prefetch_late 0
Core_0_ITLB_prefetch_accuracy 0
Core_0_ITLB_prefetch_coverage 0

Core_0_DTLB_total_access 10852867
Core_0_DTLB_total_hit 10008787
Core_0_DTLB_total_miss 844080
Core_0_DTLB_total_MPKI 16.8816
Core_0_DTLB_total_miss_rate 0.0777748
Core_0_DTLB_demand_access 10852867
Core_0_DTLB_demand_hit 10008787
Core_0_DTLB_demand_miss 844080
Core_0_DTLB_demand_MPKI 16.8816
Core_0_DTLB_demand_miss_rate 0.0777748
Core_0_DTLB_load_access 10852867
Core_0_DTLB_load_hit 10008787
Core_0_DTLB_load_miss 844080
Core_0_DTLB_load_MPKI 16.8816
Core_0_DTLB_load_miss_rate 0.0777748
Core_0_DTLB_rfo_access 0
Core_0_DTLB_rfo_hit 0
Core_0_DTLB_rfo_miss 0
Core_0_DTLB_rfo_MPKI 0
Core_0_DTLB_rfo_miss_rate 0
Core_0_DTLB_prefetch_access 0
Core_0_DTLB_prefetch_hit 0
Core_0_DTLB_prefetch_miss 0
Core_0_DTLB_prefetch_MPKI 0
Core_0_DTLB_prefetch_miss_rate 0
Core_0_DTLB_writeback_access 0
Core_0_DTLB_writeback_hit 0
Core_0_DTLB_writeback_miss 0
Core_0_DTLB_writeback_MPKI 0
Core_0_DTLB_writeback_miss_rate 0
Core_0_DTLB_prefetch_requested 0
Core_0_DTLB_prefetch_issued 0
Core_0_DTLB_prefetch_useful 0
Core_0_DTLB_prefetch_useless 0
Core_0_DTLB_prefetch_late 0
Core_0_DTLB_prefetch_accuracy 0
Core_0_DTLB_prefetch_coverage 0

Core_0_STLB_total_access 811946
Core_0_STLB_total_hit 725639
Core_0_STLB_total_miss 86307
Core_0_STLB_total_MPKI 1.72614
Core_0_STLB_total_miss_rate 0.106296
Core_0_STLB_demand_access 811946
Core_0_STLB_demand_hit 725639
Core_0_STLB_demand_miss 86307
Core_0_STLB_demand_MPKI 1.72614
Core_0_STLB_demand_miss_rate 0.106296
Core_0_STLB_load_access 811946
Core_0_STLB_load_hit 725639
Core_0_STLB_load_miss 86307
Core_0_STLB_load_MPKI 1.72614
Core_0_STLB_load_miss_rate 0.106296
Core_0_STLB_rfo_access 0
Core_0_STLB_rfo_hit 0
Core_0_STLB_rfo_miss 0
Core_0_STLB_rfo_MPKI 0
Core_0_STLB_rfo_miss_rate 0
Core_0_STLB_prefetch_access 0
Core_0_STLB_prefetch_hit 0
Core_0_STLB_prefetch_miss 0
Core_0_STLB_prefetch_MPKI 0
Core_0_STLB_prefetch_miss_rate 0
Core_0_STLB_writeback_access 0
Core_0_STLB_writeback_hit 0
Core_0_STLB_writeback_miss 0
Core_0_STLB_writeback_MPKI 0
Core_0_STLB_writeback_miss_rate 0
Core_0_STLB_prefetch_requested 0
Core_0_STLB_prefetch_issued 0
Core_0_STLB_prefetch_useful 0
Core_0_STLB_prefetch_useless 0
Core_0_STLB_prefetch_late 0
Core_0_STLB_prefetch_accuracy 0
Core_0_STLB_prefetch_coverage 0

Core_0_L1I_total_access 7721431
Core_0_L1I_total_hit 5681226
Core_0_L1I_total_miss 2040205
Core_0_L1I_total_MPKI 40.8041
Core_0_L1I_total_miss_rate 0.264226
Core_0_L1I_demand_access 7721431
Core_0_L1I_demand_hit 5681226
Core_0_L1I_demand_miss 2040205
Core_0_L1I_demand_MPKI 40.8041
Core_0_L1I_demand_miss_rate 0.264226
Core_0_L1I_load_access 7721431
Core_0_L1I_load_hit 5681226
Core_0_L1I_load_miss 2040205
Core_0_L1I_load_MPKI 40.8041
Core_0_L1I_load_miss_rate 0.264226
Core_0_L1I_rfo_access 0
Core_0_L1I_rfo_hit 0
Core_0_L1I_rfo_miss 0
Core_0_L1I_rfo_MPKI 0
Core_0_L1I_rfo_miss_rate 0
Core_0_L1I_prefetch_access 0
Core_0_L1I_prefetch_hit 0
Core_0_L1I_prefetch_miss 0
Core_0_L1I_prefetch_MPKI 0
Core_0_L1I_prefetch_miss_rate 0
Core_0_L1I_writeback_access 0
Core_0_L1I_writeback_hit 0
Core_0_L1I_writeback_miss 0
Core_0_L1I_writeback_MPKI 0
Core_0_L1I_writeback_miss_rate 0
Core_0_L1I_prefetch_requested 0
Core_0_L1I_prefetch_issued 0
Core_0_L1I_prefetch_useful 0
Core_0_L1I_prefetch_useless 0
Core_0_L1I_prefetch_late 0
Core_0_L1I_prefetch_accuracy 0
Core_0_L1I_prefetch_coverage 0

Core_0_L1D_total_access 11525597
Core_0_L1D_total_hit 10554327
Core_0_L1D_total_miss 971270
Core_0_L1D_total_MPKI 19.4254
Core_0_L1D_total_miss_rate 0.0842707
Core_0_L1D_demand_access 6537949
Core_0_L1D_demand_hit 5798149
Core_0_L1D_demand_miss 739800
Core_0_L1D_demand_MPKI 14.796
Core_0_L1D_demand_miss_rate 0.113155
Core_0_L1D_load_access 6537949
Core_0_L1D_load_hit 5798149
Core_0_L1D_load_miss 739800
Core_0_L1D_load_MPKI 14.796
Core_0_L1D_load_miss_rate 0.113155
Core_0_L1D_rfo_access 0
Core_0_L1D_rfo_hit 0
Core_0_L1D_rfo_miss 0
Core_0_L1D_rfo_MPKI 0
Core_0_L1D_rfo_miss_rate 0
Core_0_L1D_prefetch_access 6575
Core_0_L1D_prefetch_hit 5760
Core_0_L1D_prefetch_miss 815
Core_0_L1D_prefetch_MPKI 0.0163
Core_0_L1D_prefetch_miss_rate 0.123954
Core_0_L1D_writeback_access 4981073
Core_0_L1D_writeback_hit 4750418
Core_0_L1D_writeback_miss 230655
Core_0_L1D_writeback_MPKI 4.6131
Core_0_L1D_writeback_miss_rate 0.0463063
Core_0_L1D_prefetch_requested 7983
Core_0_L1D_prefetch_issued 6567
Core_0_L1D_prefetch_useful 51
Core_0_L1D_prefetch_useless 7
Core_0_L1D_prefetch_late 5
Core_0_L1D_prefetch_accuracy 0.0077661
Core_0_L1D_prefetch_coverage 6.89328e-05

Core_0_L2C_total_access 2163772
Core_0_L2C_total_hit 1427141
Core_0_L2C_total_miss 736631
Core_0_L2C_total_MPKI 14.7326
Core_0_L2C_total_miss_rate 0.340438
Core_0_L2C_demand_access 1885557
Core_0_L2C_demand_hit 1159770
Core_0_L2C_demand_miss 725787
Core_0_L2C_demand_MPKI 14.5157
Core_0_L2C_demand_miss_rate 0.384919
Core_0_L2C_load_access 1802626
Core_0_L2C_load_hit 1119462
Core_0_L2C_load_miss 683164
Core_0_L2C_load_MPKI 13.6633
Core_0_L2C_load_miss_rate 0.378983
Core_0_L2C_rfo_access 82931
Core_0_L2C_rfo_hit 40308
Core_0_L2C_rfo_miss 42623
Core_0_L2C_rfo_MPKI 0.85246
Core_0_L2C_rfo_miss_rate 0.513957
Core_0_L2C_prefetch_access 18250
Core_0_L2C_prefetch_hit 8832
Core_0_L2C_prefetch_miss 9418
Core_0_L2C_prefetch_MPKI 0.18836
Core_0_L2C_prefetch_miss_rate 0.516055
Core_0_L2C_writeback_access 259965
Core_0_L2C_writeback_hit 258539
Core_0_L2C_writeback_miss 1426
Core_0_L2C_writeback_MPKI 0.02852
Core_0_L2C_writeback_miss_rate 0.00548535
Core_0_L2C_prefetch_requested 17454
Core_0_L2C_prefetch_issued 17453
Core_0_L2C_prefetch_useful 5344
Core_0_L2C_prefetch_useless 3412
Core_0_L2C_prefetch_late 74
Core_0_L2C_prefetch_accuracy 0.306194
Core_0_L2C_prefetch_coverage 0.00730922

Core_0_LLC_total_access 871754
Core_0_LLC_total_hit 791158
Core_0_LLC_total_miss 80596
Core_0_LLC_total_MPKI 1.61192
Core_0_LLC_total_miss_rate 0.0924527
Core_0_LLC_demand_access 725712
Core_0_LLC_demand_hit 652905
Core_0_LLC_demand_miss 72807
Core_0_LLC_demand_MPKI 1.45614
Core_0_LLC_demand_miss_rate 0.100325
Core_0_LLC_load_access 683093
Core_0_LLC_load_hit 622215
Core_0_LLC_load_miss 60878
Core_0_LLC_load_MPKI 1.21756
Core_0_LLC_load_miss_rate 0.0891211
Core_0_LLC_rfo_access 42619
Core_0_LLC_rfo_hit 30690
Core_0_LLC_rfo_miss 11929
Core_0_LLC_rfo_MPKI 0.23858
Core_0_LLC_rfo_miss_rate 0.279899
Core_0_LLC_prefetch_access 8914
Core_0_LLC_prefetch_hit 3852
Core_0_LLC_prefetch_miss 5062
Core_0_LLC_prefetch_MPKI 0.10124
Core_0_LLC_prefetch_miss_rate 0.567871
Core_0_LLC_writeback_access 137128
Core_0_LLC_writeback_hit 134401
Core_0_LLC_writeback_miss 2727
Core_0_LLC_writeback_MPKI 0.05454
Core_0_LLC_writeback_miss_rate 0.0198865
Core_0_LLC_prefetch_requested 0
Core_0_LLC_prefetch_issued 0
Core_0_LLC_prefetch_useful 0
Core_0_LLC_prefetch_useless 0
Core_0_LLC_prefetch_late 0
Core_0_LLC_prefetch_accuracy 0
Core_0_LLC_prefetch_coverage 0

[DRAM Statistics]
Channel_0_RQ_row_buffer_hit 3228
Channel_0_RQ_row_buffer_miss 78221
Channel_0_WQ_row_buffer_hit 12626
Channel_0_WQ_row_buffer_miss 43311
Channel_0_WQ_full 0
Channel_0_dbus_congested 435182
DRAM_total_RQ_row_buffer_hit 3228
DRAM_total_RQ_row_buffer_miss 78221
DRAM_total_WQ_row_buffer_hit 12626
DRAM_total_WQ_row_buffer_miss 43311
DRAM_total_WQ_full 0
DRAM_total_dbus_congested 435182
DRAM_avg_congested_cycle 16.1818

====== DRAM_RQ_TRAFFIC ========
DRAM_RQ_READ_TRAFFIC_BREAKDOWN:
data_demand_read.count = 67295
data_demand_read.share = 82.62%

inst_demand_read.count = 5512
inst_demand_read.share = 6.77%

cache_inst_prefetch.count = 0
cache_inst_prefetch.share = 0.00%

cache_data_prefetch.count = 5062
cache_data_prefetch.share = 6.21%

stlb_data_demand.count = 3468
stlb_data_demand.share = 4.26%

stlb_inst_demand.count = 115
stlb_inst_demand.share = 0.14%

stlb_l1i_pref.count = 0
stlb_l1i_pref.share = 0.00%

stlb_l1d_pref.count = 0
stlb_l1d_pref.share = 0.00%

DRAM_RQ_READ_TRAFFIC_SUMMARY:
cache_demand.count = 72807
cache_demand.share = 89.39%

cache_prefetch.count = 5062
cache_prefetch.share = 6.21%

stlb_demand.count = 3583
stlb_demand.share = 4.40%

stlb_prefetch.count = 0
stlb_prefetch.share = 0.00%

DRAM_RQ_READ_TRAFFIC_DEBUG:
total_classified_read.count = 81452
unclassified_read.count = 0
total_read_with_other.count = 81452

classified_plus_unclassified_check.count = 81452
dram_rq_read_total_observed.count = 81452
dram_rq_read_total_observed.per_1K_instructions = 1.62904

STLB_MISS_PTW_DRAM_TOUCH_BREAKDOWN:
stlb_miss_total.count = 86307

stlb_miss_touch_dram.count = 3578
stlb_miss_touch_dram.share = 4.15%

stlb_miss_no_dram_touch.count = 82729
stlb_miss_no_dram_touch.share = 95.85%

STLB_MISS_PTW_DRAM_TOUCH_DEBUG:
stlb_miss_touch_plus_no_touch.count = 86307
stlb_miss_total_check.count = 86307

======STLB miss causes ========
Core_0_STLB_miss_cause_breakdown
Core_0_STLB_cause_Demand_Data_miss 54861
Core_0_STLB_cause_Demand_Data_miss_rate 0.0675673
Core_0_STLB_cause_Demand_Instruction_miss 31439
Core_0_STLB_cause_Demand_Instruction_miss_rate 0.0387206
Core_0_STLB_cause_L1D_Prefetch_miss 7
Core_0_STLB_cause_L1D_Prefetch_miss_rate 8.62126e-06
Core_0_STLB_cause_L1I_Prefetch_miss 0
Core_0_STLB_cause_L1I_Prefetch_miss_rate 0
Core_0_STLB_cause_Other_miss 0
Core_0_STLB_cause_Other_miss_rate 0
Core_0_STLB_Demand_miss 86300
Core_0_STLB_Demand_miss_rate 0.106288
Core_0_STLB_L1D_Prefetch_miss 7
Core_0_STLB_L1D_Prefetch_miss_rate 8.62126e-06
Core_0_STLB_Other_miss 0
Core_0_STLB_Other_miss_rate 0
BERTI TO_L1: 35564 TO_L2: 33445 TO_L2_BC_MSHR: 898
BERTI AVG_LAT: 27.1447 NUM_TRACK_LATENCY: 876649 NUM_CANT_TRACK_LATENCY: 0
BERTI CROSS_PAGE 9432 NO_CROSS_PAGE: 59577
BERTI FOUND_BERTI: 446475 NO_FOUND_BERTI: 15022931
BERTI AVERAGE_ISSUED: 4.39611
