[VMEM] WARNING: physical memory size is smaller than virtual memory size.

*** ChampSim Multicore Out-of-Order Simulator ***
Warmup Instructions: 20000000
Simulation Instructions: 50000000
Number of CPUs: 1
Page size: 4096
Core 0: /data0/tzh/champsim_traces/QMM/srv_2_new.xz
VBerti Prefetcher
BERTI HASH ENTANGLING
BERTI IP MASK ffff
Off-chip DRAM Size: 16 GiB Channels: 1 Width: 64-bit Data Rate: 3205 MT/s
[BTB] WARNING: target of return is a lower address than the corresponding call. This is usually a problem with your trace.
[BTB] WARNING: target of return is a lower address than the corresponding call. This is usually a problem with your trace.
[BTB] WARNING: target of return is a lower address than the corresponding call. This is usually a problem with your trace.
[BTB] WARNING: target of return is a lower address than the corresponding call. This is usually a problem with your trace.
[BTB] WARNING: target of return is a lower address than the corresponding call. This is usually a problem with your trace.
[BTB] WARNING: target of return is a lower address than the corresponding call. This is usually a problem with your trace.
[BTB] WARNING: target of return is a lower address than the corresponding call. This is usually a problem with your trace.
[BTB] WARNING: target of return is a lower address than the corresponding call. This is usually a problem with your trace.
[BTB] WARNING: target of return is a lower address than the corresponding call. This is usually a problem with your trace.
[BTB] WARNING: target of return is a lower address than the corresponding call. This is usually a problem with your trace.
Warmup halting CPU 0 at instruction 20000004 cycle 4501238 for remainder of phase
Warmup finished CPU 0 instructions: 20000004 cycles: 4501238 cumulative IPC: 4.443 (Simulation time: 00 hr 01 min 09 sec)
Warmup complete CPU 0 instructions: 20000004 cycles: 4501238 cumulative IPC: 4.443 (Simulation time: 00 hr 01 min 09 sec)
*** Reached end of trace: (0, "/data0/tzh/champsim_traces/QMM/srv_2_new.xz")
*** Reached end of trace: (0, "/data0/tzh/champsim_traces/QMM/srv_2_new.xz")
Simulation finished CPU 0 instructions: 50000005 cycles: 28843833 cumulative IPC: 1.733 (Simulation time: 00 hr 05 min 57 sec)
Simulation complete CPU 0 instructions: 50000005 cycles: 28843833 cumulative IPC: 1.733 (Simulation time: 00 hr 05 min 57 sec)

ChampSim completed all CPUs

=== Simulation ===
CPU 0 runs /data0/tzh/champsim_traces/QMM/srv_2_new.xz

Region of Interest Statistics

CPU 0 cumulative IPC: 1.733 instructions: 50000005 cycles: 28843833
CPU 0 Branch Prediction Accuracy: 98.44% MPKI: 2.79 Average ROB Occupancy at Mispredict: 131.6
Branch type MPKI
BRANCH_DIRECT_JUMP: 0.1725
BRANCH_INDIRECT: 0.1659
BRANCH_CONDITIONAL: 1.718
BRANCH_DIRECT_CALL: 0.3372
BRANCH_INDIRECT_CALL: 0.08928
BRANCH_RETURN: 0.3073

cpu0->cpu0_STLB TOTAL        ACCESS:     826067 HIT:     742348 MISS:      83719 MSHR_MERGE:          0
cpu0->cpu0_STLB LOAD         ACCESS:     826067 HIT:     742348 MISS:      83719 MSHR_MERGE:          0
cpu0->cpu0_STLB RFO          ACCESS:          0 HIT:          0 MISS:          0 MSHR_MERGE:          0
cpu0->cpu0_STLB PREFETCH     ACCESS:          0 HIT:          0 MISS:          0 MSHR_MERGE:          0
cpu0->cpu0_STLB WRITE        ACCESS:          0 HIT:          0 MISS:          0 MSHR_MERGE:          0
cpu0->cpu0_STLB TRANSLATION  ACCESS:          0 HIT:          0 MISS:          0 MSHR_MERGE:          0
cpu0->cpu0_STLB PREFETCH REQUESTED:          0 ISSUED:          0 USEFUL:          0 USELESS:          0 LATE:          0
cpu0->cpu0_STLB AVERAGE MISS LATENCY: 41.04 cycles
cpu0->cpu0_L2C TOTAL        ACCESS:    2282773 HIT:    1456251 MISS:     826522 MSHR_MERGE:        493
cpu0->cpu0_L2C LOAD         ACCESS:    1839482 HIT:    1113631 MISS:     725851 MSHR_MERGE:         58
cpu0->cpu0_L2C RFO          ACCESS:      84282 HIT:      41312 MISS:      42970 MSHR_MERGE:          0
cpu0->cpu0_L2C PREFETCH     ACCESS:      19356 HIT:       9954 MISS:       9402 MSHR_MERGE:        435
cpu0->cpu0_L2C WRITE        ACCESS:     261434 HIT:     260261 MISS:       1173 MSHR_MERGE:          0
cpu0->cpu0_L2C TRANSLATION  ACCESS:      78219 HIT:      31093 MISS:      47126 MSHR_MERGE:          0
cpu0->cpu0_L2C PREFETCH REQUESTED:      18481 ISSUED:      18412 USEFUL:       5519 USELESS:       3367 LATE:         57
cpu0->cpu0_L2C AVERAGE MISS LATENCY: 33.41 cycles
cpu0->cpu0_L1I TOTAL        ACCESS:    7876586 HIT:    5783023 MISS:    2093563 MSHR_MERGE:     803304
cpu0->cpu0_L1I LOAD         ACCESS:    7876586 HIT:    5783023 MISS:    2093563 MSHR_MERGE:     803304
cpu0->cpu0_L1I RFO          ACCESS:          0 HIT:          0 MISS:          0 MSHR_MERGE:          0
cpu0->cpu0_L1I PREFETCH     ACCESS:          0 HIT:          0 MISS:          0 MSHR_MERGE:          0
cpu0->cpu0_L1I WRITE        ACCESS:          0 HIT:          0 MISS:          0 MSHR_MERGE:          0
cpu0->cpu0_L1I TRANSLATION  ACCESS:          0 HIT:          0 MISS:          0 MSHR_MERGE:          0
cpu0->cpu0_L1I PREFETCH REQUESTED:          0 ISSUED:          0 USEFUL:          0 USELESS:          0 LATE:          0
cpu0->cpu0_L1I AVERAGE MISS LATENCY: 14.24 cycles
cpu0->cpu0_L1D TOTAL        ACCESS:   11604012 HIT:   10552463 MISS:    1051549 MSHR_MERGE:     338869
cpu0->cpu0_L1D LOAD         ACCESS:    6443437 HIT:    5703625 MISS:     739812 MSHR_MERGE:     190586
cpu0->cpu0_L1D RFO          ACCESS:          0 HIT:          0 MISS:          0 MSHR_MERGE:          0
cpu0->cpu0_L1D PREFETCH     ACCESS:       6145 HIT:       5201 MISS:        944 MSHR_MERGE:          0
cpu0->cpu0_L1D WRITE        ACCESS:    4963844 HIT:    4732819 MISS:     231025 MSHR_MERGE:     146734
cpu0->cpu0_L1D TRANSLATION  ACCESS:     190586 HIT:     110818 MISS:      79768 MSHR_MERGE:       1549
cpu0->cpu0_L1D PREFETCH REQUESTED:       6400 ISSUED:       6145 USEFUL:         69 USELESS:          6 LATE:          0
cpu0->cpu0_L1D AVERAGE MISS LATENCY: 35.08 cycles
cpu0->cpu0_ITLB TOTAL        ACCESS:    6682616 HIT:    6192612 MISS:     490004 MSHR_MERGE:     303678
cpu0->cpu0_ITLB LOAD         ACCESS:    6682616 HIT:    6192612 MISS:     490004 MSHR_MERGE:     303678
cpu0->cpu0_ITLB RFO          ACCESS:          0 HIT:          0 MISS:          0 MSHR_MERGE:          0
cpu0->cpu0_ITLB PREFETCH     ACCESS:          0 HIT:          0 MISS:          0 MSHR_MERGE:          0
cpu0->cpu0_ITLB WRITE        ACCESS:          0 HIT:          0 MISS:          0 MSHR_MERGE:          0
cpu0->cpu0_ITLB TRANSLATION  ACCESS:          0 HIT:          0 MISS:          0 MSHR_MERGE:          0
cpu0->cpu0_ITLB PREFETCH REQUESTED:          0 ISSUED:          0 USEFUL:          0 USELESS:          0 LATE:          0
cpu0->cpu0_ITLB AVERAGE MISS LATENCY: 9.232 cycles
cpu0->cpu0_DTLB TOTAL        ACCESS:   10740814 HIT:    9878415 MISS:     862399 MSHR_MERGE:     222659
cpu0->cpu0_DTLB LOAD         ACCESS:   10740814 HIT:    9878415 MISS:     862399 MSHR_MERGE:     222659
cpu0->cpu0_DTLB RFO          ACCESS:          0 HIT:          0 MISS:          0 MSHR_MERGE:          0
cpu0->cpu0_DTLB PREFETCH     ACCESS:          0 HIT:          0 MISS:          0 MSHR_MERGE:          0
cpu0->cpu0_DTLB WRITE        ACCESS:          0 HIT:          0 MISS:          0 MSHR_MERGE:          0
cpu0->cpu0_DTLB TRANSLATION  ACCESS:          0 HIT:          0 MISS:          0 MSHR_MERGE:          0
cpu0->cpu0_DTLB PREFETCH REQUESTED:          0 ISSUED:          0 USEFUL:          0 USELESS:          0 LATE:          0
cpu0->cpu0_DTLB AVERAGE MISS LATENCY: 9.285 cycles
cpu0->LLC TOTAL        ACCESS:     961420 HIT:     873796 MISS:      87624 MSHR_MERGE:          0
cpu0->LLC LOAD         ACCESS:     725793 HIT:     661281 MISS:      64512 MSHR_MERGE:          0
cpu0->LLC RFO          ACCESS:      42970 HIT:      31251 MISS:      11719 MSHR_MERGE:          0
cpu0->LLC PREFETCH     ACCESS:       8967 HIT:       3710 MISS:       5257 MSHR_MERGE:          0
cpu0->LLC WRITE        ACCESS:     136564 HIT:     134108 MISS:       2456 MSHR_MERGE:          0
cpu0->LLC TRANSLATION  ACCESS:      47126 HIT:      43446 MISS:       3680 MSHR_MERGE:          0
cpu0->LLC PREFETCH REQUESTED:          0 ISSUED:          0 USEFUL:          0 USELESS:          0 LATE:          0
cpu0->LLC AVERAGE MISS LATENCY: 182 cycles

DRAM Statistics

Channel 0 RQ ROW_BUFFER_HIT:       3209
  ROW_BUFFER_MISS:      81957
  AVG DBUS CONGESTED CYCLE: 16.32
Channel 0 WQ ROW_BUFFER_HIT:      13062
  ROW_BUFFER_MISS:      42705
  FULL:          0
Channel 0 REFRESHES ISSUED:       2403

[ROI Statistics]
[System Configuration]
num_cpus 1
cpu_freq 4000
fetch_width 6
decode_width 6
dispatch_width 6
execute_width 6
lq_width 2
sq_width 2
retire_width 6
scheduler_size 128
branch_mispredict_penalty 15
rob_size 352
lq_size 128
sq_size 72
ifetch_buffer_size 64
decode_buffer_size 32
dispatch_buffer_size 32
register_file_size 288
decode_latency 1
dispatch_latency 1
schedule_latency 1
execute_latency 1
page_size 4096
block_size 64
core_0_itlb_set 16
core_0_itlb_way 4
core_0_itlb_rq_size 16
core_0_itlb_wq_size 16
core_0_itlb_pq_size 0
core_0_itlb_mshr_size 8
core_0_itlb_hit_latency 1
core_0_itlb_fill_latency 1
core_0_itlb_max_tag_check 2
core_0_itlb_max_fill 2
core_0_dtlb_set 16
core_0_dtlb_way 4
core_0_dtlb_rq_size 16
core_0_dtlb_wq_size 16
core_0_dtlb_pq_size 0
core_0_dtlb_mshr_size 8
core_0_dtlb_hit_latency 1
core_0_dtlb_fill_latency 1
core_0_dtlb_max_tag_check 2
core_0_dtlb_max_fill 2
core_0_stlb_set 128
core_0_stlb_way 12
core_0_stlb_rq_size 32
core_0_stlb_wq_size 32
core_0_stlb_pq_size 0
core_0_stlb_mshr_size 16
core_0_stlb_hit_latency 4
core_0_stlb_fill_latency 4
core_0_stlb_max_tag_check 1
core_0_stlb_max_fill 1
core_0_l1i_set 64
core_0_l1i_way 8
core_0_l1i_rq_size 64
core_0_l1i_wq_size 64
core_0_l1i_pq_size 32
core_0_l1i_mshr_size 8
core_0_l1i_hit_latency 2
core_0_l1i_fill_latency 2
core_0_l1i_max_tag_check 2
core_0_l1i_max_fill 2
core_0_l1d_set 64
core_0_l1d_way 12
core_0_l1d_rq_size 64
core_0_l1d_wq_size 64
core_0_l1d_pq_size 8
core_0_l1d_mshr_size 16
core_0_l1d_hit_latency 2
core_0_l1d_fill_latency 3
core_0_l1d_max_tag_check 2
core_0_l1d_max_fill 2
core_0_l2c_set 1024
core_0_l2c_way 8
core_0_l2c_rq_size 32
core_0_l2c_wq_size 32
core_0_l2c_pq_size 16
core_0_l2c_mshr_size 32
core_0_l2c_hit_latency 5
core_0_l2c_fill_latency 5
core_0_l2c_max_tag_check 1
core_0_l2c_max_fill 1
llc_set 2048
llc_way 16
llc_rq_size 32
llc_wq_size 32
llc_pq_size 32
llc_mshr_size 64
llc_hit_latency 10
llc_fill_latency 10
llc_max_tag_check 1
llc_max_fill 1
dram_channels 1
dram_ranks 1
dram_bankgroups 8
dram_banks 4
dram_rows 65536
dram_columns 1024
dram_channel_width 8
dram_rq_size 64
dram_wq_size 64
dram_size 17179869184
core_0_itlb_prefetcher no
core_0_dtlb_prefetcher no
core_0_stlb_prefetcher no
core_0_l1i_prefetcher next_line
core_0_l1d_prefetcher vberti
core_0_l2c_prefetcher ip_stride
llc_prefetcher no
llc_replacement drrip

Core_0_instructions 50000005
Core_0_cycles 28843833
Core_0_IPC 1.73347
Core_0_branch_prediction_accuracy 98.4368
Core_0_branch_MPKI 2.79002
Core_0_average_ROB_occupancy_at_mispredict 131.567

Core_0_ITLB_total_access 6682616
Core_0_ITLB_total_hit 6192612
Core_0_ITLB_total_miss 490004
Core_0_ITLB_total_MPKI 9.80008
Core_0_ITLB_total_miss_rate 0.0733252
Core_0_ITLB_demand_access 6682616
Core_0_ITLB_demand_hit 6192612
Core_0_ITLB_demand_miss 490004
Core_0_ITLB_demand_MPKI 9.80008
Core_0_ITLB_demand_miss_rate 0.0733252
Core_0_ITLB_load_access 6682616
Core_0_ITLB_load_hit 6192612
Core_0_ITLB_load_miss 490004
Core_0_ITLB_load_MPKI 9.80008
Core_0_ITLB_load_miss_rate 0.0733252
Core_0_ITLB_rfo_access 0
Core_0_ITLB_rfo_hit 0
Core_0_ITLB_rfo_miss 0
Core_0_ITLB_rfo_MPKI 0
Core_0_ITLB_rfo_miss_rate 0
Core_0_ITLB_prefetch_access 0
Core_0_ITLB_prefetch_hit 0
Core_0_ITLB_prefetch_miss 0
Core_0_ITLB_prefetch_MPKI 0
Core_0_ITLB_prefetch_miss_rate 0
Core_0_ITLB_writeback_access 0
Core_0_ITLB_writeback_hit 0
Core_0_ITLB_writeback_miss 0
Core_0_ITLB_writeback_MPKI 0
Core_0_ITLB_writeback_miss_rate 0
Core_0_ITLB_prefetch_requested 0
Core_0_ITLB_prefetch_issued 0
Core_0_ITLB_prefetch_useful 0
Core_0_ITLB_prefetch_useless 0
Core_0_ITLB_prefetch_late 0
Core_0_ITLB_prefetch_accuracy 0
Core_0_ITLB_prefetch_coverage 0

Core_0_DTLB_total_access 10740814
Core_0_DTLB_total_hit 9878415
Core_0_DTLB_total_miss 862399
Core_0_DTLB_total_MPKI 17.248
Core_0_DTLB_total_miss_rate 0.0802918
Core_0_DTLB_demand_access 10740814
Core_0_DTLB_demand_hit 9878415
Core_0_DTLB_demand_miss 862399
Core_0_DTLB_demand_MPKI 17.248
Core_0_DTLB_demand_miss_rate 0.0802918
Core_0_DTLB_load_access 10740814
Core_0_DTLB_load_hit 9878415
Core_0_DTLB_load_miss 862399
Core_0_DTLB_load_MPKI 17.248
Core_0_DTLB_load_miss_rate 0.0802918
Core_0_DTLB_rfo_access 0
Core_0_DTLB_rfo_hit 0
Core_0_DTLB_rfo_miss 0
Core_0_DTLB_rfo_MPKI 0
Core_0_DTLB_rfo_miss_rate 0
Core_0_DTLB_prefetch_access 0
Core_0_DTLB_prefetch_hit 0
Core_0_DTLB_prefetch_miss 0
Core_0_DTLB_prefetch_MPKI 0
Core_0_DTLB_prefetch_miss_rate 0
Core_0_DTLB_writeback_access 0
Core_0_DTLB_writeback_hit 0
Core_0_DTLB_writeback_miss 0
Core_0_DTLB_writeback_MPKI 0
Core_0_DTLB_writeback_miss_rate 0
Core_0_DTLB_prefetch_requested 0
Core_0_DTLB_prefetch_issued 0
Core_0_DTLB_prefetch_useful 0
Core_0_DTLB_prefetch_useless 0
Core_0_DTLB_prefetch_late 0
Core_0_DTLB_prefetch_accuracy 0
Core_0_DTLB_prefetch_coverage 0

Core_0_STLB_total_access 826067
Core_0_STLB_total_hit 742348
Core_0_STLB_total_miss 83719
Core_0_STLB_total_MPKI 1.67438
Core_0_STLB_total_miss_rate 0.101347
Core_0_STLB_demand_access 826067
Core_0_STLB_demand_hit 742348
Core_0_STLB_demand_miss 83719
Core_0_STLB_demand_MPKI 1.67438
Core_0_STLB_demand_miss_rate 0.101347
Core_0_STLB_load_access 826067
Core_0_STLB_load_hit 742348
Core_0_STLB_load_miss 83719
Core_0_STLB_load_MPKI 1.67438
Core_0_STLB_load_miss_rate 0.101347
Core_0_STLB_rfo_access 0
Core_0_STLB_rfo_hit 0
Core_0_STLB_rfo_miss 0
Core_0_STLB_rfo_MPKI 0
Core_0_STLB_rfo_miss_rate 0
Core_0_STLB_prefetch_access 0
Core_0_STLB_prefetch_hit 0
Core_0_STLB_prefetch_miss 0
Core_0_STLB_prefetch_MPKI 0
Core_0_STLB_prefetch_miss_rate 0
Core_0_STLB_writeback_access 0
Core_0_STLB_writeback_hit 0
Core_0_STLB_writeback_miss 0
Core_0_STLB_writeback_MPKI 0
Core_0_STLB_writeback_miss_rate 0
Core_0_STLB_prefetch_requested 0
Core_0_STLB_prefetch_issued 0
Core_0_STLB_prefetch_useful 0
Core_0_STLB_prefetch_useless 0
Core_0_STLB_prefetch_late 0
Core_0_STLB_prefetch_accuracy 0
Core_0_STLB_prefetch_coverage 0

Core_0_L1I_total_access 7876586
Core_0_L1I_total_hit 5783023
Core_0_L1I_total_miss 2093563
Core_0_L1I_total_MPKI 41.8713
Core_0_L1I_total_miss_rate 0.265796
Core_0_L1I_demand_access 7876586
Core_0_L1I_demand_hit 5783023
Core_0_L1I_demand_miss 2093563
Core_0_L1I_demand_MPKI 41.8713
Core_0_L1I_demand_miss_rate 0.265796
Core_0_L1I_load_access 7876586
Core_0_L1I_load_hit 5783023
Core_0_L1I_load_miss 2093563
Core_0_L1I_load_MPKI 41.8713
Core_0_L1I_load_miss_rate 0.265796
Core_0_L1I_rfo_access 0
Core_0_L1I_rfo_hit 0
Core_0_L1I_rfo_miss 0
Core_0_L1I_rfo_MPKI 0
Core_0_L1I_rfo_miss_rate 0
Core_0_L1I_prefetch_access 0
Core_0_L1I_prefetch_hit 0
Core_0_L1I_prefetch_miss 0
Core_0_L1I_prefetch_MPKI 0
Core_0_L1I_prefetch_miss_rate 0
Core_0_L1I_writeback_access 0
Core_0_L1I_writeback_hit 0
Core_0_L1I_writeback_miss 0
Core_0_L1I_writeback_MPKI 0
Core_0_L1I_writeback_miss_rate 0
Core_0_L1I_prefetch_requested 0
Core_0_L1I_prefetch_issued 0
Core_0_L1I_prefetch_useful 0
Core_0_L1I_prefetch_useless 0
Core_0_L1I_prefetch_late 0
Core_0_L1I_prefetch_accuracy 0
Core_0_L1I_prefetch_coverage 0

Core_0_L1D_total_access 11413426
Core_0_L1D_total_hit 10441645
Core_0_L1D_total_miss 971781
Core_0_L1D_total_MPKI 19.4356
Core_0_L1D_total_miss_rate 0.0851437
Core_0_L1D_demand_access 6443437
Core_0_L1D_demand_hit 5703625
Core_0_L1D_demand_miss 739812
Core_0_L1D_demand_MPKI 14.7962
Core_0_L1D_demand_miss_rate 0.114816
Core_0_L1D_load_access 6443437
Core_0_L1D_load_hit 5703625
Core_0_L1D_load_miss 739812
Core_0_L1D_load_MPKI 14.7962
Core_0_L1D_load_miss_rate 0.114816
Core_0_L1D_rfo_access 0
Core_0_L1D_rfo_hit 0
Core_0_L1D_rfo_miss 0
Core_0_L1D_rfo_MPKI 0
Core_0_L1D_rfo_miss_rate 0
Core_0_L1D_prefetch_access 6145
Core_0_L1D_prefetch_hit 5201
Core_0_L1D_prefetch_miss 944
Core_0_L1D_prefetch_MPKI 0.01888
Core_0_L1D_prefetch_miss_rate 0.153621
Core_0_L1D_writeback_access 4963844
Core_0_L1D_writeback_hit 4732819
Core_0_L1D_writeback_miss 231025
Core_0_L1D_writeback_MPKI 4.6205
Core_0_L1D_writeback_miss_rate 0.0465416
Core_0_L1D_prefetch_requested 6400
Core_0_L1D_prefetch_issued 6145
Core_0_L1D_prefetch_useful 69
Core_0_L1D_prefetch_useless 6
Core_0_L1D_prefetch_late 0
Core_0_L1D_prefetch_accuracy 0.0112286
Core_0_L1D_prefetch_coverage 9.32582e-05

Core_0_L2C_total_access 2204554
Core_0_L2C_total_hit 1425158
Core_0_L2C_total_miss 779396
Core_0_L2C_total_MPKI 15.5879
Core_0_L2C_total_miss_rate 0.353539
Core_0_L2C_demand_access 1923764
Core_0_L2C_demand_hit 1154943
Core_0_L2C_demand_miss 768821
Core_0_L2C_demand_MPKI 15.3764
Core_0_L2C_demand_miss_rate 0.399644
Core_0_L2C_load_access 1839482
Core_0_L2C_load_hit 1113631
Core_0_L2C_load_miss 725851
Core_0_L2C_load_MPKI 14.517
Core_0_L2C_load_miss_rate 0.394595
Core_0_L2C_rfo_access 84282
Core_0_L2C_rfo_hit 41312
Core_0_L2C_rfo_miss 42970
Core_0_L2C_rfo_MPKI 0.8594
Core_0_L2C_rfo_miss_rate 0.509836
Core_0_L2C_prefetch_access 19356
Core_0_L2C_prefetch_hit 9954
Core_0_L2C_prefetch_miss 9402
Core_0_L2C_prefetch_MPKI 0.18804
Core_0_L2C_prefetch_miss_rate 0.485741
Core_0_L2C_writeback_access 261434
Core_0_L2C_writeback_hit 260261
Core_0_L2C_writeback_miss 1173
Core_0_L2C_writeback_MPKI 0.02346
Core_0_L2C_writeback_miss_rate 0.00448679
Core_0_L2C_prefetch_requested 18481
Core_0_L2C_prefetch_issued 18412
Core_0_L2C_prefetch_useful 5519
Core_0_L2C_prefetch_useless 3367
Core_0_L2C_prefetch_late 57
Core_0_L2C_prefetch_accuracy 0.29975
Core_0_L2C_prefetch_coverage 0.00712736

Core_0_LLC_total_access 914294
Core_0_LLC_total_hit 830350
Core_0_LLC_total_miss 83944
Core_0_LLC_total_MPKI 1.67888
Core_0_LLC_total_miss_rate 0.0918129
Core_0_LLC_demand_access 768763
Core_0_LLC_demand_hit 692532
Core_0_LLC_demand_miss 76231
Core_0_LLC_demand_MPKI 1.52462
Core_0_LLC_demand_miss_rate 0.0991606
Core_0_LLC_load_access 725793
Core_0_LLC_load_hit 661281
Core_0_LLC_load_miss 64512
Core_0_LLC_load_MPKI 1.29024
Core_0_LLC_load_miss_rate 0.0888848
Core_0_LLC_rfo_access 42970
Core_0_LLC_rfo_hit 31251
Core_0_LLC_rfo_miss 11719
Core_0_LLC_rfo_MPKI 0.23438
Core_0_LLC_rfo_miss_rate 0.272725
Core_0_LLC_prefetch_access 8967
Core_0_LLC_prefetch_hit 3710
Core_0_LLC_prefetch_miss 5257
Core_0_LLC_prefetch_MPKI 0.10514
Core_0_LLC_prefetch_miss_rate 0.586261
Core_0_LLC_writeback_access 136564
Core_0_LLC_writeback_hit 134108
Core_0_LLC_writeback_miss 2456
Core_0_LLC_writeback_MPKI 0.04912
Core_0_LLC_writeback_miss_rate 0.0179842
Core_0_LLC_prefetch_requested 0
Core_0_LLC_prefetch_issued 0
Core_0_LLC_prefetch_useful 0
Core_0_LLC_prefetch_useless 0
Core_0_LLC_prefetch_late 0
Core_0_LLC_prefetch_accuracy 0
Core_0_LLC_prefetch_coverage 0

[DRAM Statistics]
Channel_0_RQ_row_buffer_hit 3209
Channel_0_RQ_row_buffer_miss 81957
Channel_0_WQ_row_buffer_hit 13062
Channel_0_WQ_row_buffer_miss 42705
Channel_0_WQ_full 0
Channel_0_dbus_congested 449992
DRAM_total_RQ_row_buffer_hit 3209
DRAM_total_RQ_row_buffer_miss 81957
DRAM_total_WQ_row_buffer_hit 13062
DRAM_total_WQ_row_buffer_miss 42705
DRAM_total_WQ_full 0
DRAM_total_dbus_congested 449992
DRAM_avg_congested_cycle 16.321

====== DRAM_RQ_TRAFFIC ========
DRAM_RQ_READ_TRAFFIC_BREAKDOWN:
data_demand_read.count = 68855
data_demand_read.share = 80.85%

inst_demand_read.count = 7376
inst_demand_read.share = 8.66%

cache_inst_prefetch.count = 0
cache_inst_prefetch.share = 0.00%

cache_data_prefetch.count = 5257
cache_data_prefetch.share = 6.17%

stlb_data_demand.count = 3547
stlb_data_demand.share = 4.16%

stlb_inst_demand.count = 133
stlb_inst_demand.share = 0.16%

stlb_l1i_pref.count = 0
stlb_l1i_pref.share = 0.00%

stlb_l1d_pref.count = 0
stlb_l1d_pref.share = 0.00%

DRAM_RQ_READ_TRAFFIC_SUMMARY:
cache_demand.count = 76231
cache_demand.share = 89.51%

cache_prefetch.count = 5257
cache_prefetch.share = 6.17%

stlb_demand.count = 3680
stlb_demand.share = 4.32%

stlb_prefetch.count = 0
stlb_prefetch.share = 0.00%

DRAM_RQ_READ_TRAFFIC_DEBUG:
total_classified_read.count = 85168
unclassified_read.count = 0
total_read_with_other.count = 85168

classified_plus_unclassified_check.count = 85168
dram_rq_read_total_observed.count = 85168
dram_rq_read_total_observed.per_1K_instructions = 1.70336

STLB_MISS_PTW_DRAM_TOUCH_BREAKDOWN:
stlb_miss_total.count = 83719

stlb_miss_touch_dram.count = 3677
stlb_miss_touch_dram.share = 4.39%

stlb_miss_no_dram_touch.count = 80042
stlb_miss_no_dram_touch.share = 95.61%

STLB_MISS_PTW_DRAM_TOUCH_DEBUG:
stlb_miss_touch_plus_no_touch.count = 83719
stlb_miss_total_check.count = 83719

======STLB miss causes ========
Core_0_STLB_miss_cause_breakdown
Core_0_STLB_cause_Demand_Data_miss 54678
Core_0_STLB_cause_Demand_Data_miss_rate 0.0661908
Core_0_STLB_cause_Demand_Instruction_miss 29036
Core_0_STLB_cause_Demand_Instruction_miss_rate 0.0351497
Core_0_STLB_cause_L1D_Prefetch_miss 5
Core_0_STLB_cause_L1D_Prefetch_miss_rate 6.05278e-06
Core_0_STLB_cause_L1I_Prefetch_miss 0
Core_0_STLB_cause_L1I_Prefetch_miss_rate 0
Core_0_STLB_cause_Other_miss 0
Core_0_STLB_cause_Other_miss_rate 0
Core_0_STLB_Demand_miss 83714
Core_0_STLB_Demand_miss_rate 0.10134
Core_0_STLB_L1D_Prefetch_miss 5
Core_0_STLB_L1D_Prefetch_miss_rate 6.05278e-06
Core_0_STLB_Other_miss 0
Core_0_STLB_Other_miss_rate 0
BERTI TO_L1: 35577 TO_L2: 33459 TO_L2_BC_MSHR: 0
BERTI AVG_LAT: 27.5622 NUM_TRACK_LATENCY: 886391 NUM_CANT_TRACK_LATENCY: 0
BERTI CROSS_PAGE 10499 NO_CROSS_PAGE: 58537
BERTI FOUND_BERTI: 425293 NO_FOUND_BERTI: 14873117
BERTI AVERAGE_ISSUED: 4.74925
