[VMEM] WARNING: physical memory size is smaller than virtual memory size.

*** ChampSim Multicore Out-of-Order Simulator ***
Warmup Instructions: 20000000
Simulation Instructions: 50000000
Number of CPUs: 1
Page size: 4096
Core 0: /data2/zcq/champsim_traces_xsbench/xs.XL64nuclide-7B.champsimtrace.xz
VBerti Prefetcher
BERTI HASH ENTANGLING
BERTI IP MASK ffff
Off-chip DRAM Size: 16 GiB Channels: 1 Width: 64-bit Data Rate: 3205 MT/s
Warmup halting CPU 0 at instruction 20000003 cycle 5002305 for remainder of phase
Warmup finished CPU 0 instructions: 20000003 cycles: 5002305 cumulative IPC: 3.998 (Simulation time: 00 hr 00 min 59 sec)
Warmup complete CPU 0 instructions: 20000003 cycles: 5002305 cumulative IPC: 3.998 (Simulation time: 00 hr 00 min 59 sec)
Simulation finished CPU 0 instructions: 50000001 cycles: 157575691 cumulative IPC: 0.3173 (Simulation time: 00 hr 14 min 25 sec)
Simulation complete CPU 0 instructions: 50000001 cycles: 157575691 cumulative IPC: 0.3173 (Simulation time: 00 hr 14 min 25 sec)

ChampSim completed all CPUs

=== Simulation ===
CPU 0 runs /data2/zcq/champsim_traces_xsbench/xs.XL64nuclide-7B.champsimtrace.xz

Region of Interest Statistics

CPU 0 cumulative IPC: 0.3173 instructions: 50000001 cycles: 157575691
CPU 0 Branch Prediction Accuracy: 93.14% MPKI: 16.33 Average ROB Occupancy at Mispredict: 41.64
Branch type MPKI
BRANCH_DIRECT_JUMP: 0.00026
BRANCH_INDIRECT: 0
BRANCH_CONDITIONAL: 16.33
BRANCH_DIRECT_CALL: 0.00016
BRANCH_INDIRECT_CALL: 4e-05
BRANCH_RETURN: 0.00052

cpu0->cpu0_STLB TOTAL        ACCESS:     965785 HIT:     690123 MISS:     275662 MSHR_MERGE:          0
cpu0->cpu0_STLB LOAD         ACCESS:     965785 HIT:     690123 MISS:     275662 MSHR_MERGE:          0
cpu0->cpu0_STLB RFO          ACCESS:          0 HIT:          0 MISS:          0 MSHR_MERGE:          0
cpu0->cpu0_STLB PREFETCH     ACCESS:          0 HIT:          0 MISS:          0 MSHR_MERGE:          0
cpu0->cpu0_STLB WRITE        ACCESS:          0 HIT:          0 MISS:          0 MSHR_MERGE:          0
cpu0->cpu0_STLB TRANSLATION  ACCESS:          0 HIT:          0 MISS:          0 MSHR_MERGE:          0
cpu0->cpu0_STLB PREFETCH REQUESTED:          0 ISSUED:          0 USEFUL:          0 USELESS:          0 LATE:          0
cpu0->cpu0_STLB AVERAGE MISS LATENCY: 22.78 cycles
cpu0->cpu0_L2C TOTAL        ACCESS:    4990775 HIT:    3356672 MISS:    1634103 MSHR_MERGE:     170352
cpu0->cpu0_L2C LOAD         ACCESS:    1363868 HIT:     233621 MISS:    1130247 MSHR_MERGE:      26537
cpu0->cpu0_L2C RFO          ACCESS:      65068 HIT:      29314 MISS:      35754 MSHR_MERGE:       5816
cpu0->cpu0_L2C PREFETCH     ACCESS:    2582458 HIT:    2118785 MISS:     463673 MSHR_MERGE:     137999
cpu0->cpu0_L2C WRITE        ACCESS:     804921 HIT:     804908 MISS:         13 MSHR_MERGE:          0
cpu0->cpu0_L2C TRANSLATION  ACCESS:     174460 HIT:     170044 MISS:       4416 MSHR_MERGE:          0
cpu0->cpu0_L2C PREFETCH REQUESTED:     720746 ISSUED:     708740 USEFUL:     107909 USELESS:       3688 LATE:      24830
cpu0->cpu0_L2C AVERAGE MISS LATENCY: 203.3 cycles
cpu0->cpu0_L1I TOTAL        ACCESS:    1274758 HIT:    1274694 MISS:         64 MSHR_MERGE:         10
cpu0->cpu0_L1I LOAD         ACCESS:    1274758 HIT:    1274694 MISS:         64 MSHR_MERGE:         10
cpu0->cpu0_L1I RFO          ACCESS:          0 HIT:          0 MISS:          0 MSHR_MERGE:          0
cpu0->cpu0_L1I PREFETCH     ACCESS:          0 HIT:          0 MISS:          0 MSHR_MERGE:          0
cpu0->cpu0_L1I WRITE        ACCESS:          0 HIT:          0 MISS:          0 MSHR_MERGE:          0
cpu0->cpu0_L1I TRANSLATION  ACCESS:          0 HIT:          0 MISS:          0 MSHR_MERGE:          0
cpu0->cpu0_L1I PREFETCH REQUESTED:          0 ISSUED:          0 USEFUL:          0 USELESS:          0 LATE:          0
cpu0->cpu0_L1I AVERAGE MISS LATENCY: 250.2 cycles
cpu0->cpu0_L1D TOTAL        ACCESS:   27952825 HIT:   23563573 MISS:    4389252 MSHR_MERGE:     902018
cpu0->cpu0_L1D LOAD         ACCESS:    9024231 HIT:    7143898 MISS:    1880333 MSHR_MERGE:     516519
cpu0->cpu0_L1D RFO          ACCESS:          0 HIT:          0 MISS:          0 MSHR_MERGE:          0
cpu0->cpu0_L1D PREFETCH     ACCESS:   11671372 HIT:    9761131 MISS:    1910241 MSHR_MERGE:      26349
cpu0->cpu0_L1D WRITE        ACCESS:    6706580 HIT:    6282825 MISS:     423755 MSHR_MERGE:     358687
cpu0->cpu0_L1D TRANSLATION  ACCESS:     550642 HIT:     375719 MISS:     174923 MSHR_MERGE:        463
cpu0->cpu0_L1D PREFETCH REQUESTED:   54220596 ISSUED:   11671364 USEFUL:     262377 USELESS:       3040 LATE:      14360
cpu0->cpu0_L1D AVERAGE MISS LATENCY: 157.7 cycles
cpu0->cpu0_ITLB TOTAL        ACCESS:    1091711 HIT:    1091701 MISS:         10 MSHR_MERGE:          2
cpu0->cpu0_ITLB LOAD         ACCESS:    1091711 HIT:    1091701 MISS:         10 MSHR_MERGE:          2
cpu0->cpu0_ITLB RFO          ACCESS:          0 HIT:          0 MISS:          0 MSHR_MERGE:          0
cpu0->cpu0_ITLB PREFETCH     ACCESS:          0 HIT:          0 MISS:          0 MSHR_MERGE:          0
cpu0->cpu0_ITLB WRITE        ACCESS:          0 HIT:          0 MISS:          0 MSHR_MERGE:          0
cpu0->cpu0_ITLB TRANSLATION  ACCESS:          0 HIT:          0 MISS:          0 MSHR_MERGE:          0
cpu0->cpu0_ITLB PREFETCH REQUESTED:          0 ISSUED:          0 USEFUL:          0 USELESS:          0 LATE:          0
cpu0->cpu0_ITLB AVERAGE MISS LATENCY: 362.8 cycles
cpu0->cpu0_DTLB TOTAL        ACCESS:   22755519 HIT:   21277777 MISS:    1477742 MSHR_MERGE:     511965
cpu0->cpu0_DTLB LOAD         ACCESS:   22755519 HIT:   21277777 MISS:    1477742 MSHR_MERGE:     511965
cpu0->cpu0_DTLB RFO          ACCESS:          0 HIT:          0 MISS:          0 MSHR_MERGE:          0
cpu0->cpu0_DTLB PREFETCH     ACCESS:          0 HIT:          0 MISS:          0 MSHR_MERGE:          0
cpu0->cpu0_DTLB WRITE        ACCESS:          0 HIT:          0 MISS:          0 MSHR_MERGE:          0
cpu0->cpu0_DTLB TRANSLATION  ACCESS:          0 HIT:          0 MISS:          0 MSHR_MERGE:          0
cpu0->cpu0_DTLB PREFETCH REQUESTED:          0 ISSUED:          0 USEFUL:          0 USELESS:          0 LATE:          0
cpu0->cpu0_DTLB AVERAGE MISS LATENCY: 11.79 cycles
cpu0->LLC TOTAL        ACCESS:    2205811 HIT:     605241 MISS:    1600570 MSHR_MERGE:      17934
cpu0->LLC LOAD         ACCESS:    1103710 HIT:     244223 MISS:     859487 MSHR_MERGE:       3584
cpu0->LLC RFO          ACCESS:      29938 HIT:      10954 MISS:      18984 MSHR_MERGE:        222
cpu0->LLC PREFETCH     ACCESS:     325661 HIT:      87771 MISS:     237890 MSHR_MERGE:      14128
cpu0->LLC WRITE        ACCESS:     742086 HIT:     261932 MISS:     480154 MSHR_MERGE:          0
cpu0->LLC TRANSLATION  ACCESS:       4416 HIT:        361 MISS:       4055 MSHR_MERGE:          0
cpu0->LLC PREFETCH REQUESTED:          0 ISSUED:          0 USEFUL:          0 USELESS:          0 LATE:          0
cpu0->LLC AVERAGE MISS LATENCY: 158.1 cycles

DRAM Statistics

Channel 0 RQ ROW_BUFFER_HIT:      14348
  ROW_BUFFER_MISS:    1087737
  AVG DBUS CONGESTED CYCLE: 6.735
Channel 0 WQ ROW_BUFFER_HIT:     172571
  ROW_BUFFER_MISS:     416342
  FULL:       1628
Channel 0 REFRESHES ISSUED:      13132

[ROI Statistics]
[System Configuration]
num_cpus 1
cpu_freq 4000
fetch_width 6
decode_width 6
dispatch_width 6
execute_width 6
lq_width 2
sq_width 2
retire_width 6
scheduler_size 128
branch_mispredict_penalty 15
rob_size 352
lq_size 128
sq_size 72
ifetch_buffer_size 64
decode_buffer_size 32
dispatch_buffer_size 32
register_file_size 288
decode_latency 1
dispatch_latency 1
schedule_latency 1
execute_latency 1
page_size 4096
block_size 64
core_0_itlb_set 16
core_0_itlb_way 4
core_0_itlb_rq_size 16
core_0_itlb_wq_size 16
core_0_itlb_pq_size 0
core_0_itlb_mshr_size 8
core_0_itlb_hit_latency 1
core_0_itlb_fill_latency 1
core_0_itlb_max_tag_check 2
core_0_itlb_max_fill 2
core_0_dtlb_set 16
core_0_dtlb_way 4
core_0_dtlb_rq_size 16
core_0_dtlb_wq_size 16
core_0_dtlb_pq_size 0
core_0_dtlb_mshr_size 8
core_0_dtlb_hit_latency 1
core_0_dtlb_fill_latency 1
core_0_dtlb_max_tag_check 2
core_0_dtlb_max_fill 2
core_0_stlb_set 128
core_0_stlb_way 12
core_0_stlb_rq_size 32
core_0_stlb_wq_size 32
core_0_stlb_pq_size 0
core_0_stlb_mshr_size 16
core_0_stlb_hit_latency 4
core_0_stlb_fill_latency 4
core_0_stlb_max_tag_check 1
core_0_stlb_max_fill 1
core_0_l1i_set 64
core_0_l1i_way 8
core_0_l1i_rq_size 64
core_0_l1i_wq_size 64
core_0_l1i_pq_size 32
core_0_l1i_mshr_size 8
core_0_l1i_hit_latency 2
core_0_l1i_fill_latency 2
core_0_l1i_max_tag_check 2
core_0_l1i_max_fill 2
core_0_l1d_set 64
core_0_l1d_way 12
core_0_l1d_rq_size 64
core_0_l1d_wq_size 64
core_0_l1d_pq_size 8
core_0_l1d_mshr_size 16
core_0_l1d_hit_latency 2
core_0_l1d_fill_latency 3
core_0_l1d_max_tag_check 2
core_0_l1d_max_fill 2
core_0_l2c_set 1024
core_0_l2c_way 8
core_0_l2c_rq_size 32
core_0_l2c_wq_size 32
core_0_l2c_pq_size 16
core_0_l2c_mshr_size 32
core_0_l2c_hit_latency 5
core_0_l2c_fill_latency 5
core_0_l2c_max_tag_check 1
core_0_l2c_max_fill 1
llc_set 2048
llc_way 16
llc_rq_size 32
llc_wq_size 32
llc_pq_size 32
llc_mshr_size 64
llc_hit_latency 10
llc_fill_latency 10
llc_max_tag_check 1
llc_max_fill 1
dram_channels 1
dram_ranks 1
dram_bankgroups 8
dram_banks 4
dram_rows 65536
dram_columns 1024
dram_channel_width 8
dram_rq_size 64
dram_wq_size 64
dram_size 17179869184
core_0_itlb_prefetcher no
core_0_dtlb_prefetcher no
core_0_stlb_prefetcher no
core_0_l1i_prefetcher next_line
core_0_l1d_prefetcher vberti
core_0_l2c_prefetcher ip_stride
llc_prefetcher no
llc_replacement drrip

Core_0_instructions 50000001
Core_0_cycles 157575691
Core_0_IPC 0.317308
Core_0_branch_prediction_accuracy 93.1447
Core_0_branch_MPKI 16.3275
Core_0_average_ROB_occupancy_at_mispredict 41.6395

Core_0_ITLB_total_access 1091711
Core_0_ITLB_total_hit 1091701
Core_0_ITLB_total_miss 10
Core_0_ITLB_total_MPKI 0.0002
Core_0_ITLB_total_miss_rate 9.15993e-06
Core_0_ITLB_demand_access 1091711
Core_0_ITLB_demand_hit 1091701
Core_0_ITLB_demand_miss 10
Core_0_ITLB_demand_MPKI 0.0002
Core_0_ITLB_demand_miss_rate 9.15993e-06
Core_0_ITLB_load_access 1091711
Core_0_ITLB_load_hit 1091701
Core_0_ITLB_load_miss 10
Core_0_ITLB_load_MPKI 0.0002
Core_0_ITLB_load_miss_rate 9.15993e-06
Core_0_ITLB_rfo_access 0
Core_0_ITLB_rfo_hit 0
Core_0_ITLB_rfo_miss 0
Core_0_ITLB_rfo_MPKI 0
Core_0_ITLB_rfo_miss_rate 0
Core_0_ITLB_prefetch_access 0
Core_0_ITLB_prefetch_hit 0
Core_0_ITLB_prefetch_miss 0
Core_0_ITLB_prefetch_MPKI 0
Core_0_ITLB_prefetch_miss_rate 0
Core_0_ITLB_writeback_access 0
Core_0_ITLB_writeback_hit 0
Core_0_ITLB_writeback_miss 0
Core_0_ITLB_writeback_MPKI 0
Core_0_ITLB_writeback_miss_rate 0
Core_0_ITLB_prefetch_requested 0
Core_0_ITLB_prefetch_issued 0
Core_0_ITLB_prefetch_useful 0
Core_0_ITLB_prefetch_useless 0
Core_0_ITLB_prefetch_late 0
Core_0_ITLB_prefetch_accuracy 0
Core_0_ITLB_prefetch_coverage 0

Core_0_DTLB_total_access 22755519
Core_0_DTLB_total_hit 21277777
Core_0_DTLB_total_miss 1477742
Core_0_DTLB_total_MPKI 29.5548
Core_0_DTLB_total_miss_rate 0.0649399
Core_0_DTLB_demand_access 22755519
Core_0_DTLB_demand_hit 21277777
Core_0_DTLB_demand_miss 1477742
Core_0_DTLB_demand_MPKI 29.5548
Core_0_DTLB_demand_miss_rate 0.0649399
Core_0_DTLB_load_access 22755519
Core_0_DTLB_load_hit 21277777
Core_0_DTLB_load_miss 1477742
Core_0_DTLB_load_MPKI 29.5548
Core_0_DTLB_load_miss_rate 0.0649399
Core_0_DTLB_rfo_access 0
Core_0_DTLB_rfo_hit 0
Core_0_DTLB_rfo_miss 0
Core_0_DTLB_rfo_MPKI 0
Core_0_DTLB_rfo_miss_rate 0
Core_0_DTLB_prefetch_access 0
Core_0_DTLB_prefetch_hit 0
Core_0_DTLB_prefetch_miss 0
Core_0_DTLB_prefetch_MPKI 0
Core_0_DTLB_prefetch_miss_rate 0
Core_0_DTLB_writeback_access 0
Core_0_DTLB_writeback_hit 0
Core_0_DTLB_writeback_miss 0
Core_0_DTLB_writeback_MPKI 0
Core_0_DTLB_writeback_miss_rate 0
Core_0_DTLB_prefetch_requested 0
Core_0_DTLB_prefetch_issued 0
Core_0_DTLB_prefetch_useful 0
Core_0_DTLB_prefetch_useless 0
Core_0_DTLB_prefetch_late 0
Core_0_DTLB_prefetch_accuracy 0
Core_0_DTLB_prefetch_coverage 0

Core_0_STLB_total_access 965785
Core_0_STLB_total_hit 690123
Core_0_STLB_total_miss 275662
Core_0_STLB_total_MPKI 5.51324
Core_0_STLB_total_miss_rate 0.285428
Core_0_STLB_demand_access 965785
Core_0_STLB_demand_hit 690123
Core_0_STLB_demand_miss 275662
Core_0_STLB_demand_MPKI 5.51324
Core_0_STLB_demand_miss_rate 0.285428
Core_0_STLB_load_access 965785
Core_0_STLB_load_hit 690123
Core_0_STLB_load_miss 275662
Core_0_STLB_load_MPKI 5.51324
Core_0_STLB_load_miss_rate 0.285428
Core_0_STLB_rfo_access 0
Core_0_STLB_rfo_hit 0
Core_0_STLB_rfo_miss 0
Core_0_STLB_rfo_MPKI 0
Core_0_STLB_rfo_miss_rate 0
Core_0_STLB_prefetch_access 0
Core_0_STLB_prefetch_hit 0
Core_0_STLB_prefetch_miss 0
Core_0_STLB_prefetch_MPKI 0
Core_0_STLB_prefetch_miss_rate 0
Core_0_STLB_writeback_access 0
Core_0_STLB_writeback_hit 0
Core_0_STLB_writeback_miss 0
Core_0_STLB_writeback_MPKI 0
Core_0_STLB_writeback_miss_rate 0
Core_0_STLB_prefetch_requested 0
Core_0_STLB_prefetch_issued 0
Core_0_STLB_prefetch_useful 0
Core_0_STLB_prefetch_useless 0
Core_0_STLB_prefetch_late 0
Core_0_STLB_prefetch_accuracy 0
Core_0_STLB_prefetch_coverage 0

Core_0_L1I_total_access 1274758
Core_0_L1I_total_hit 1274694
Core_0_L1I_total_miss 64
Core_0_L1I_total_MPKI 0.00128
Core_0_L1I_total_miss_rate 5.02056e-05
Core_0_L1I_demand_access 1274758
Core_0_L1I_demand_hit 1274694
Core_0_L1I_demand_miss 64
Core_0_L1I_demand_MPKI 0.00128
Core_0_L1I_demand_miss_rate 5.02056e-05
Core_0_L1I_load_access 1274758
Core_0_L1I_load_hit 1274694
Core_0_L1I_load_miss 64
Core_0_L1I_load_MPKI 0.00128
Core_0_L1I_load_miss_rate 5.02056e-05
Core_0_L1I_rfo_access 0
Core_0_L1I_rfo_hit 0
Core_0_L1I_rfo_miss 0
Core_0_L1I_rfo_MPKI 0
Core_0_L1I_rfo_miss_rate 0
Core_0_L1I_prefetch_access 0
Core_0_L1I_prefetch_hit 0
Core_0_L1I_prefetch_miss 0
Core_0_L1I_prefetch_MPKI 0
Core_0_L1I_prefetch_miss_rate 0
Core_0_L1I_writeback_access 0
Core_0_L1I_writeback_hit 0
Core_0_L1I_writeback_miss 0
Core_0_L1I_writeback_MPKI 0
Core_0_L1I_writeback_miss_rate 0
Core_0_L1I_prefetch_requested 0
Core_0_L1I_prefetch_issued 0
Core_0_L1I_prefetch_useful 0
Core_0_L1I_prefetch_useless 0
Core_0_L1I_prefetch_late 0
Core_0_L1I_prefetch_accuracy 0
Core_0_L1I_prefetch_coverage 0

Core_0_L1D_total_access 27402183
Core_0_L1D_total_hit 23187854
Core_0_L1D_total_miss 4214329
Core_0_L1D_total_MPKI 84.2866
Core_0_L1D_total_miss_rate 0.153795
Core_0_L1D_demand_access 9024231
Core_0_L1D_demand_hit 7143898
Core_0_L1D_demand_miss 1880333
Core_0_L1D_demand_MPKI 37.6067
Core_0_L1D_demand_miss_rate 0.208365
Core_0_L1D_load_access 9024231
Core_0_L1D_load_hit 7143898
Core_0_L1D_load_miss 1880333
Core_0_L1D_load_MPKI 37.6067
Core_0_L1D_load_miss_rate 0.208365
Core_0_L1D_rfo_access 0
Core_0_L1D_rfo_hit 0
Core_0_L1D_rfo_miss 0
Core_0_L1D_rfo_MPKI 0
Core_0_L1D_rfo_miss_rate 0
Core_0_L1D_prefetch_access 11671372
Core_0_L1D_prefetch_hit 9761131
Core_0_L1D_prefetch_miss 1910241
Core_0_L1D_prefetch_MPKI 38.2048
Core_0_L1D_prefetch_miss_rate 0.163669
Core_0_L1D_writeback_access 6706580
Core_0_L1D_writeback_hit 6282825
Core_0_L1D_writeback_miss 423755
Core_0_L1D_writeback_MPKI 8.4751
Core_0_L1D_writeback_miss_rate 0.063185
Core_0_L1D_prefetch_requested 54220596
Core_0_L1D_prefetch_issued 11671364
Core_0_L1D_prefetch_useful 262377
Core_0_L1D_prefetch_useless 3040
Core_0_L1D_prefetch_late 14360
Core_0_L1D_prefetch_accuracy 0.0224804
Core_0_L1D_prefetch_coverage 0.122451

Core_0_L2C_total_access 4816315
Core_0_L2C_total_hit 3186628
Core_0_L2C_total_miss 1629687
Core_0_L2C_total_MPKI 32.5937
Core_0_L2C_total_miss_rate 0.338368
Core_0_L2C_demand_access 1428936
Core_0_L2C_demand_hit 262935
Core_0_L2C_demand_miss 1166001
Core_0_L2C_demand_MPKI 23.32
Core_0_L2C_demand_miss_rate 0.815992
Core_0_L2C_load_access 1363868
Core_0_L2C_load_hit 233621
Core_0_L2C_load_miss 1130247
Core_0_L2C_load_MPKI 22.6049
Core_0_L2C_load_miss_rate 0.828707
Core_0_L2C_rfo_access 65068
Core_0_L2C_rfo_hit 29314
Core_0_L2C_rfo_miss 35754
Core_0_L2C_rfo_MPKI 0.71508
Core_0_L2C_rfo_miss_rate 0.549487
Core_0_L2C_prefetch_access 2582458
Core_0_L2C_prefetch_hit 2118785
Core_0_L2C_prefetch_miss 463673
Core_0_L2C_prefetch_MPKI 9.27346
Core_0_L2C_prefetch_miss_rate 0.179547
Core_0_L2C_writeback_access 804921
Core_0_L2C_writeback_hit 804908
Core_0_L2C_writeback_miss 13
Core_0_L2C_writeback_MPKI 0.00026
Core_0_L2C_writeback_miss_rate 1.61507e-05
Core_0_L2C_prefetch_requested 720746
Core_0_L2C_prefetch_issued 708740
Core_0_L2C_prefetch_useful 107909
Core_0_L2C_prefetch_useless 3688
Core_0_L2C_prefetch_late 24830
Core_0_L2C_prefetch_accuracy 0.152255
Core_0_L2C_prefetch_coverage 0.0847069

Core_0_LLC_total_access 2201395
Core_0_LLC_total_hit 604880
Core_0_LLC_total_miss 1596515
Core_0_LLC_total_MPKI 31.9303
Core_0_LLC_total_miss_rate 0.725229
Core_0_LLC_demand_access 1133648
Core_0_LLC_demand_hit 255177
Core_0_LLC_demand_miss 878471
Core_0_LLC_demand_MPKI 17.5694
Core_0_LLC_demand_miss_rate 0.774906
Core_0_LLC_load_access 1103710
Core_0_LLC_load_hit 244223
Core_0_LLC_load_miss 859487
Core_0_LLC_load_MPKI 17.1897
Core_0_LLC_load_miss_rate 0.778725
Core_0_LLC_rfo_access 29938
Core_0_LLC_rfo_hit 10954
Core_0_LLC_rfo_miss 18984
Core_0_LLC_rfo_MPKI 0.37968
Core_0_LLC_rfo_miss_rate 0.63411
Core_0_LLC_prefetch_access 325661
Core_0_LLC_prefetch_hit 87771
Core_0_LLC_prefetch_miss 237890
Core_0_LLC_prefetch_MPKI 4.7578
Core_0_LLC_prefetch_miss_rate 0.730484
Core_0_LLC_writeback_access 742086
Core_0_LLC_writeback_hit 261932
Core_0_LLC_writeback_miss 480154
Core_0_LLC_writeback_MPKI 9.60308
Core_0_LLC_writeback_miss_rate 0.647033
Core_0_LLC_prefetch_requested 0
Core_0_LLC_prefetch_issued 0
Core_0_LLC_prefetch_useful 0
Core_0_LLC_prefetch_useless 0
Core_0_LLC_prefetch_late 0
Core_0_LLC_prefetch_accuracy 0
Core_0_LLC_prefetch_coverage 0

[DRAM Statistics]
Channel_0_RQ_row_buffer_hit 14348
Channel_0_RQ_row_buffer_miss 1087737
Channel_0_WQ_row_buffer_hit 172571
Channel_0_WQ_row_buffer_miss 416342
Channel_0_WQ_full 1628
Channel_0_dbus_congested 5306751
DRAM_total_RQ_row_buffer_hit 14348
DRAM_total_RQ_row_buffer_miss 1087737
DRAM_total_WQ_row_buffer_hit 172571
DRAM_total_WQ_row_buffer_miss 416342
DRAM_total_WQ_full 1628
DRAM_total_dbus_congested 5306751
DRAM_avg_congested_cycle 6.73455

====== DRAM_RQ_TRAFFIC ========
DRAM_RQ_READ_TRAFFIC_BREAKDOWN:
data_demand_read.count = 874611
data_demand_read.share = 79.33%

inst_demand_read.count = 54
inst_demand_read.share = 0.00%

cache_inst_prefetch.count = 0
cache_inst_prefetch.share = 0.00%

cache_data_prefetch.count = 223762
cache_data_prefetch.share = 20.30%

stlb_data_demand.count = 3647
stlb_data_demand.share = 0.33%

stlb_inst_demand.count = 5
stlb_inst_demand.share = 0.00%

stlb_l1i_pref.count = 0
stlb_l1i_pref.share = 0.00%

stlb_l1d_pref.count = 403
stlb_l1d_pref.share = 0.04%

DRAM_RQ_READ_TRAFFIC_SUMMARY:
cache_demand.count = 874665
cache_demand.share = 79.34%

cache_prefetch.count = 223762
cache_prefetch.share = 20.30%

stlb_demand.count = 3652
stlb_demand.share = 0.33%

stlb_prefetch.count = 403
stlb_prefetch.share = 0.04%

DRAM_RQ_READ_TRAFFIC_DEBUG:
total_classified_read.count = 1102482
unclassified_read.count = 0
total_read_with_other.count = 1102482

classified_plus_unclassified_check.count = 1102482
dram_rq_read_total_observed.count = 1102482
dram_rq_read_total_observed.per_1K_instructions = 22.0496

STLB_MISS_PTW_DRAM_TOUCH_BREAKDOWN:
stlb_miss_total.count = 275662

stlb_miss_touch_dram.count = 4049
stlb_miss_touch_dram.share = 1.47%

stlb_miss_no_dram_touch.count = 271613
stlb_miss_no_dram_touch.share = 98.53%

STLB_MISS_PTW_DRAM_TOUCH_DEBUG:
stlb_miss_touch_plus_no_touch.count = 275662
stlb_miss_total_check.count = 275662

======STLB miss causes ========
Core_0_STLB_miss_cause_breakdown
Core_0_STLB_cause_Demand_Data_miss 272539
Core_0_STLB_cause_Demand_Data_miss_rate 0.282194
Core_0_STLB_cause_Demand_Instruction_miss 8
Core_0_STLB_cause_Demand_Instruction_miss_rate 8.28342e-06
Core_0_STLB_cause_L1D_Prefetch_miss 3115
Core_0_STLB_cause_L1D_Prefetch_miss_rate 0.00322536
Core_0_STLB_cause_L1I_Prefetch_miss 0
Core_0_STLB_cause_L1I_Prefetch_miss_rate 0
Core_0_STLB_cause_Other_miss 0
Core_0_STLB_cause_Other_miss_rate 0
Core_0_STLB_Demand_miss 272547
Core_0_STLB_Demand_miss_rate 0.282203
Core_0_STLB_L1D_Prefetch_miss 3115
Core_0_STLB_L1D_Prefetch_miss_rate 0.00322536
Core_0_STLB_Other_miss 0
Core_0_STLB_Other_miss_rate 0
BERTI TO_L1: 31506697 TO_L2: 43137558 TO_L2_BC_MSHR: 8143610
BERTI AVG_LAT: 138.465 NUM_TRACK_LATENCY: 2065235 NUM_CANT_TRACK_LATENCY: 29
BERTI CROSS_PAGE 8829103 NO_CROSS_PAGE: 65815152
BERTI FOUND_BERTI: 13739638 NO_FOUND_BERTI: 7617259
BERTI AVERAGE_ISSUED: 3.13938
