[VMEM] WARNING: physical memory size is smaller than virtual memory size.

*** ChampSim Multicore Out-of-Order Simulator ***
Warmup Instructions: 20000000
Simulation Instructions: 50000000
Number of CPUs: 1
Page size: 4096
Core 0: /data2/zcq/champsim_traces_xsbench/xs.XXL64nuclide-531B.champsimtrace.xz
VBerti Prefetcher
BERTI HASH ENTANGLING
BERTI IP MASK ffff
Off-chip DRAM Size: 16 GiB Channels: 1 Width: 64-bit Data Rate: 3205 MT/s
Warmup halting CPU 0 at instruction 20000005 cycle 16084944 for remainder of phase
Warmup finished CPU 0 instructions: 20000005 cycles: 16084944 cumulative IPC: 1.243 (Simulation time: 00 hr 02 min 30 sec)
Warmup complete CPU 0 instructions: 20000005 cycles: 16084944 cumulative IPC: 1.243 (Simulation time: 00 hr 02 min 30 sec)
Simulation finished CPU 0 instructions: 50000002 cycles: 360956753 cumulative IPC: 0.1385 (Simulation time: 00 hr 24 min 20 sec)
Simulation complete CPU 0 instructions: 50000002 cycles: 360956753 cumulative IPC: 0.1385 (Simulation time: 00 hr 24 min 20 sec)

ChampSim completed all CPUs

=== Simulation ===
CPU 0 runs /data2/zcq/champsim_traces_xsbench/xs.XXL64nuclide-531B.champsimtrace.xz

Region of Interest Statistics

CPU 0 cumulative IPC: 0.1385 instructions: 50000002 cycles: 360956753
CPU 0 Branch Prediction Accuracy: 87.22% MPKI: 21.54 Average ROB Occupancy at Mispredict: 25.57
Branch type MPKI
BRANCH_DIRECT_JUMP: 0
BRANCH_INDIRECT: 0
BRANCH_CONDITIONAL: 21.54
BRANCH_DIRECT_CALL: 0
BRANCH_INDIRECT_CALL: 0
BRANCH_RETURN: 0

cpu0->cpu0_STLB TOTAL        ACCESS:    1998292 HIT:      68144 MISS:    1930148 MSHR_MERGE:          0
cpu0->cpu0_STLB LOAD         ACCESS:    1998292 HIT:      68144 MISS:    1930148 MSHR_MERGE:          0
cpu0->cpu0_STLB RFO          ACCESS:          0 HIT:          0 MISS:          0 MSHR_MERGE:          0
cpu0->cpu0_STLB PREFETCH     ACCESS:          0 HIT:          0 MISS:          0 MSHR_MERGE:          0
cpu0->cpu0_STLB WRITE        ACCESS:          0 HIT:          0 MISS:          0 MSHR_MERGE:          0
cpu0->cpu0_STLB TRANSLATION  ACCESS:          0 HIT:          0 MISS:          0 MSHR_MERGE:          0
cpu0->cpu0_STLB PREFETCH REQUESTED:          0 ISSUED:          0 USEFUL:          0 USELESS:          0 LATE:          0
cpu0->cpu0_STLB AVERAGE MISS LATENCY: 197.8 cycles
cpu0->cpu0_L2C TOTAL        ACCESS:    5296718 HIT:     729488 MISS:    4567230 MSHR_MERGE:       3929
cpu0->cpu0_L2C LOAD         ACCESS:    2988748 HIT:     100265 MISS:    2888483 MSHR_MERGE:          0
cpu0->cpu0_L2C RFO          ACCESS:       6959 HIT:       6336 MISS:        623 MSHR_MERGE:          0
cpu0->cpu0_L2C PREFETCH     ACCESS:     628828 HIT:     515821 MISS:     113007 MSHR_MERGE:       3929
cpu0->cpu0_L2C WRITE        ACCESS:       9996 HIT:       9959 MISS:         37 MSHR_MERGE:          0
cpu0->cpu0_L2C TRANSLATION  ACCESS:    1662187 HIT:      97107 MISS:    1565080 MSHR_MERGE:          0
cpu0->cpu0_L2C PREFETCH REQUESTED:     157634 ISSUED:     157634 USEFUL:       6580 USELESS:      67329 LATE:          0
cpu0->cpu0_L2C AVERAGE MISS LATENCY: 153 cycles
cpu0->cpu0_L1I TOTAL        ACCESS:      10510 HIT:      10510 MISS:          0 MSHR_MERGE:          0
cpu0->cpu0_L1I LOAD         ACCESS:      10510 HIT:      10510 MISS:          0 MSHR_MERGE:          0
cpu0->cpu0_L1I RFO          ACCESS:          0 HIT:          0 MISS:          0 MSHR_MERGE:          0
cpu0->cpu0_L1I PREFETCH     ACCESS:          0 HIT:          0 MISS:          0 MSHR_MERGE:          0
cpu0->cpu0_L1I WRITE        ACCESS:          0 HIT:          0 MISS:          0 MSHR_MERGE:          0
cpu0->cpu0_L1I TRANSLATION  ACCESS:          0 HIT:          0 MISS:          0 MSHR_MERGE:          0
cpu0->cpu0_L1I PREFETCH REQUESTED:          0 ISSUED:          0 USEFUL:          0 USELESS:          0 LATE:          0
cpu0->cpu0_L1I AVERAGE MISS LATENCY: - cycles
cpu0->cpu0_L1D TOTAL        ACCESS:   10977557 HIT:    4883098 MISS:    6094459 MSHR_MERGE:     965347
cpu0->cpu0_L1D LOAD         ACCESS:    4780177 HIT:    1740993 MISS:    3039184 MSHR_MERGE:      50440
cpu0->cpu0_L1D RFO          ACCESS:          0 HIT:          0 MISS:          0 MSHR_MERGE:          0
cpu0->cpu0_L1D PREFETCH     ACCESS:    1060388 HIT:     588601 MISS:     471787 MSHR_MERGE:        591
cpu0->cpu0_L1D WRITE        ACCESS:     905471 HIT:     877359 MISS:      28112 MSHR_MERGE:      21126
cpu0->cpu0_L1D TRANSLATION  ACCESS:    4231521 HIT:    1676145 MISS:    2555376 MSHR_MERGE:     893190
cpu0->cpu0_L1D PREFETCH REQUESTED:    1220598 ISSUED:    1060385 USEFUL:      17679 USELESS:      22801 LATE:         48
cpu0->cpu0_L1D AVERAGE MISS LATENCY: 155.4 cycles
cpu0->cpu0_ITLB TOTAL        ACCESS:       8528 HIT:       8528 MISS:          0 MSHR_MERGE:          0
cpu0->cpu0_ITLB LOAD         ACCESS:       8528 HIT:       8528 MISS:          0 MSHR_MERGE:          0
cpu0->cpu0_ITLB RFO          ACCESS:          0 HIT:          0 MISS:          0 MSHR_MERGE:          0
cpu0->cpu0_ITLB PREFETCH     ACCESS:          0 HIT:          0 MISS:          0 MSHR_MERGE:          0
cpu0->cpu0_ITLB WRITE        ACCESS:          0 HIT:          0 MISS:          0 MSHR_MERGE:          0
cpu0->cpu0_ITLB TRANSLATION  ACCESS:          0 HIT:          0 MISS:          0 MSHR_MERGE:          0
cpu0->cpu0_ITLB PREFETCH REQUESTED:          0 ISSUED:          0 USEFUL:          0 USELESS:          0 LATE:          0
cpu0->cpu0_ITLB AVERAGE MISS LATENCY: - cycles
cpu0->cpu0_DTLB TOTAL        ACCESS:    6414488 HIT:    4309855 MISS:    2104633 MSHR_MERGE:     106341
cpu0->cpu0_DTLB LOAD         ACCESS:    6414488 HIT:    4309855 MISS:    2104633 MSHR_MERGE:     106341
cpu0->cpu0_DTLB RFO          ACCESS:          0 HIT:          0 MISS:          0 MSHR_MERGE:          0
cpu0->cpu0_DTLB PREFETCH     ACCESS:          0 HIT:          0 MISS:          0 MSHR_MERGE:          0
cpu0->cpu0_DTLB WRITE        ACCESS:          0 HIT:          0 MISS:          0 MSHR_MERGE:          0
cpu0->cpu0_DTLB TRANSLATION  ACCESS:          0 HIT:          0 MISS:          0 MSHR_MERGE:          0
cpu0->cpu0_DTLB PREFETCH REQUESTED:          0 ISSUED:          0 USEFUL:          0 USELESS:          0 LATE:          0
cpu0->cpu0_DTLB AVERAGE MISS LATENCY: 197 cycles
cpu0->LLC TOTAL        ACCESS:    4565355 HIT:    1463914 MISS:    3101441 MSHR_MERGE:          0
cpu0->LLC LOAD         ACCESS:    2888483 HIT:     631597 MISS:    2256886 MSHR_MERGE:          0
cpu0->LLC RFO          ACCESS:        623 HIT:        622 MISS:          1 MSHR_MERGE:          0
cpu0->LLC PREFETCH     ACCESS:     109078 HIT:      40007 MISS:      69071 MSHR_MERGE:          0
cpu0->LLC WRITE        ACCESS:       2091 HIT:       2089 MISS:          2 MSHR_MERGE:          0
cpu0->LLC TRANSLATION  ACCESS:    1565080 HIT:     789599 MISS:     775481 MSHR_MERGE:          0
cpu0->LLC PREFETCH REQUESTED:          0 ISSUED:          0 USEFUL:          0 USELESS:          0 LATE:          0
cpu0->LLC AVERAGE MISS LATENCY: 201.7 cycles

DRAM Statistics

Channel 0 RQ ROW_BUFFER_HIT:      15850
  ROW_BUFFER_MISS:    3085590
  AVG DBUS CONGESTED CYCLE: 2.936
Channel 0 WQ ROW_BUFFER_HIT:          0
  ROW_BUFFER_MISS:          3
  FULL:          0
Channel 0 REFRESHES ISSUED:      30080

[ROI Statistics]
[System Configuration]
num_cpus 1
cpu_freq 4000
fetch_width 6
decode_width 6
dispatch_width 6
execute_width 6
lq_width 2
sq_width 2
retire_width 6
scheduler_size 128
branch_mispredict_penalty 15
rob_size 352
lq_size 128
sq_size 72
ifetch_buffer_size 64
decode_buffer_size 32
dispatch_buffer_size 32
register_file_size 288
decode_latency 1
dispatch_latency 1
schedule_latency 1
execute_latency 1
page_size 4096
block_size 64
core_0_itlb_set 16
core_0_itlb_way 4
core_0_itlb_rq_size 16
core_0_itlb_wq_size 16
core_0_itlb_pq_size 0
core_0_itlb_mshr_size 8
core_0_itlb_hit_latency 1
core_0_itlb_fill_latency 1
core_0_itlb_max_tag_check 2
core_0_itlb_max_fill 2
core_0_dtlb_set 16
core_0_dtlb_way 4
core_0_dtlb_rq_size 16
core_0_dtlb_wq_size 16
core_0_dtlb_pq_size 0
core_0_dtlb_mshr_size 8
core_0_dtlb_hit_latency 1
core_0_dtlb_fill_latency 1
core_0_dtlb_max_tag_check 2
core_0_dtlb_max_fill 2
core_0_stlb_set 128
core_0_stlb_way 12
core_0_stlb_rq_size 32
core_0_stlb_wq_size 32
core_0_stlb_pq_size 0
core_0_stlb_mshr_size 16
core_0_stlb_hit_latency 4
core_0_stlb_fill_latency 4
core_0_stlb_max_tag_check 1
core_0_stlb_max_fill 1
core_0_l1i_set 64
core_0_l1i_way 8
core_0_l1i_rq_size 64
core_0_l1i_wq_size 64
core_0_l1i_pq_size 32
core_0_l1i_mshr_size 8
core_0_l1i_hit_latency 2
core_0_l1i_fill_latency 2
core_0_l1i_max_tag_check 2
core_0_l1i_max_fill 2
core_0_l1d_set 64
core_0_l1d_way 12
core_0_l1d_rq_size 64
core_0_l1d_wq_size 64
core_0_l1d_pq_size 8
core_0_l1d_mshr_size 16
core_0_l1d_hit_latency 2
core_0_l1d_fill_latency 3
core_0_l1d_max_tag_check 2
core_0_l1d_max_fill 2
core_0_l2c_set 1024
core_0_l2c_way 8
core_0_l2c_rq_size 32
core_0_l2c_wq_size 32
core_0_l2c_pq_size 16
core_0_l2c_mshr_size 32
core_0_l2c_hit_latency 5
core_0_l2c_fill_latency 5
core_0_l2c_max_tag_check 1
core_0_l2c_max_fill 1
llc_set 2048
llc_way 16
llc_rq_size 32
llc_wq_size 32
llc_pq_size 32
llc_mshr_size 64
llc_hit_latency 10
llc_fill_latency 10
llc_max_tag_check 1
llc_max_fill 1
dram_channels 1
dram_ranks 1
dram_bankgroups 8
dram_banks 4
dram_rows 65536
dram_columns 1024
dram_channel_width 8
dram_rq_size 64
dram_wq_size 64
dram_size 17179869184
core_0_itlb_prefetcher no
core_0_dtlb_prefetcher no
core_0_stlb_prefetcher no
core_0_l1i_prefetcher next_line
core_0_l1d_prefetcher vberti
core_0_l2c_prefetcher ip_stride
llc_prefetcher no
llc_replacement drrip

Core_0_instructions 50000002
Core_0_cycles 360956753
Core_0_IPC 0.138521
Core_0_branch_prediction_accuracy 87.2242
Core_0_branch_MPKI 21.5413
Core_0_average_ROB_occupancy_at_mispredict 25.5731

Core_0_ITLB_total_access 8528
Core_0_ITLB_total_hit 8528
Core_0_ITLB_total_miss 0
Core_0_ITLB_total_MPKI 0
Core_0_ITLB_total_miss_rate 0
Core_0_ITLB_demand_access 8528
Core_0_ITLB_demand_hit 8528
Core_0_ITLB_demand_miss 0
Core_0_ITLB_demand_MPKI 0
Core_0_ITLB_demand_miss_rate 0
Core_0_ITLB_load_access 8528
Core_0_ITLB_load_hit 8528
Core_0_ITLB_load_miss 0
Core_0_ITLB_load_MPKI 0
Core_0_ITLB_load_miss_rate 0
Core_0_ITLB_rfo_access 0
Core_0_ITLB_rfo_hit 0
Core_0_ITLB_rfo_miss 0
Core_0_ITLB_rfo_MPKI 0
Core_0_ITLB_rfo_miss_rate 0
Core_0_ITLB_prefetch_access 0
Core_0_ITLB_prefetch_hit 0
Core_0_ITLB_prefetch_miss 0
Core_0_ITLB_prefetch_MPKI 0
Core_0_ITLB_prefetch_miss_rate 0
Core_0_ITLB_writeback_access 0
Core_0_ITLB_writeback_hit 0
Core_0_ITLB_writeback_miss 0
Core_0_ITLB_writeback_MPKI 0
Core_0_ITLB_writeback_miss_rate 0
Core_0_ITLB_prefetch_requested 0
Core_0_ITLB_prefetch_issued 0
Core_0_ITLB_prefetch_useful 0
Core_0_ITLB_prefetch_useless 0
Core_0_ITLB_prefetch_late 0
Core_0_ITLB_prefetch_accuracy 0
Core_0_ITLB_prefetch_coverage 0

Core_0_DTLB_total_access 6414488
Core_0_DTLB_total_hit 4309855
Core_0_DTLB_total_miss 2104633
Core_0_DTLB_total_MPKI 42.0927
Core_0_DTLB_total_miss_rate 0.328106
Core_0_DTLB_demand_access 6414488
Core_0_DTLB_demand_hit 4309855
Core_0_DTLB_demand_miss 2104633
Core_0_DTLB_demand_MPKI 42.0927
Core_0_DTLB_demand_miss_rate 0.328106
Core_0_DTLB_load_access 6414488
Core_0_DTLB_load_hit 4309855
Core_0_DTLB_load_miss 2104633
Core_0_DTLB_load_MPKI 42.0927
Core_0_DTLB_load_miss_rate 0.328106
Core_0_DTLB_rfo_access 0
Core_0_DTLB_rfo_hit 0
Core_0_DTLB_rfo_miss 0
Core_0_DTLB_rfo_MPKI 0
Core_0_DTLB_rfo_miss_rate 0
Core_0_DTLB_prefetch_access 0
Core_0_DTLB_prefetch_hit 0
Core_0_DTLB_prefetch_miss 0
Core_0_DTLB_prefetch_MPKI 0
Core_0_DTLB_prefetch_miss_rate 0
Core_0_DTLB_writeback_access 0
Core_0_DTLB_writeback_hit 0
Core_0_DTLB_writeback_miss 0
Core_0_DTLB_writeback_MPKI 0
Core_0_DTLB_writeback_miss_rate 0
Core_0_DTLB_prefetch_requested 0
Core_0_DTLB_prefetch_issued 0
Core_0_DTLB_prefetch_useful 0
Core_0_DTLB_prefetch_useless 0
Core_0_DTLB_prefetch_late 0
Core_0_DTLB_prefetch_accuracy 0
Core_0_DTLB_prefetch_coverage 0

Core_0_STLB_total_access 1998292
Core_0_STLB_total_hit 68144
Core_0_STLB_total_miss 1930148
Core_0_STLB_total_MPKI 38.603
Core_0_STLB_total_miss_rate 0.965899
Core_0_STLB_demand_access 1998292
Core_0_STLB_demand_hit 68144
Core_0_STLB_demand_miss 1930148
Core_0_STLB_demand_MPKI 38.603
Core_0_STLB_demand_miss_rate 0.965899
Core_0_STLB_load_access 1998292
Core_0_STLB_load_hit 68144
Core_0_STLB_load_miss 1930148
Core_0_STLB_load_MPKI 38.603
Core_0_STLB_load_miss_rate 0.965899
Core_0_STLB_rfo_access 0
Core_0_STLB_rfo_hit 0
Core_0_STLB_rfo_miss 0
Core_0_STLB_rfo_MPKI 0
Core_0_STLB_rfo_miss_rate 0
Core_0_STLB_prefetch_access 0
Core_0_STLB_prefetch_hit 0
Core_0_STLB_prefetch_miss 0
Core_0_STLB_prefetch_MPKI 0
Core_0_STLB_prefetch_miss_rate 0
Core_0_STLB_writeback_access 0
Core_0_STLB_writeback_hit 0
Core_0_STLB_writeback_miss 0
Core_0_STLB_writeback_MPKI 0
Core_0_STLB_writeback_miss_rate 0
Core_0_STLB_prefetch_requested 0
Core_0_STLB_prefetch_issued 0
Core_0_STLB_prefetch_useful 0
Core_0_STLB_prefetch_useless 0
Core_0_STLB_prefetch_late 0
Core_0_STLB_prefetch_accuracy 0
Core_0_STLB_prefetch_coverage 0

Core_0_L1I_total_access 10510
Core_0_L1I_total_hit 10510
Core_0_L1I_total_miss 0
Core_0_L1I_total_MPKI 0
Core_0_L1I_total_miss_rate 0
Core_0_L1I_demand_access 10510
Core_0_L1I_demand_hit 10510
Core_0_L1I_demand_miss 0
Core_0_L1I_demand_MPKI 0
Core_0_L1I_demand_miss_rate 0
Core_0_L1I_load_access 10510
Core_0_L1I_load_hit 10510
Core_0_L1I_load_miss 0
Core_0_L1I_load_MPKI 0
Core_0_L1I_load_miss_rate 0
Core_0_L1I_rfo_access 0
Core_0_L1I_rfo_hit 0
Core_0_L1I_rfo_miss 0
Core_0_L1I_rfo_MPKI 0
Core_0_L1I_rfo_miss_rate 0
Core_0_L1I_prefetch_access 0
Core_0_L1I_prefetch_hit 0
Core_0_L1I_prefetch_miss 0
Core_0_L1I_prefetch_MPKI 0
Core_0_L1I_prefetch_miss_rate 0
Core_0_L1I_writeback_access 0
Core_0_L1I_writeback_hit 0
Core_0_L1I_writeback_miss 0
Core_0_L1I_writeback_MPKI 0
Core_0_L1I_writeback_miss_rate 0
Core_0_L1I_prefetch_requested 0
Core_0_L1I_prefetch_issued 0
Core_0_L1I_prefetch_useful 0
Core_0_L1I_prefetch_useless 0
Core_0_L1I_prefetch_late 0
Core_0_L1I_prefetch_accuracy 0
Core_0_L1I_prefetch_coverage 0

Core_0_L1D_total_access 6746036
Core_0_L1D_total_hit 3206953
Core_0_L1D_total_miss 3539083
Core_0_L1D_total_MPKI 70.7817
Core_0_L1D_total_miss_rate 0.524617
Core_0_L1D_demand_access 4780177
Core_0_L1D_demand_hit 1740993
Core_0_L1D_demand_miss 3039184
Core_0_L1D_demand_MPKI 60.7837
Core_0_L1D_demand_miss_rate 0.635789
Core_0_L1D_load_access 4780177
Core_0_L1D_load_hit 1740993
Core_0_L1D_load_miss 3039184
Core_0_L1D_load_MPKI 60.7837
Core_0_L1D_load_miss_rate 0.635789
Core_0_L1D_rfo_access 0
Core_0_L1D_rfo_hit 0
Core_0_L1D_rfo_miss 0
Core_0_L1D_rfo_MPKI 0
Core_0_L1D_rfo_miss_rate 0
Core_0_L1D_prefetch_access 1060388
Core_0_L1D_prefetch_hit 588601
Core_0_L1D_prefetch_miss 471787
Core_0_L1D_prefetch_MPKI 9.43574
Core_0_L1D_prefetch_miss_rate 0.444919
Core_0_L1D_writeback_access 905471
Core_0_L1D_writeback_hit 877359
Core_0_L1D_writeback_miss 28112
Core_0_L1D_writeback_MPKI 0.56224
Core_0_L1D_writeback_miss_rate 0.0310468
Core_0_L1D_prefetch_requested 1220598
Core_0_L1D_prefetch_issued 1060385
Core_0_L1D_prefetch_useful 17679
Core_0_L1D_prefetch_useless 22801
Core_0_L1D_prefetch_late 48
Core_0_L1D_prefetch_accuracy 0.0166722
Core_0_L1D_prefetch_coverage 0.00578338

Core_0_L2C_total_access 3634531
Core_0_L2C_total_hit 632381
Core_0_L2C_total_miss 3002150
Core_0_L2C_total_MPKI 60.043
Core_0_L2C_total_miss_rate 0.826008
Core_0_L2C_demand_access 2995707
Core_0_L2C_demand_hit 106601
Core_0_L2C_demand_miss 2889106
Core_0_L2C_demand_MPKI 57.7821
Core_0_L2C_demand_miss_rate 0.964415
Core_0_L2C_load_access 2988748
Core_0_L2C_load_hit 100265
Core_0_L2C_load_miss 2888483
Core_0_L2C_load_MPKI 57.7697
Core_0_L2C_load_miss_rate 0.966453
Core_0_L2C_rfo_access 6959
Core_0_L2C_rfo_hit 6336
Core_0_L2C_rfo_miss 623
Core_0_L2C_rfo_MPKI 0.01246
Core_0_L2C_rfo_miss_rate 0.0895244
Core_0_L2C_prefetch_access 628828
Core_0_L2C_prefetch_hit 515821
Core_0_L2C_prefetch_miss 113007
Core_0_L2C_prefetch_MPKI 2.26014
Core_0_L2C_prefetch_miss_rate 0.179711
Core_0_L2C_writeback_access 9996
Core_0_L2C_writeback_hit 9959
Core_0_L2C_writeback_miss 37
Core_0_L2C_writeback_MPKI 0.00074
Core_0_L2C_writeback_miss_rate 0.00370148
Core_0_L2C_prefetch_requested 157634
Core_0_L2C_prefetch_issued 157634
Core_0_L2C_prefetch_useful 6580
Core_0_L2C_prefetch_useless 67329
Core_0_L2C_prefetch_late 0
Core_0_L2C_prefetch_accuracy 0.0417423
Core_0_L2C_prefetch_coverage 0.00227235

Core_0_LLC_total_access 3000275
Core_0_LLC_total_hit 674315
Core_0_LLC_total_miss 2325960
Core_0_LLC_total_MPKI 46.5192
Core_0_LLC_total_miss_rate 0.775249
Core_0_LLC_demand_access 2889106
Core_0_LLC_demand_hit 632219
Core_0_LLC_demand_miss 2256887
Core_0_LLC_demand_MPKI 45.1377
Core_0_LLC_demand_miss_rate 0.781171
Core_0_LLC_load_access 2888483
Core_0_LLC_load_hit 631597
Core_0_LLC_load_miss 2256886
Core_0_LLC_load_MPKI 45.1377
Core_0_LLC_load_miss_rate 0.78134
Core_0_LLC_rfo_access 623
Core_0_LLC_rfo_hit 622
Core_0_LLC_rfo_miss 1
Core_0_LLC_rfo_MPKI 2e-05
Core_0_LLC_rfo_miss_rate 0.00160514
Core_0_LLC_prefetch_access 109078
Core_0_LLC_prefetch_hit 40007
Core_0_LLC_prefetch_miss 69071
Core_0_LLC_prefetch_MPKI 1.38142
Core_0_LLC_prefetch_miss_rate 0.633226
Core_0_LLC_writeback_access 2091
Core_0_LLC_writeback_hit 2089
Core_0_LLC_writeback_miss 2
Core_0_LLC_writeback_MPKI 4e-05
Core_0_LLC_writeback_miss_rate 0.00095648
Core_0_LLC_prefetch_requested 0
Core_0_LLC_prefetch_issued 0
Core_0_LLC_prefetch_useful 0
Core_0_LLC_prefetch_useless 0
Core_0_LLC_prefetch_late 0
Core_0_LLC_prefetch_accuracy 0
Core_0_LLC_prefetch_coverage 0

[DRAM Statistics]
Channel_0_RQ_row_buffer_hit 15850
Channel_0_RQ_row_buffer_miss 3085590
Channel_0_WQ_row_buffer_hit 0
Channel_0_WQ_row_buffer_miss 3
Channel_0_WQ_full 0
Channel_0_dbus_congested 3312235
DRAM_total_RQ_row_buffer_hit 15850
DRAM_total_RQ_row_buffer_miss 3085590
DRAM_total_WQ_row_buffer_hit 0
DRAM_total_WQ_row_buffer_miss 3
DRAM_total_WQ_full 0
DRAM_total_dbus_congested 3312235
DRAM_avg_congested_cycle 2.93627

====== DRAM_RQ_TRAFFIC ========
DRAM_RQ_READ_TRAFFIC_BREAKDOWN:
data_demand_read.count = 2256888
data_demand_read.share = 72.77%

inst_demand_read.count = 0
inst_demand_read.share = 0.00%

cache_inst_prefetch.count = 0
cache_inst_prefetch.share = 0.00%

cache_data_prefetch.count = 69071
cache_data_prefetch.share = 2.23%

stlb_data_demand.count = 775481
stlb_data_demand.share = 25.00%

stlb_inst_demand.count = 0
stlb_inst_demand.share = 0.00%

stlb_l1i_pref.count = 0
stlb_l1i_pref.share = 0.00%

stlb_l1d_pref.count = 0
stlb_l1d_pref.share = 0.00%

DRAM_RQ_READ_TRAFFIC_SUMMARY:
cache_demand.count = 2256888
cache_demand.share = 72.77%

cache_prefetch.count = 69071
cache_prefetch.share = 2.23%

stlb_demand.count = 775481
stlb_demand.share = 25.00%

stlb_prefetch.count = 0
stlb_prefetch.share = 0.00%

DRAM_RQ_READ_TRAFFIC_DEBUG:
total_classified_read.count = 3101440
unclassified_read.count = 0
total_read_with_other.count = 3101440

classified_plus_unclassified_check.count = 3101440
dram_rq_read_total_observed.count = 3101440
dram_rq_read_total_observed.per_1K_instructions = 62.0288

STLB_MISS_PTW_DRAM_TOUCH_BREAKDOWN:
stlb_miss_total.count = 1930148

stlb_miss_touch_dram.count = 776463
stlb_miss_touch_dram.share = 40.23%

stlb_miss_no_dram_touch.count = 1153685
stlb_miss_no_dram_touch.share = 59.77%

STLB_MISS_PTW_DRAM_TOUCH_DEBUG:
stlb_miss_touch_plus_no_touch.count = 1930148
stlb_miss_total_check.count = 1930148

======STLB miss causes ========
Core_0_STLB_miss_cause_breakdown
Core_0_STLB_cause_Demand_Data_miss 1929347
Core_0_STLB_cause_Demand_Data_miss_rate 0.965498
Core_0_STLB_cause_Demand_Instruction_miss 0
Core_0_STLB_cause_Demand_Instruction_miss_rate 0
Core_0_STLB_cause_L1D_Prefetch_miss 801
Core_0_STLB_cause_L1D_Prefetch_miss_rate 0.000400842
Core_0_STLB_cause_L1I_Prefetch_miss 0
Core_0_STLB_cause_L1I_Prefetch_miss_rate 0
Core_0_STLB_cause_Other_miss 0
Core_0_STLB_cause_Other_miss_rate 0
Core_0_STLB_Demand_miss 1929347
Core_0_STLB_Demand_miss_rate 0.965498
Core_0_STLB_L1D_Prefetch_miss 801
Core_0_STLB_L1D_Prefetch_miss_rate 0.000400842
Core_0_STLB_Other_miss 0
Core_0_STLB_Other_miss_rate 0
BERTI TO_L1: 688615 TO_L2: 832855 TO_L2_BC_MSHR: 0
BERTI AVG_LAT: 127.038 NUM_TRACK_LATENCY: 4232968 NUM_CANT_TRACK_LATENCY: 0
BERTI CROSS_PAGE 160106 NO_CROSS_PAGE: 1361364
BERTI FOUND_BERTI: 5732749 NO_FOUND_BERTI: 1975324
BERTI AVERAGE_ISSUED: 3.04464
