[VMEM] WARNING: physical memory size is smaller than virtual memory size.

*** ChampSim Multicore Out-of-Order Simulator ***
Warmup Instructions: 20000000
Simulation Instructions: 50000000
Number of CPUs: 1
Page size: 4096
Core 0: /data2/zcq/champsim_traces_xsbench/xs.XXL100nuclide-324B.champsimtrace.xz
VBerti Prefetcher
BERTI HASH ENTANGLING
BERTI IP MASK ffff
Off-chip DRAM Size: 16 GiB Channels: 1 Width: 64-bit Data Rate: 3205 MT/s
Warmup halting CPU 0 at instruction 20000004 cycle 16245429 for remainder of phase
Warmup finished CPU 0 instructions: 20000004 cycles: 16245429 cumulative IPC: 1.231 (Simulation time: 00 hr 02 min 35 sec)
Warmup complete CPU 0 instructions: 20000004 cycles: 16245429 cumulative IPC: 1.231 (Simulation time: 00 hr 02 min 35 sec)
Simulation finished CPU 0 instructions: 50000000 cycles: 359950457 cumulative IPC: 0.1389 (Simulation time: 00 hr 23 min 58 sec)
Simulation complete CPU 0 instructions: 50000000 cycles: 359950457 cumulative IPC: 0.1389 (Simulation time: 00 hr 23 min 58 sec)

ChampSim completed all CPUs

=== Simulation ===
CPU 0 runs /data2/zcq/champsim_traces_xsbench/xs.XXL100nuclide-324B.champsimtrace.xz

Region of Interest Statistics

CPU 0 cumulative IPC: 0.1389 instructions: 50000000 cycles: 359950457
CPU 0 Branch Prediction Accuracy: 87.28% MPKI: 21.49 Average ROB Occupancy at Mispredict: 25.65
Branch type MPKI
BRANCH_DIRECT_JUMP: 2e-05
BRANCH_INDIRECT: 0
BRANCH_CONDITIONAL: 21.49
BRANCH_DIRECT_CALL: 0
BRANCH_INDIRECT_CALL: 0
BRANCH_RETURN: 0

cpu0->cpu0_STLB TOTAL        ACCESS:    1999853 HIT:      69184 MISS:    1930669 MSHR_MERGE:          0
cpu0->cpu0_STLB LOAD         ACCESS:    1999853 HIT:      69184 MISS:    1930669 MSHR_MERGE:          0
cpu0->cpu0_STLB RFO          ACCESS:          0 HIT:          0 MISS:          0 MSHR_MERGE:          0
cpu0->cpu0_STLB PREFETCH     ACCESS:          0 HIT:          0 MISS:          0 MSHR_MERGE:          0
cpu0->cpu0_STLB WRITE        ACCESS:          0 HIT:          0 MISS:          0 MSHR_MERGE:          0
cpu0->cpu0_STLB TRANSLATION  ACCESS:          0 HIT:          0 MISS:          0 MSHR_MERGE:          0
cpu0->cpu0_STLB PREFETCH REQUESTED:          0 ISSUED:          0 USEFUL:          0 USELESS:          0 LATE:          0
cpu0->cpu0_STLB AVERAGE MISS LATENCY: 196.3 cycles
cpu0->cpu0_L2C TOTAL        ACCESS:    5274122 HIT:     702782 MISS:    4571340 MSHR_MERGE:       4003
cpu0->cpu0_L2C LOAD         ACCESS:    2987914 HIT:      99419 MISS:    2888495 MSHR_MERGE:          0
cpu0->cpu0_L2C RFO          ACCESS:       6436 HIT:       5942 MISS:        494 MSHR_MERGE:          0
cpu0->cpu0_L2C PREFETCH     ACCESS:     606833 HIT:     493734 MISS:     113099 MSHR_MERGE:       4003
cpu0->cpu0_L2C WRITE        ACCESS:       9916 HIT:       9891 MISS:         25 MSHR_MERGE:          0
cpu0->cpu0_L2C TRANSLATION  ACCESS:    1663023 HIT:      93796 MISS:    1569227 MSHR_MERGE:          0
cpu0->cpu0_L2C PREFETCH REQUESTED:     157305 ISSUED:     157305 USEFUL:       6114 USELESS:      68196 LATE:          0
cpu0->cpu0_L2C AVERAGE MISS LATENCY: 152.5 cycles
cpu0->cpu0_L1I TOTAL        ACCESS:      10765 HIT:      10764 MISS:          1 MSHR_MERGE:          0
cpu0->cpu0_L1I LOAD         ACCESS:      10765 HIT:      10764 MISS:          1 MSHR_MERGE:          0
cpu0->cpu0_L1I RFO          ACCESS:          0 HIT:          0 MISS:          0 MSHR_MERGE:          0
cpu0->cpu0_L1I PREFETCH     ACCESS:          0 HIT:          0 MISS:          0 MSHR_MERGE:          0
cpu0->cpu0_L1I WRITE        ACCESS:          0 HIT:          0 MISS:          0 MSHR_MERGE:          0
cpu0->cpu0_L1I TRANSLATION  ACCESS:          0 HIT:          0 MISS:          0 MSHR_MERGE:          0
cpu0->cpu0_L1I PREFETCH REQUESTED:          0 ISSUED:          0 USEFUL:          0 USELESS:          0 LATE:          0
cpu0->cpu0_L1I AVERAGE MISS LATENCY: 225 cycles
cpu0->cpu0_L1D TOTAL        ACCESS:   10985108 HIT:    4898972 MISS:    6086136 MSHR_MERGE:     979203
cpu0->cpu0_L1D LOAD         ACCESS:    4782028 HIT:    1743732 MISS:    3038296 MSHR_MERGE:      50383
cpu0->cpu0_L1D RFO          ACCESS:          0 HIT:          0 MISS:          0 MSHR_MERGE:          0
cpu0->cpu0_L1D PREFETCH     ACCESS:    1057997 HIT:     607744 MISS:     450253 MSHR_MERGE:        725
cpu0->cpu0_L1D WRITE        ACCESS:     906184 HIT:     879388 MISS:      26796 MSHR_MERGE:      20327
cpu0->cpu0_L1D TRANSLATION  ACCESS:    4238899 HIT:    1668108 MISS:    2570791 MSHR_MERGE:     907768
cpu0->cpu0_L1D PREFETCH REQUESTED:    1211905 ISSUED:    1057993 USEFUL:      18161 USELESS:      23586 LATE:         96
cpu0->cpu0_L1D AVERAGE MISS LATENCY: 155.1 cycles
cpu0->cpu0_ITLB TOTAL        ACCESS:       8726 HIT:       8726 MISS:          0 MSHR_MERGE:          0
cpu0->cpu0_ITLB LOAD         ACCESS:       8726 HIT:       8726 MISS:          0 MSHR_MERGE:          0
cpu0->cpu0_ITLB RFO          ACCESS:          0 HIT:          0 MISS:          0 MSHR_MERGE:          0
cpu0->cpu0_ITLB PREFETCH     ACCESS:          0 HIT:          0 MISS:          0 MSHR_MERGE:          0
cpu0->cpu0_ITLB WRITE        ACCESS:          0 HIT:          0 MISS:          0 MSHR_MERGE:          0
cpu0->cpu0_ITLB TRANSLATION  ACCESS:          0 HIT:          0 MISS:          0 MSHR_MERGE:          0
cpu0->cpu0_ITLB PREFETCH REQUESTED:          0 ISSUED:          0 USEFUL:          0 USELESS:          0 LATE:          0
cpu0->cpu0_ITLB AVERAGE MISS LATENCY: - cycles
cpu0->cpu0_DTLB TOTAL        ACCESS:    6417566 HIT:    4315225 MISS:    2102341 MSHR_MERGE:     102488
cpu0->cpu0_DTLB LOAD         ACCESS:    6417566 HIT:    4315225 MISS:    2102341 MSHR_MERGE:     102488
cpu0->cpu0_DTLB RFO          ACCESS:          0 HIT:          0 MISS:          0 MSHR_MERGE:          0
cpu0->cpu0_DTLB PREFETCH     ACCESS:          0 HIT:          0 MISS:          0 MSHR_MERGE:          0
cpu0->cpu0_DTLB WRITE        ACCESS:          0 HIT:          0 MISS:          0 MSHR_MERGE:          0
cpu0->cpu0_DTLB TRANSLATION  ACCESS:          0 HIT:          0 MISS:          0 MSHR_MERGE:          0
cpu0->cpu0_DTLB PREFETCH REQUESTED:          0 ISSUED:          0 USEFUL:          0 USELESS:          0 LATE:          0
cpu0->cpu0_DTLB AVERAGE MISS LATENCY: 195.5 cycles
cpu0->LLC TOTAL        ACCESS:    4569265 HIT:    1474144 MISS:    3095121 MSHR_MERGE:          0
cpu0->LLC LOAD         ACCESS:    2888495 HIT:     635382 MISS:    2253113 MSHR_MERGE:          0
cpu0->LLC RFO          ACCESS:        494 HIT:        493 MISS:          1 MSHR_MERGE:          0
cpu0->LLC PREFETCH     ACCESS:     109096 HIT:      39309 MISS:      69787 MSHR_MERGE:          0
cpu0->LLC WRITE        ACCESS:       1953 HIT:       1943 MISS:         10 MSHR_MERGE:          0
cpu0->LLC TRANSLATION  ACCESS:    1569227 HIT:     797017 MISS:     772210 MSHR_MERGE:          0
cpu0->LLC PREFETCH REQUESTED:          0 ISSUED:          0 USEFUL:          0 USELESS:          0 LATE:          0
cpu0->LLC AVERAGE MISS LATENCY: 201.7 cycles

DRAM Statistics

Channel 0 RQ ROW_BUFFER_HIT:      15675
  ROW_BUFFER_MISS:    3079436
  AVG DBUS CONGESTED CYCLE: 2.937
Channel 0 WQ ROW_BUFFER_HIT:          2
  ROW_BUFFER_MISS:         11
  FULL:          0
Channel 0 REFRESHES ISSUED:      29996

[ROI Statistics]
[System Configuration]
num_cpus 1
cpu_freq 4000
fetch_width 6
decode_width 6
dispatch_width 6
execute_width 6
lq_width 2
sq_width 2
retire_width 6
scheduler_size 128
branch_mispredict_penalty 15
rob_size 352
lq_size 128
sq_size 72
ifetch_buffer_size 64
decode_buffer_size 32
dispatch_buffer_size 32
register_file_size 288
decode_latency 1
dispatch_latency 1
schedule_latency 1
execute_latency 1
page_size 4096
block_size 64
core_0_itlb_set 16
core_0_itlb_way 4
core_0_itlb_rq_size 16
core_0_itlb_wq_size 16
core_0_itlb_pq_size 0
core_0_itlb_mshr_size 8
core_0_itlb_hit_latency 1
core_0_itlb_fill_latency 1
core_0_itlb_max_tag_check 2
core_0_itlb_max_fill 2
core_0_dtlb_set 16
core_0_dtlb_way 4
core_0_dtlb_rq_size 16
core_0_dtlb_wq_size 16
core_0_dtlb_pq_size 0
core_0_dtlb_mshr_size 8
core_0_dtlb_hit_latency 1
core_0_dtlb_fill_latency 1
core_0_dtlb_max_tag_check 2
core_0_dtlb_max_fill 2
core_0_stlb_set 128
core_0_stlb_way 12
core_0_stlb_rq_size 32
core_0_stlb_wq_size 32
core_0_stlb_pq_size 0
core_0_stlb_mshr_size 16
core_0_stlb_hit_latency 4
core_0_stlb_fill_latency 4
core_0_stlb_max_tag_check 1
core_0_stlb_max_fill 1
core_0_l1i_set 64
core_0_l1i_way 8
core_0_l1i_rq_size 64
core_0_l1i_wq_size 64
core_0_l1i_pq_size 32
core_0_l1i_mshr_size 8
core_0_l1i_hit_latency 2
core_0_l1i_fill_latency 2
core_0_l1i_max_tag_check 2
core_0_l1i_max_fill 2
core_0_l1d_set 64
core_0_l1d_way 12
core_0_l1d_rq_size 64
core_0_l1d_wq_size 64
core_0_l1d_pq_size 8
core_0_l1d_mshr_size 16
core_0_l1d_hit_latency 2
core_0_l1d_fill_latency 3
core_0_l1d_max_tag_check 2
core_0_l1d_max_fill 2
core_0_l2c_set 1024
core_0_l2c_way 8
core_0_l2c_rq_size 32
core_0_l2c_wq_size 32
core_0_l2c_pq_size 16
core_0_l2c_mshr_size 32
core_0_l2c_hit_latency 5
core_0_l2c_fill_latency 5
core_0_l2c_max_tag_check 1
core_0_l2c_max_fill 1
llc_set 2048
llc_way 16
llc_rq_size 32
llc_wq_size 32
llc_pq_size 32
llc_mshr_size 64
llc_hit_latency 10
llc_fill_latency 10
llc_max_tag_check 1
llc_max_fill 1
dram_channels 1
dram_ranks 1
dram_bankgroups 8
dram_banks 4
dram_rows 65536
dram_columns 1024
dram_channel_width 8
dram_rq_size 64
dram_wq_size 64
dram_size 17179869184
core_0_itlb_prefetcher no
core_0_dtlb_prefetcher no
core_0_stlb_prefetcher no
core_0_l1i_prefetcher next_line
core_0_l1d_prefetcher vberti
core_0_l2c_prefetcher ip_stride
llc_prefetcher no
llc_replacement drrip

Core_0_instructions 50000000
Core_0_cycles 359950457
Core_0_IPC 0.138908
Core_0_branch_prediction_accuracy 87.2762
Core_0_branch_MPKI 21.4853
Core_0_average_ROB_occupancy_at_mispredict 25.6488

Core_0_ITLB_total_access 8726
Core_0_ITLB_total_hit 8726
Core_0_ITLB_total_miss 0
Core_0_ITLB_total_MPKI 0
Core_0_ITLB_total_miss_rate 0
Core_0_ITLB_demand_access 8726
Core_0_ITLB_demand_hit 8726
Core_0_ITLB_demand_miss 0
Core_0_ITLB_demand_MPKI 0
Core_0_ITLB_demand_miss_rate 0
Core_0_ITLB_load_access 8726
Core_0_ITLB_load_hit 8726
Core_0_ITLB_load_miss 0
Core_0_ITLB_load_MPKI 0
Core_0_ITLB_load_miss_rate 0
Core_0_ITLB_rfo_access 0
Core_0_ITLB_rfo_hit 0
Core_0_ITLB_rfo_miss 0
Core_0_ITLB_rfo_MPKI 0
Core_0_ITLB_rfo_miss_rate 0
Core_0_ITLB_prefetch_access 0
Core_0_ITLB_prefetch_hit 0
Core_0_ITLB_prefetch_miss 0
Core_0_ITLB_prefetch_MPKI 0
Core_0_ITLB_prefetch_miss_rate 0
Core_0_ITLB_writeback_access 0
Core_0_ITLB_writeback_hit 0
Core_0_ITLB_writeback_miss 0
Core_0_ITLB_writeback_MPKI 0
Core_0_ITLB_writeback_miss_rate 0
Core_0_ITLB_prefetch_requested 0
Core_0_ITLB_prefetch_issued 0
Core_0_ITLB_prefetch_useful 0
Core_0_ITLB_prefetch_useless 0
Core_0_ITLB_prefetch_late 0
Core_0_ITLB_prefetch_accuracy 0
Core_0_ITLB_prefetch_coverage 0

Core_0_DTLB_total_access 6417566
Core_0_DTLB_total_hit 4315225
Core_0_DTLB_total_miss 2102341
Core_0_DTLB_total_MPKI 42.0468
Core_0_DTLB_total_miss_rate 0.327592
Core_0_DTLB_demand_access 6417566
Core_0_DTLB_demand_hit 4315225
Core_0_DTLB_demand_miss 2102341
Core_0_DTLB_demand_MPKI 42.0468
Core_0_DTLB_demand_miss_rate 0.327592
Core_0_DTLB_load_access 6417566
Core_0_DTLB_load_hit 4315225
Core_0_DTLB_load_miss 2102341
Core_0_DTLB_load_MPKI 42.0468
Core_0_DTLB_load_miss_rate 0.327592
Core_0_DTLB_rfo_access 0
Core_0_DTLB_rfo_hit 0
Core_0_DTLB_rfo_miss 0
Core_0_DTLB_rfo_MPKI 0
Core_0_DTLB_rfo_miss_rate 0
Core_0_DTLB_prefetch_access 0
Core_0_DTLB_prefetch_hit 0
Core_0_DTLB_prefetch_miss 0
Core_0_DTLB_prefetch_MPKI 0
Core_0_DTLB_prefetch_miss_rate 0
Core_0_DTLB_writeback_access 0
Core_0_DTLB_writeback_hit 0
Core_0_DTLB_writeback_miss 0
Core_0_DTLB_writeback_MPKI 0
Core_0_DTLB_writeback_miss_rate 0
Core_0_DTLB_prefetch_requested 0
Core_0_DTLB_prefetch_issued 0
Core_0_DTLB_prefetch_useful 0
Core_0_DTLB_prefetch_useless 0
Core_0_DTLB_prefetch_late 0
Core_0_DTLB_prefetch_accuracy 0
Core_0_DTLB_prefetch_coverage 0

Core_0_STLB_total_access 1999853
Core_0_STLB_total_hit 69184
Core_0_STLB_total_miss 1930669
Core_0_STLB_total_MPKI 38.6134
Core_0_STLB_total_miss_rate 0.965405
Core_0_STLB_demand_access 1999853
Core_0_STLB_demand_hit 69184
Core_0_STLB_demand_miss 1930669
Core_0_STLB_demand_MPKI 38.6134
Core_0_STLB_demand_miss_rate 0.965405
Core_0_STLB_load_access 1999853
Core_0_STLB_load_hit 69184
Core_0_STLB_load_miss 1930669
Core_0_STLB_load_MPKI 38.6134
Core_0_STLB_load_miss_rate 0.965405
Core_0_STLB_rfo_access 0
Core_0_STLB_rfo_hit 0
Core_0_STLB_rfo_miss 0
Core_0_STLB_rfo_MPKI 0
Core_0_STLB_rfo_miss_rate 0
Core_0_STLB_prefetch_access 0
Core_0_STLB_prefetch_hit 0
Core_0_STLB_prefetch_miss 0
Core_0_STLB_prefetch_MPKI 0
Core_0_STLB_prefetch_miss_rate 0
Core_0_STLB_writeback_access 0
Core_0_STLB_writeback_hit 0
Core_0_STLB_writeback_miss 0
Core_0_STLB_writeback_MPKI 0
Core_0_STLB_writeback_miss_rate 0
Core_0_STLB_prefetch_requested 0
Core_0_STLB_prefetch_issued 0
Core_0_STLB_prefetch_useful 0
Core_0_STLB_prefetch_useless 0
Core_0_STLB_prefetch_late 0
Core_0_STLB_prefetch_accuracy 0
Core_0_STLB_prefetch_coverage 0

Core_0_L1I_total_access 10765
Core_0_L1I_total_hit 10764
Core_0_L1I_total_miss 1
Core_0_L1I_total_MPKI 2e-05
Core_0_L1I_total_miss_rate 9.28936e-05
Core_0_L1I_demand_access 10765
Core_0_L1I_demand_hit 10764
Core_0_L1I_demand_miss 1
Core_0_L1I_demand_MPKI 2e-05
Core_0_L1I_demand_miss_rate 9.28936e-05
Core_0_L1I_load_access 10765
Core_0_L1I_load_hit 10764
Core_0_L1I_load_miss 1
Core_0_L1I_load_MPKI 2e-05
Core_0_L1I_load_miss_rate 9.28936e-05
Core_0_L1I_rfo_access 0
Core_0_L1I_rfo_hit 0
Core_0_L1I_rfo_miss 0
Core_0_L1I_rfo_MPKI 0
Core_0_L1I_rfo_miss_rate 0
Core_0_L1I_prefetch_access 0
Core_0_L1I_prefetch_hit 0
Core_0_L1I_prefetch_miss 0
Core_0_L1I_prefetch_MPKI 0
Core_0_L1I_prefetch_miss_rate 0
Core_0_L1I_writeback_access 0
Core_0_L1I_writeback_hit 0
Core_0_L1I_writeback_miss 0
Core_0_L1I_writeback_MPKI 0
Core_0_L1I_writeback_miss_rate 0
Core_0_L1I_prefetch_requested 0
Core_0_L1I_prefetch_issued 0
Core_0_L1I_prefetch_useful 0
Core_0_L1I_prefetch_useless 0
Core_0_L1I_prefetch_late 0
Core_0_L1I_prefetch_accuracy 0
Core_0_L1I_prefetch_coverage 0

Core_0_L1D_total_access 6746209
Core_0_L1D_total_hit 3230864
Core_0_L1D_total_miss 3515345
Core_0_L1D_total_MPKI 70.3069
Core_0_L1D_total_miss_rate 0.521085
Core_0_L1D_demand_access 4782028
Core_0_L1D_demand_hit 1743732
Core_0_L1D_demand_miss 3038296
Core_0_L1D_demand_MPKI 60.7659
Core_0_L1D_demand_miss_rate 0.635357
Core_0_L1D_load_access 4782028
Core_0_L1D_load_hit 1743732
Core_0_L1D_load_miss 3038296
Core_0_L1D_load_MPKI 60.7659
Core_0_L1D_load_miss_rate 0.635357
Core_0_L1D_rfo_access 0
Core_0_L1D_rfo_hit 0
Core_0_L1D_rfo_miss 0
Core_0_L1D_rfo_MPKI 0
Core_0_L1D_rfo_miss_rate 0
Core_0_L1D_prefetch_access 1057997
Core_0_L1D_prefetch_hit 607744
Core_0_L1D_prefetch_miss 450253
Core_0_L1D_prefetch_MPKI 9.00506
Core_0_L1D_prefetch_miss_rate 0.425571
Core_0_L1D_writeback_access 906184
Core_0_L1D_writeback_hit 879388
Core_0_L1D_writeback_miss 26796
Core_0_L1D_writeback_MPKI 0.53592
Core_0_L1D_writeback_miss_rate 0.0295702
Core_0_L1D_prefetch_requested 1211905
Core_0_L1D_prefetch_issued 1057993
Core_0_L1D_prefetch_useful 18161
Core_0_L1D_prefetch_useless 23586
Core_0_L1D_prefetch_late 96
Core_0_L1D_prefetch_accuracy 0.0171655
Core_0_L1D_prefetch_coverage 0.00594185

Core_0_L2C_total_access 3611099
Core_0_L2C_total_hit 608986
Core_0_L2C_total_miss 3002113
Core_0_L2C_total_MPKI 60.0423
Core_0_L2C_total_miss_rate 0.831357
Core_0_L2C_demand_access 2994350
Core_0_L2C_demand_hit 105361
Core_0_L2C_demand_miss 2888989
Core_0_L2C_demand_MPKI 57.7798
Core_0_L2C_demand_miss_rate 0.964813
Core_0_L2C_load_access 2987914
Core_0_L2C_load_hit 99419
Core_0_L2C_load_miss 2888495
Core_0_L2C_load_MPKI 57.7699
Core_0_L2C_load_miss_rate 0.966726
Core_0_L2C_rfo_access 6436
Core_0_L2C_rfo_hit 5942
Core_0_L2C_rfo_miss 494
Core_0_L2C_rfo_MPKI 0.00988
Core_0_L2C_rfo_miss_rate 0.0767557
Core_0_L2C_prefetch_access 606833
Core_0_L2C_prefetch_hit 493734
Core_0_L2C_prefetch_miss 113099
Core_0_L2C_prefetch_MPKI 2.26198
Core_0_L2C_prefetch_miss_rate 0.186376
Core_0_L2C_writeback_access 9916
Core_0_L2C_writeback_hit 9891
Core_0_L2C_writeback_miss 25
Core_0_L2C_writeback_MPKI 0.0005
Core_0_L2C_writeback_miss_rate 0.00252118
Core_0_L2C_prefetch_requested 157305
Core_0_L2C_prefetch_issued 157305
Core_0_L2C_prefetch_useful 6114
Core_0_L2C_prefetch_useless 68196
Core_0_L2C_prefetch_late 0
Core_0_L2C_prefetch_accuracy 0.0388672
Core_0_L2C_prefetch_coverage 0.00211184

Core_0_LLC_total_access 3000038
Core_0_LLC_total_hit 677127
Core_0_LLC_total_miss 2322911
Core_0_LLC_total_MPKI 46.4582
Core_0_LLC_total_miss_rate 0.774294
Core_0_LLC_demand_access 2888989
Core_0_LLC_demand_hit 635875
Core_0_LLC_demand_miss 2253114
Core_0_LLC_demand_MPKI 45.0623
Core_0_LLC_demand_miss_rate 0.779897
Core_0_LLC_load_access 2888495
Core_0_LLC_load_hit 635382
Core_0_LLC_load_miss 2253113
Core_0_LLC_load_MPKI 45.0623
Core_0_LLC_load_miss_rate 0.78003
Core_0_LLC_rfo_access 494
Core_0_LLC_rfo_hit 493
Core_0_LLC_rfo_miss 1
Core_0_LLC_rfo_MPKI 2e-05
Core_0_LLC_rfo_miss_rate 0.00202429
Core_0_LLC_prefetch_access 109096
Core_0_LLC_prefetch_hit 39309
Core_0_LLC_prefetch_miss 69787
Core_0_LLC_prefetch_MPKI 1.39574
Core_0_LLC_prefetch_miss_rate 0.639684
Core_0_LLC_writeback_access 1953
Core_0_LLC_writeback_hit 1943
Core_0_LLC_writeback_miss 10
Core_0_LLC_writeback_MPKI 0.0002
Core_0_LLC_writeback_miss_rate 0.00512033
Core_0_LLC_prefetch_requested 0
Core_0_LLC_prefetch_issued 0
Core_0_LLC_prefetch_useful 0
Core_0_LLC_prefetch_useless 0
Core_0_LLC_prefetch_late 0
Core_0_LLC_prefetch_accuracy 0
Core_0_LLC_prefetch_coverage 0

[DRAM Statistics]
Channel_0_RQ_row_buffer_hit 15675
Channel_0_RQ_row_buffer_miss 3079436
Channel_0_WQ_row_buffer_hit 2
Channel_0_WQ_row_buffer_miss 11
Channel_0_WQ_full 0
Channel_0_dbus_congested 3292217
DRAM_total_RQ_row_buffer_hit 15675
DRAM_total_RQ_row_buffer_miss 3079436
DRAM_total_WQ_row_buffer_hit 2
DRAM_total_WQ_row_buffer_miss 11
DRAM_total_WQ_full 0
DRAM_total_dbus_congested 3292217
DRAM_avg_congested_cycle 2.93652

====== DRAM_RQ_TRAFFIC ========
DRAM_RQ_READ_TRAFFIC_BREAKDOWN:
data_demand_read.count = 2253113
data_demand_read.share = 72.80%

inst_demand_read.count = 1
inst_demand_read.share = 0.00%

cache_inst_prefetch.count = 0
cache_inst_prefetch.share = 0.00%

cache_data_prefetch.count = 69787
cache_data_prefetch.share = 2.25%

stlb_data_demand.count = 772210
stlb_data_demand.share = 24.95%

stlb_inst_demand.count = 0
stlb_inst_demand.share = 0.00%

stlb_l1i_pref.count = 0
stlb_l1i_pref.share = 0.00%

stlb_l1d_pref.count = 0
stlb_l1d_pref.share = 0.00%

DRAM_RQ_READ_TRAFFIC_SUMMARY:
cache_demand.count = 2253114
cache_demand.share = 72.80%

cache_prefetch.count = 69787
cache_prefetch.share = 2.25%

stlb_demand.count = 772210
stlb_demand.share = 24.95%

stlb_prefetch.count = 0
stlb_prefetch.share = 0.00%

DRAM_RQ_READ_TRAFFIC_DEBUG:
total_classified_read.count = 3095111
unclassified_read.count = 0
total_read_with_other.count = 3095111

classified_plus_unclassified_check.count = 3095111
dram_rq_read_total_observed.count = 3095111
dram_rq_read_total_observed.per_1K_instructions = 61.9022

STLB_MISS_PTW_DRAM_TOUCH_BREAKDOWN:
stlb_miss_total.count = 1930669

stlb_miss_touch_dram.count = 773043
stlb_miss_touch_dram.share = 40.04%

stlb_miss_no_dram_touch.count = 1157626
stlb_miss_no_dram_touch.share = 59.96%

STLB_MISS_PTW_DRAM_TOUCH_DEBUG:
stlb_miss_touch_plus_no_touch.count = 1930669
stlb_miss_total_check.count = 1930669

======STLB miss causes ========
Core_0_STLB_miss_cause_breakdown
Core_0_STLB_cause_Demand_Data_miss 1929725
Core_0_STLB_cause_Demand_Data_miss_rate 0.964933
Core_0_STLB_cause_Demand_Instruction_miss 0
Core_0_STLB_cause_Demand_Instruction_miss_rate 0
Core_0_STLB_cause_L1D_Prefetch_miss 944
Core_0_STLB_cause_L1D_Prefetch_miss_rate 0.000472035
Core_0_STLB_cause_L1I_Prefetch_miss 0
Core_0_STLB_cause_L1I_Prefetch_miss_rate 0
Core_0_STLB_cause_Other_miss 0
Core_0_STLB_cause_Other_miss_rate 0
Core_0_STLB_Demand_miss 1929725
Core_0_STLB_Demand_miss_rate 0.964933
Core_0_STLB_L1D_Prefetch_miss 944
Core_0_STLB_L1D_Prefetch_miss_rate 0.000472035
Core_0_STLB_Other_miss 0
Core_0_STLB_Other_miss_rate 0
BERTI TO_L1: 712405 TO_L2: 801632 TO_L2_BC_MSHR: 0
BERTI AVG_LAT: 126.811 NUM_TRACK_LATENCY: 4237272 NUM_CANT_TRACK_LATENCY: 0
BERTI CROSS_PAGE 158790 NO_CROSS_PAGE: 1355247
BERTI FOUND_BERTI: 5921120 NO_FOUND_BERTI: 1784025
BERTI AVERAGE_ISSUED: 3.03914
