[VMEM] WARNING: physical memory size is smaller than virtual memory size.

*** ChampSim Multicore Out-of-Order Simulator ***
Warmup Instructions: 20000000
Simulation Instructions: 50000000
Number of CPUs: 1
Page size: 4096
STLB ideal mode: l1pref
STLB ideal fill: on
Core 0: /data0/tzh/champsim_traces/SPEC06/473.astar-359B.champsimtrace.xz
 L1D Berti prefetcher
Off-chip DRAM Size: 16 GiB Channels: 1 Width: 64-bit Data Rate: 3205 MT/s
Warmup halting CPU 0 at instruction 20000005 cycle 6343908 for remainder of phase
Warmup finished CPU 0 instructions: 20000005 cycles: 6343908 cumulative IPC: 3.153 (Simulation time: 00 hr 01 min 18 sec)
Warmup complete CPU 0 instructions: 20000005 cycles: 6343908 cumulative IPC: 3.153 (Simulation time: 00 hr 01 min 18 sec)
Simulation finished CPU 0 instructions: 50000004 cycles: 248216659 cumulative IPC: 0.2014 (Simulation time: 00 hr 18 min 12 sec)
Simulation complete CPU 0 instructions: 50000004 cycles: 248216659 cumulative IPC: 0.2014 (Simulation time: 00 hr 18 min 12 sec)

ChampSim completed all CPUs

=== Simulation ===
CPU 0 runs /data0/tzh/champsim_traces/SPEC06/473.astar-359B.champsimtrace.xz

Region of Interest Statistics

CPU 0 cumulative IPC: 0.2014 instructions: 50000004 cycles: 248216659
CPU 0 Branch Prediction Accuracy: 93.2% MPKI: 13.43 Average ROB Occupancy at Mispredict: 45.01
Branch type MPKI
BRANCH_DIRECT_JUMP: 0
BRANCH_INDIRECT: 0
BRANCH_CONDITIONAL: 13.42
BRANCH_DIRECT_CALL: 0
BRANCH_INDIRECT_CALL: 0.00054
BRANCH_RETURN: 0

cpu0->cpu0_STLB TOTAL        ACCESS:    1676889 HIT:     889627 MISS:     787262 MSHR_MERGE:          0
cpu0->cpu0_STLB LOAD         ACCESS:    1676889 HIT:     889627 MISS:     787262 MSHR_MERGE:          0
cpu0->cpu0_STLB RFO          ACCESS:          0 HIT:          0 MISS:          0 MSHR_MERGE:          0
cpu0->cpu0_STLB PREFETCH     ACCESS:          0 HIT:          0 MISS:          0 MSHR_MERGE:          0
cpu0->cpu0_STLB WRITE        ACCESS:          0 HIT:          0 MISS:          0 MSHR_MERGE:          0
cpu0->cpu0_STLB TRANSLATION  ACCESS:          0 HIT:          0 MISS:          0 MSHR_MERGE:          0
cpu0->cpu0_STLB PREFETCH REQUESTED:          0 ISSUED:          0 USEFUL:          0 USELESS:          0 LATE:          0
cpu0->cpu0_STLB AVERAGE MISS LATENCY: 179.3 cycles
cpu0->cpu0_L2C TOTAL        ACCESS:    4555655 HIT:    2393070 MISS:    2162585 MSHR_MERGE:      57512
cpu0->cpu0_L2C LOAD         ACCESS:    1588852 HIT:     693563 MISS:     895289 MSHR_MERGE:       9298
cpu0->cpu0_L2C RFO          ACCESS:     765364 HIT:      49011 MISS:     716353 MSHR_MERGE:          0
cpu0->cpu0_L2C PREFETCH     ACCESS:     599002 HIT:     218657 MISS:     380345 MSHR_MERGE:      48214
cpu0->cpu0_L2C WRITE        ACCESS:    1167754 HIT:    1167712 MISS:         42 MSHR_MERGE:          0
cpu0->cpu0_L2C TRANSLATION  ACCESS:     434683 HIT:     264127 MISS:     170556 MSHR_MERGE:          0
cpu0->cpu0_L2C PREFETCH REQUESTED:     148575 ISSUED:     148575 USEFUL:      40782 USELESS:      13589 LATE:       9298
cpu0->cpu0_L2C AVERAGE MISS LATENCY: 329.8 cycles
cpu0->cpu0_L1I TOTAL        ACCESS:     739448 HIT:     739441 MISS:          7 MSHR_MERGE:          0
cpu0->cpu0_L1I LOAD         ACCESS:     739448 HIT:     739441 MISS:          7 MSHR_MERGE:          0
cpu0->cpu0_L1I RFO          ACCESS:          0 HIT:          0 MISS:          0 MSHR_MERGE:          0
cpu0->cpu0_L1I PREFETCH     ACCESS:          0 HIT:          0 MISS:          0 MSHR_MERGE:          0
cpu0->cpu0_L1I WRITE        ACCESS:          0 HIT:          0 MISS:          0 MSHR_MERGE:          0
cpu0->cpu0_L1I TRANSLATION  ACCESS:          0 HIT:          0 MISS:          0 MSHR_MERGE:          0
cpu0->cpu0_L1I PREFETCH REQUESTED:          0 ISSUED:          0 USEFUL:          0 USELESS:          0 LATE:          0
cpu0->cpu0_L1I AVERAGE MISS LATENCY: 218.3 cycles
cpu0->cpu0_L1D TOTAL        ACCESS:   22144183 HIT:   18124537 MISS:    4019646 MSHR_MERGE:     780327
cpu0->cpu0_L1D LOAD         ACCESS:   13793625 HIT:   11541392 MISS:    2252233 MSHR_MERGE:     663388
cpu0->cpu0_L1D RFO          ACCESS:          0 HIT:          0 MISS:          0 MSHR_MERGE:          0
cpu0->cpu0_L1D PREFETCH     ACCESS:     572891 HIT:      95743 MISS:     477148 MSHR_MERGE:      26721
cpu0->cpu0_L1D WRITE        ACCESS:    6315221 HIT:    5549769 MISS:     765452 MSHR_MERGE:         88
cpu0->cpu0_L1D TRANSLATION  ACCESS:    1462446 HIT:     937633 MISS:     524813 MSHR_MERGE:      90130
cpu0->cpu0_L1D PREFETCH REQUESTED:     586661 ISSUED:     572899 USEFUL:     154359 USELESS:     296154 LATE:       9566
cpu0->cpu0_L1D AVERAGE MISS LATENCY: 219.8 cycles
cpu0->cpu0_ITLB TOTAL        ACCESS:     739352 HIT:     739352 MISS:          0 MSHR_MERGE:          0
cpu0->cpu0_ITLB LOAD         ACCESS:     739352 HIT:     739352 MISS:          0 MSHR_MERGE:          0
cpu0->cpu0_ITLB RFO          ACCESS:          0 HIT:          0 MISS:          0 MSHR_MERGE:          0
cpu0->cpu0_ITLB PREFETCH     ACCESS:          0 HIT:          0 MISS:          0 MSHR_MERGE:          0
cpu0->cpu0_ITLB WRITE        ACCESS:          0 HIT:          0 MISS:          0 MSHR_MERGE:          0
cpu0->cpu0_ITLB TRANSLATION  ACCESS:          0 HIT:          0 MISS:          0 MSHR_MERGE:          0
cpu0->cpu0_ITLB PREFETCH REQUESTED:          0 ISSUED:          0 USEFUL:          0 USELESS:          0 LATE:          0
cpu0->cpu0_ITLB AVERAGE MISS LATENCY: - cycles
cpu0->cpu0_DTLB TOTAL        ACCESS:   20075958 HIT:   17698922 MISS:    2377036 MSHR_MERGE:     700147
cpu0->cpu0_DTLB LOAD         ACCESS:   20075958 HIT:   17698922 MISS:    2377036 MSHR_MERGE:     700147
cpu0->cpu0_DTLB RFO          ACCESS:          0 HIT:          0 MISS:          0 MSHR_MERGE:          0
cpu0->cpu0_DTLB PREFETCH     ACCESS:          0 HIT:          0 MISS:          0 MSHR_MERGE:          0
cpu0->cpu0_DTLB WRITE        ACCESS:          0 HIT:          0 MISS:          0 MSHR_MERGE:          0
cpu0->cpu0_DTLB TRANSLATION  ACCESS:          0 HIT:          0 MISS:          0 MSHR_MERGE:          0
cpu0->cpu0_DTLB PREFETCH REQUESTED:          0 ISSUED:          0 USEFUL:          0 USELESS:          0 LATE:          0
cpu0->cpu0_DTLB AVERAGE MISS LATENCY: 89.63 cycles
cpu0->LLC TOTAL        ACCESS:    3219266 HIT:     608491 MISS:    2610775 MSHR_MERGE:      13748
cpu0->LLC LOAD         ACCESS:     885991 HIT:      50092 MISS:     835899 MSHR_MERGE:       1109
cpu0->LLC RFO          ACCESS:     716353 HIT:     119809 MISS:     596544 MSHR_MERGE:          0
cpu0->LLC PREFETCH     ACCESS:     332130 HIT:      16976 MISS:     315154 MSHR_MERGE:      12639
cpu0->LLC WRITE        ACCESS:    1114237 HIT:     318732 MISS:     795505 MSHR_MERGE:          0
cpu0->LLC TRANSLATION  ACCESS:     170555 HIT:     102882 MISS:      67673 MSHR_MERGE:          0
cpu0->LLC PREFETCH REQUESTED:          0 ISSUED:          0 USEFUL:          0 USELESS:          0 LATE:          0
cpu0->LLC AVERAGE MISS LATENCY: 245.1 cycles

DRAM Statistics

Channel 0 RQ ROW_BUFFER_HIT:      61141
  ROW_BUFFER_MISS:    1739941
  AVG DBUS CONGESTED CYCLE: 15.72
Channel 0 WQ ROW_BUFFER_HIT:     207179
  ROW_BUFFER_MISS:     749541
  FULL:       1533
Channel 0 REFRESHES ISSUED:      20685

[ROI Statistics]
[System Configuration]
num_cpus 1
cpu_freq 4000
fetch_width 6
decode_width 6
dispatch_width 6
execute_width 6
lq_width 2
sq_width 2
retire_width 6
scheduler_size 128
branch_mispredict_penalty 15
rob_size 352
lq_size 128
sq_size 72
ifetch_buffer_size 64
decode_buffer_size 32
dispatch_buffer_size 32
register_file_size 288
decode_latency 1
dispatch_latency 1
schedule_latency 1
execute_latency 1
page_size 4096
block_size 64
core_0_itlb_set 16
core_0_itlb_way 4
core_0_itlb_rq_size 16
core_0_itlb_wq_size 16
core_0_itlb_pq_size 0
core_0_itlb_mshr_size 8
core_0_itlb_hit_latency 1
core_0_itlb_fill_latency 1
core_0_itlb_max_tag_check 2
core_0_itlb_max_fill 2
core_0_dtlb_set 16
core_0_dtlb_way 4
core_0_dtlb_rq_size 16
core_0_dtlb_wq_size 16
core_0_dtlb_pq_size 0
core_0_dtlb_mshr_size 8
core_0_dtlb_hit_latency 1
core_0_dtlb_fill_latency 1
core_0_dtlb_max_tag_check 2
core_0_dtlb_max_fill 2
core_0_stlb_set 128
core_0_stlb_way 12
core_0_stlb_rq_size 32
core_0_stlb_wq_size 32
core_0_stlb_pq_size 0
core_0_stlb_mshr_size 16
core_0_stlb_hit_latency 4
core_0_stlb_fill_latency 4
core_0_stlb_max_tag_check 1
core_0_stlb_max_fill 1
core_0_l1i_set 64
core_0_l1i_way 8
core_0_l1i_rq_size 64
core_0_l1i_wq_size 64
core_0_l1i_pq_size 32
core_0_l1i_mshr_size 8
core_0_l1i_hit_latency 2
core_0_l1i_fill_latency 2
core_0_l1i_max_tag_check 2
core_0_l1i_max_fill 2
core_0_l1d_set 64
core_0_l1d_way 12
core_0_l1d_rq_size 64
core_0_l1d_wq_size 64
core_0_l1d_pq_size 8
core_0_l1d_mshr_size 16
core_0_l1d_hit_latency 2
core_0_l1d_fill_latency 3
core_0_l1d_max_tag_check 2
core_0_l1d_max_fill 2
core_0_l2c_set 1024
core_0_l2c_way 8
core_0_l2c_rq_size 32
core_0_l2c_wq_size 32
core_0_l2c_pq_size 16
core_0_l2c_mshr_size 32
core_0_l2c_hit_latency 5
core_0_l2c_fill_latency 5
core_0_l2c_max_tag_check 1
core_0_l2c_max_fill 1
llc_set 2048
llc_way 16
llc_rq_size 32
llc_wq_size 32
llc_pq_size 32
llc_mshr_size 64
llc_hit_latency 10
llc_fill_latency 10
llc_max_tag_check 1
llc_max_fill 1
dram_channels 1
dram_ranks 1
dram_bankgroups 8
dram_banks 4
dram_rows 65536
dram_columns 1024
dram_channel_width 8
dram_rq_size 64
dram_wq_size 64
dram_size 17179869184
core_0_itlb_prefetcher no
core_0_dtlb_prefetcher no
core_0_stlb_prefetcher no
core_0_l1i_prefetcher next_line
core_0_l1d_prefetcher berti
core_0_l2c_prefetcher ip_stride
llc_prefetcher no
llc_replacement drrip

Core_0_instructions 50000004
Core_0_cycles 248216659
Core_0_IPC 0.201437
Core_0_branch_prediction_accuracy 93.1958
Core_0_branch_MPKI 13.4253
Core_0_average_ROB_occupancy_at_mispredict 45.0145

Core_0_ITLB_total_access 739352
Core_0_ITLB_total_hit 739352
Core_0_ITLB_total_miss 0
Core_0_ITLB_total_MPKI 0
Core_0_ITLB_total_miss_rate 0
Core_0_ITLB_demand_access 739352
Core_0_ITLB_demand_hit 739352
Core_0_ITLB_demand_miss 0
Core_0_ITLB_demand_MPKI 0
Core_0_ITLB_demand_miss_rate 0
Core_0_ITLB_load_access 739352
Core_0_ITLB_load_hit 739352
Core_0_ITLB_load_miss 0
Core_0_ITLB_load_MPKI 0
Core_0_ITLB_load_miss_rate 0
Core_0_ITLB_rfo_access 0
Core_0_ITLB_rfo_hit 0
Core_0_ITLB_rfo_miss 0
Core_0_ITLB_rfo_MPKI 0
Core_0_ITLB_rfo_miss_rate 0
Core_0_ITLB_prefetch_access 0
Core_0_ITLB_prefetch_hit 0
Core_0_ITLB_prefetch_miss 0
Core_0_ITLB_prefetch_MPKI 0
Core_0_ITLB_prefetch_miss_rate 0
Core_0_ITLB_writeback_access 0
Core_0_ITLB_writeback_hit 0
Core_0_ITLB_writeback_miss 0
Core_0_ITLB_writeback_MPKI 0
Core_0_ITLB_writeback_miss_rate 0
Core_0_ITLB_prefetch_requested 0
Core_0_ITLB_prefetch_issued 0
Core_0_ITLB_prefetch_useful 0
Core_0_ITLB_prefetch_useless 0
Core_0_ITLB_prefetch_late 0
Core_0_ITLB_prefetch_accuracy 0
Core_0_ITLB_prefetch_coverage 0

Core_0_DTLB_total_access 20075958
Core_0_DTLB_total_hit 17698922
Core_0_DTLB_total_miss 2377036
Core_0_DTLB_total_MPKI 47.5407
Core_0_DTLB_total_miss_rate 0.118402
Core_0_DTLB_demand_access 20075958
Core_0_DTLB_demand_hit 17698922
Core_0_DTLB_demand_miss 2377036
Core_0_DTLB_demand_MPKI 47.5407
Core_0_DTLB_demand_miss_rate 0.118402
Core_0_DTLB_load_access 20075958
Core_0_DTLB_load_hit 17698922
Core_0_DTLB_load_miss 2377036
Core_0_DTLB_load_MPKI 47.5407
Core_0_DTLB_load_miss_rate 0.118402
Core_0_DTLB_rfo_access 0
Core_0_DTLB_rfo_hit 0
Core_0_DTLB_rfo_miss 0
Core_0_DTLB_rfo_MPKI 0
Core_0_DTLB_rfo_miss_rate 0
Core_0_DTLB_prefetch_access 0
Core_0_DTLB_prefetch_hit 0
Core_0_DTLB_prefetch_miss 0
Core_0_DTLB_prefetch_MPKI 0
Core_0_DTLB_prefetch_miss_rate 0
Core_0_DTLB_writeback_access 0
Core_0_DTLB_writeback_hit 0
Core_0_DTLB_writeback_miss 0
Core_0_DTLB_writeback_MPKI 0
Core_0_DTLB_writeback_miss_rate 0
Core_0_DTLB_prefetch_requested 0
Core_0_DTLB_prefetch_issued 0
Core_0_DTLB_prefetch_useful 0
Core_0_DTLB_prefetch_useless 0
Core_0_DTLB_prefetch_late 0
Core_0_DTLB_prefetch_accuracy 0
Core_0_DTLB_prefetch_coverage 0

Core_0_STLB_total_access 1676889
Core_0_STLB_total_hit 889627
Core_0_STLB_total_miss 787262
Core_0_STLB_total_MPKI 15.7452
Core_0_STLB_total_miss_rate 0.469478
Core_0_STLB_demand_access 1676889
Core_0_STLB_demand_hit 889627
Core_0_STLB_demand_miss 787262
Core_0_STLB_demand_MPKI 15.7452
Core_0_STLB_demand_miss_rate 0.469478
Core_0_STLB_load_access 1676889
Core_0_STLB_load_hit 889627
Core_0_STLB_load_miss 787262
Core_0_STLB_load_MPKI 15.7452
Core_0_STLB_load_miss_rate 0.469478
Core_0_STLB_rfo_access 0
Core_0_STLB_rfo_hit 0
Core_0_STLB_rfo_miss 0
Core_0_STLB_rfo_MPKI 0
Core_0_STLB_rfo_miss_rate 0
Core_0_STLB_prefetch_access 0
Core_0_STLB_prefetch_hit 0
Core_0_STLB_prefetch_miss 0
Core_0_STLB_prefetch_MPKI 0
Core_0_STLB_prefetch_miss_rate 0
Core_0_STLB_writeback_access 0
Core_0_STLB_writeback_hit 0
Core_0_STLB_writeback_miss 0
Core_0_STLB_writeback_MPKI 0
Core_0_STLB_writeback_miss_rate 0
Core_0_STLB_prefetch_requested 0
Core_0_STLB_prefetch_issued 0
Core_0_STLB_prefetch_useful 0
Core_0_STLB_prefetch_useless 0
Core_0_STLB_prefetch_late 0
Core_0_STLB_prefetch_accuracy 0
Core_0_STLB_prefetch_coverage 0

Core_0_L1I_total_access 739448
Core_0_L1I_total_hit 739441
Core_0_L1I_total_miss 7
Core_0_L1I_total_MPKI 0.00014
Core_0_L1I_total_miss_rate 9.46652e-06
Core_0_L1I_demand_access 739448
Core_0_L1I_demand_hit 739441
Core_0_L1I_demand_miss 7
Core_0_L1I_demand_MPKI 0.00014
Core_0_L1I_demand_miss_rate 9.46652e-06
Core_0_L1I_load_access 739448
Core_0_L1I_load_hit 739441
Core_0_L1I_load_miss 7
Core_0_L1I_load_MPKI 0.00014
Core_0_L1I_load_miss_rate 9.46652e-06
Core_0_L1I_rfo_access 0
Core_0_L1I_rfo_hit 0
Core_0_L1I_rfo_miss 0
Core_0_L1I_rfo_MPKI 0
Core_0_L1I_rfo_miss_rate 0
Core_0_L1I_prefetch_access 0
Core_0_L1I_prefetch_hit 0
Core_0_L1I_prefetch_miss 0
Core_0_L1I_prefetch_MPKI 0
Core_0_L1I_prefetch_miss_rate 0
Core_0_L1I_writeback_access 0
Core_0_L1I_writeback_hit 0
Core_0_L1I_writeback_miss 0
Core_0_L1I_writeback_MPKI 0
Core_0_L1I_writeback_miss_rate 0
Core_0_L1I_prefetch_requested 0
Core_0_L1I_prefetch_issued 0
Core_0_L1I_prefetch_useful 0
Core_0_L1I_prefetch_useless 0
Core_0_L1I_prefetch_late 0
Core_0_L1I_prefetch_accuracy 0
Core_0_L1I_prefetch_coverage 0

Core_0_L1D_total_access 20681737
Core_0_L1D_total_hit 17186904
Core_0_L1D_total_miss 3494833
Core_0_L1D_total_MPKI 69.8967
Core_0_L1D_total_miss_rate 0.168982
Core_0_L1D_demand_access 13793625
Core_0_L1D_demand_hit 11541392
Core_0_L1D_demand_miss 2252233
Core_0_L1D_demand_MPKI 45.0447
Core_0_L1D_demand_miss_rate 0.163281
Core_0_L1D_load_access 13793625
Core_0_L1D_load_hit 11541392
Core_0_L1D_load_miss 2252233
Core_0_L1D_load_MPKI 45.0447
Core_0_L1D_load_miss_rate 0.163281
Core_0_L1D_rfo_access 0
Core_0_L1D_rfo_hit 0
Core_0_L1D_rfo_miss 0
Core_0_L1D_rfo_MPKI 0
Core_0_L1D_rfo_miss_rate 0
Core_0_L1D_prefetch_access 572891
Core_0_L1D_prefetch_hit 95743
Core_0_L1D_prefetch_miss 477148
Core_0_L1D_prefetch_MPKI 9.54296
Core_0_L1D_prefetch_miss_rate 0.832877
Core_0_L1D_writeback_access 6315221
Core_0_L1D_writeback_hit 5549769
Core_0_L1D_writeback_miss 765452
Core_0_L1D_writeback_MPKI 15.309
Core_0_L1D_writeback_miss_rate 0.121207
Core_0_L1D_prefetch_requested 586661
Core_0_L1D_prefetch_issued 572899
Core_0_L1D_prefetch_useful 154359
Core_0_L1D_prefetch_useless 296154
Core_0_L1D_prefetch_late 9566
Core_0_L1D_prefetch_accuracy 0.269435
Core_0_L1D_prefetch_coverage 0.0641401

Core_0_L2C_total_access 4120972
Core_0_L2C_total_hit 2128943
Core_0_L2C_total_miss 1992029
Core_0_L2C_total_MPKI 39.8406
Core_0_L2C_total_miss_rate 0.483388
Core_0_L2C_demand_access 2354216
Core_0_L2C_demand_hit 742574
Core_0_L2C_demand_miss 1611642
Core_0_L2C_demand_MPKI 32.2328
Core_0_L2C_demand_miss_rate 0.684577
Core_0_L2C_load_access 1588852
Core_0_L2C_load_hit 693563
Core_0_L2C_load_miss 895289
Core_0_L2C_load_MPKI 17.9058
Core_0_L2C_load_miss_rate 0.563482
Core_0_L2C_rfo_access 765364
Core_0_L2C_rfo_hit 49011
Core_0_L2C_rfo_miss 716353
Core_0_L2C_rfo_MPKI 14.3271
Core_0_L2C_rfo_miss_rate 0.935964
Core_0_L2C_prefetch_access 599002
Core_0_L2C_prefetch_hit 218657
Core_0_L2C_prefetch_miss 380345
Core_0_L2C_prefetch_MPKI 7.6069
Core_0_L2C_prefetch_miss_rate 0.634964
Core_0_L2C_writeback_access 1167754
Core_0_L2C_writeback_hit 1167712
Core_0_L2C_writeback_miss 42
Core_0_L2C_writeback_MPKI 0.00084
Core_0_L2C_writeback_miss_rate 3.59665e-05
Core_0_L2C_prefetch_requested 148575
Core_0_L2C_prefetch_issued 148575
Core_0_L2C_prefetch_useful 40782
Core_0_L2C_prefetch_useless 13589
Core_0_L2C_prefetch_late 9298
Core_0_L2C_prefetch_accuracy 0.274488
Core_0_L2C_prefetch_coverage 0.0246801

Core_0_LLC_total_access 3048711
Core_0_LLC_total_hit 505609
Core_0_LLC_total_miss 2543102
Core_0_LLC_total_MPKI 50.862
Core_0_LLC_total_miss_rate 0.834156
Core_0_LLC_demand_access 1602344
Core_0_LLC_demand_hit 169901
Core_0_LLC_demand_miss 1432443
Core_0_LLC_demand_MPKI 28.6489
Core_0_LLC_demand_miss_rate 0.893967
Core_0_LLC_load_access 885991
Core_0_LLC_load_hit 50092
Core_0_LLC_load_miss 835899
Core_0_LLC_load_MPKI 16.718
Core_0_LLC_load_miss_rate 0.943462
Core_0_LLC_rfo_access 716353
Core_0_LLC_rfo_hit 119809
Core_0_LLC_rfo_miss 596544
Core_0_LLC_rfo_MPKI 11.9309
Core_0_LLC_rfo_miss_rate 0.832751
Core_0_LLC_prefetch_access 332130
Core_0_LLC_prefetch_hit 16976
Core_0_LLC_prefetch_miss 315154
Core_0_LLC_prefetch_MPKI 6.30308
Core_0_LLC_prefetch_miss_rate 0.948887
Core_0_LLC_writeback_access 1114237
Core_0_LLC_writeback_hit 318732
Core_0_LLC_writeback_miss 795505
Core_0_LLC_writeback_MPKI 15.9101
Core_0_LLC_writeback_miss_rate 0.713946
Core_0_LLC_prefetch_requested 0
Core_0_LLC_prefetch_issued 0
Core_0_LLC_prefetch_useful 0
Core_0_LLC_prefetch_useless 0
Core_0_LLC_prefetch_late 0
Core_0_LLC_prefetch_accuracy 0
Core_0_LLC_prefetch_coverage 0

[DRAM Statistics]
Channel_0_RQ_row_buffer_hit 61141
Channel_0_RQ_row_buffer_miss 1739941
Channel_0_WQ_row_buffer_hit 207179
Channel_0_WQ_row_buffer_miss 749541
Channel_0_WQ_full 1533
Channel_0_dbus_congested 11349808
DRAM_total_RQ_row_buffer_hit 61141
DRAM_total_RQ_row_buffer_miss 1739941
DRAM_total_WQ_row_buffer_hit 207179
DRAM_total_WQ_row_buffer_miss 749541
DRAM_total_WQ_full 1533
DRAM_total_dbus_congested 11349808
DRAM_avg_congested_cycle 15.7202

======STLB miss causes ========
Core_0_STLB_miss_cause_breakdown
Core_0_STLB_cause_Demand_Data_miss 787262
Core_0_STLB_cause_Demand_Data_miss_rate 0.469478
Core_0_STLB_cause_Demand_Instruction_miss 0
Core_0_STLB_cause_Demand_Instruction_miss_rate 0
Core_0_STLB_cause_L1D_Prefetch_miss 0
Core_0_STLB_cause_L1D_Prefetch_miss_rate 0
Core_0_STLB_cause_L1I_Prefetch_miss 0
Core_0_STLB_cause_L1I_Prefetch_miss_rate 0
Core_0_STLB_cause_Other_miss 0
Core_0_STLB_cause_Other_miss_rate 0
Core_0_STLB_Demand_miss 787262
Core_0_STLB_Demand_miss_rate 0.469478
Core_0_STLB_L1D_Prefetch_miss 0
Core_0_STLB_L1D_Prefetch_miss_rate 0
Core_0_STLB_Other_miss 0
Core_0_STLB_Other_miss_rate 0
