[VMEM] WARNING: physical memory size is smaller than virtual memory size.

*** ChampSim Multicore Out-of-Order Simulator ***
Warmup Instructions: 20000000
Simulation Instructions: 50000000
Number of CPUs: 1
Page size: 4096
STLB ideal mode: l1pref
STLB ideal fill: on
Core 0: /data0/tzh/champsim_traces/SPEC17/623.xalancbmk_s-592B.champsimtrace.xz
 L1D Berti prefetcher
Off-chip DRAM Size: 16 GiB Channels: 1 Width: 64-bit Data Rate: 3205 MT/s
Warmup halting CPU 0 at instruction 20000003 cycle 4799690 for remainder of phase
Warmup finished CPU 0 instructions: 20000003 cycles: 4799690 cumulative IPC: 4.167 (Simulation time: 00 hr 00 min 56 sec)
Warmup complete CPU 0 instructions: 20000003 cycles: 4799690 cumulative IPC: 4.167 (Simulation time: 00 hr 00 min 56 sec)
Simulation finished CPU 0 instructions: 50000000 cycles: 48282011 cumulative IPC: 1.036 (Simulation time: 00 hr 06 min 35 sec)
Simulation complete CPU 0 instructions: 50000000 cycles: 48282011 cumulative IPC: 1.036 (Simulation time: 00 hr 06 min 35 sec)

ChampSim completed all CPUs

=== Simulation ===
CPU 0 runs /data0/tzh/champsim_traces/SPEC17/623.xalancbmk_s-592B.champsimtrace.xz

Region of Interest Statistics

CPU 0 cumulative IPC: 1.036 instructions: 50000000 cycles: 48282011
CPU 0 Branch Prediction Accuracy: 97.13% MPKI: 7.59 Average ROB Occupancy at Mispredict: 43.64
Branch type MPKI
BRANCH_DIRECT_JUMP: 0.1648
BRANCH_INDIRECT: 0.5087
BRANCH_CONDITIONAL: 4.263
BRANCH_DIRECT_CALL: 0.0076
BRANCH_INDIRECT_CALL: 0.5543
BRANCH_RETURN: 2.092

cpu0->cpu0_STLB TOTAL        ACCESS:    1257090 HIT:    1184273 MISS:      72817 MSHR_MERGE:          0
cpu0->cpu0_STLB LOAD         ACCESS:    1257090 HIT:    1184273 MISS:      72817 MSHR_MERGE:          0
cpu0->cpu0_STLB RFO          ACCESS:          0 HIT:          0 MISS:          0 MSHR_MERGE:          0
cpu0->cpu0_STLB PREFETCH     ACCESS:          0 HIT:          0 MISS:          0 MSHR_MERGE:          0
cpu0->cpu0_STLB WRITE        ACCESS:          0 HIT:          0 MISS:          0 MSHR_MERGE:          0
cpu0->cpu0_STLB TRANSLATION  ACCESS:          0 HIT:          0 MISS:          0 MSHR_MERGE:          0
cpu0->cpu0_STLB PREFETCH REQUESTED:          0 ISSUED:          0 USEFUL:          0 USELESS:          0 LATE:          0
cpu0->cpu0_STLB AVERAGE MISS LATENCY: 26.88 cycles
cpu0->cpu0_L2C TOTAL        ACCESS:    3708808 HIT:    3270857 MISS:     437951 MSHR_MERGE:       7256
cpu0->cpu0_L2C LOAD         ACCESS:    2148684 HIT:    1972907 MISS:     175777 MSHR_MERGE:        162
cpu0->cpu0_L2C RFO          ACCESS:     125891 HIT:      18224 MISS:     107667 MSHR_MERGE:         76
cpu0->cpu0_L2C PREFETCH     ACCESS:    1186119 HIT:    1042660 MISS:     143459 MSHR_MERGE:       7018
cpu0->cpu0_L2C WRITE        ACCESS:     179718 HIT:     179717 MISS:          1 MSHR_MERGE:          0
cpu0->cpu0_L2C TRANSLATION  ACCESS:      68396 HIT:      57349 MISS:      11047 MSHR_MERGE:          0
cpu0->cpu0_L2C PREFETCH REQUESTED:     367270 ISSUED:     367052 USEFUL:       7679 USELESS:       5745 LATE:        238
cpu0->cpu0_L2C AVERAGE MISS LATENCY: 87.65 cycles
cpu0->cpu0_L1I TOTAL        ACCESS:    9097134 HIT:    8834892 MISS:     262242 MSHR_MERGE:      79392
cpu0->cpu0_L1I LOAD         ACCESS:    9097134 HIT:    8834892 MISS:     262242 MSHR_MERGE:      79392
cpu0->cpu0_L1I RFO          ACCESS:          0 HIT:          0 MISS:          0 MSHR_MERGE:          0
cpu0->cpu0_L1I PREFETCH     ACCESS:          0 HIT:          0 MISS:          0 MSHR_MERGE:          0
cpu0->cpu0_L1I WRITE        ACCESS:          0 HIT:          0 MISS:          0 MSHR_MERGE:          0
cpu0->cpu0_L1I TRANSLATION  ACCESS:          0 HIT:          0 MISS:          0 MSHR_MERGE:          0
cpu0->cpu0_L1I PREFETCH REQUESTED:          0 ISSUED:          0 USEFUL:          0 USELESS:          0 LATE:          0
cpu0->cpu0_L1I AVERAGE MISS LATENCY: 8.921 cycles
cpu0->cpu0_L1D TOTAL        ACCESS:   15354712 HIT:   11517067 MISS:    3837645 MSHR_MERGE:     858448
cpu0->cpu0_L1D LOAD         ACCESS:    8998190 HIT:    6595126 MISS:    2403064 MSHR_MERGE:     437227
cpu0->cpu0_L1D RFO          ACCESS:          0 HIT:          0 MISS:          0 MSHR_MERGE:          0
cpu0->cpu0_L1D PREFETCH     ACCESS:    1325537 HIT:     443206 MISS:     882331 MSHR_MERGE:      63260
cpu0->cpu0_L1D WRITE        ACCESS:    4885135 HIT:    4401432 MISS:     483703 MSHR_MERGE:     357810
cpu0->cpu0_L1D TRANSLATION  ACCESS:     145850 HIT:      77303 MISS:      68547 MSHR_MERGE:        151
cpu0->cpu0_L1D PREFETCH REQUESTED:    1355186 ISSUED:    1325536 USEFUL:     276003 USELESS:     543108 LATE:      17553
cpu0->cpu0_L1D AVERAGE MISS LATENCY: 20.01 cycles
cpu0->cpu0_ITLB TOTAL        ACCESS:    8347432 HIT:    8283964 MISS:      63468 MSHR_MERGE:      36593
cpu0->cpu0_ITLB LOAD         ACCESS:    8347432 HIT:    8283964 MISS:      63468 MSHR_MERGE:      36593
cpu0->cpu0_ITLB RFO          ACCESS:          0 HIT:          0 MISS:          0 MSHR_MERGE:          0
cpu0->cpu0_ITLB PREFETCH     ACCESS:          0 HIT:          0 MISS:          0 MSHR_MERGE:          0
cpu0->cpu0_ITLB WRITE        ACCESS:          0 HIT:          0 MISS:          0 MSHR_MERGE:          0
cpu0->cpu0_ITLB TRANSLATION  ACCESS:          0 HIT:          0 MISS:          0 MSHR_MERGE:          0
cpu0->cpu0_ITLB PREFETCH REQUESTED:          0 ISSUED:          0 USEFUL:          0 USELESS:          0 LATE:          0
cpu0->cpu0_ITLB AVERAGE MISS LATENCY: 7.065 cycles
cpu0->cpu0_DTLB TOTAL        ACCESS:   14480521 HIT:   12623933 MISS:    1856588 MSHR_MERGE:     626373
cpu0->cpu0_DTLB LOAD         ACCESS:   14480521 HIT:   12623933 MISS:    1856588 MSHR_MERGE:     626373
cpu0->cpu0_DTLB RFO          ACCESS:          0 HIT:          0 MISS:          0 MSHR_MERGE:          0
cpu0->cpu0_DTLB PREFETCH     ACCESS:          0 HIT:          0 MISS:          0 MSHR_MERGE:          0
cpu0->cpu0_DTLB WRITE        ACCESS:          0 HIT:          0 MISS:          0 MSHR_MERGE:          0
cpu0->cpu0_DTLB TRANSLATION  ACCESS:          0 HIT:          0 MISS:          0 MSHR_MERGE:          0
cpu0->cpu0_DTLB PREFETCH REQUESTED:          0 ISSUED:          0 USEFUL:          0 USELESS:          0 LATE:          0
cpu0->cpu0_DTLB AVERAGE MISS LATENCY: 6.605 cycles
cpu0->LLC TOTAL        ACCESS:     555075 HIT:     413707 MISS:     141368 MSHR_MERGE:         93
cpu0->LLC LOAD         ACCESS:     175615 HIT:     166909 MISS:       8706 MSHR_MERGE:         13
cpu0->LLC RFO          ACCESS:     107591 HIT:       5812 MISS:     101779 MSHR_MERGE:          0
cpu0->LLC PREFETCH     ACCESS:     136441 HIT:     116826 MISS:      19615 MSHR_MERGE:         80
cpu0->LLC WRITE        ACCESS:     124381 HIT:     113845 MISS:      10536 MSHR_MERGE:          0
cpu0->LLC TRANSLATION  ACCESS:      11047 HIT:      10315 MISS:        732 MSHR_MERGE:          0
cpu0->LLC PREFETCH REQUESTED:          0 ISSUED:          0 USEFUL:          0 USELESS:          0 LATE:          0
cpu0->LLC AVERAGE MISS LATENCY: 175.5 cycles

DRAM Statistics

Channel 0 RQ ROW_BUFFER_HIT:      11312
  ROW_BUFFER_MISS:     119427
  AVG DBUS CONGESTED CYCLE: 5.985
Channel 0 WQ ROW_BUFFER_HIT:       5632
  ROW_BUFFER_MISS:      88538
  FULL:          0
Channel 0 REFRESHES ISSUED:       4024

[ROI Statistics]
[System Configuration]
num_cpus 1
cpu_freq 4000
fetch_width 6
decode_width 6
dispatch_width 6
execute_width 6
lq_width 2
sq_width 2
retire_width 6
scheduler_size 128
branch_mispredict_penalty 15
rob_size 352
lq_size 128
sq_size 72
ifetch_buffer_size 64
decode_buffer_size 32
dispatch_buffer_size 32
register_file_size 288
decode_latency 1
dispatch_latency 1
schedule_latency 1
execute_latency 1
page_size 4096
block_size 64
core_0_itlb_set 16
core_0_itlb_way 4
core_0_itlb_rq_size 16
core_0_itlb_wq_size 16
core_0_itlb_pq_size 0
core_0_itlb_mshr_size 8
core_0_itlb_hit_latency 1
core_0_itlb_fill_latency 1
core_0_itlb_max_tag_check 2
core_0_itlb_max_fill 2
core_0_dtlb_set 16
core_0_dtlb_way 4
core_0_dtlb_rq_size 16
core_0_dtlb_wq_size 16
core_0_dtlb_pq_size 0
core_0_dtlb_mshr_size 8
core_0_dtlb_hit_latency 1
core_0_dtlb_fill_latency 1
core_0_dtlb_max_tag_check 2
core_0_dtlb_max_fill 2
core_0_stlb_set 128
core_0_stlb_way 12
core_0_stlb_rq_size 32
core_0_stlb_wq_size 32
core_0_stlb_pq_size 0
core_0_stlb_mshr_size 16
core_0_stlb_hit_latency 4
core_0_stlb_fill_latency 4
core_0_stlb_max_tag_check 1
core_0_stlb_max_fill 1
core_0_l1i_set 64
core_0_l1i_way 8
core_0_l1i_rq_size 64
core_0_l1i_wq_size 64
core_0_l1i_pq_size 32
core_0_l1i_mshr_size 8
core_0_l1i_hit_latency 2
core_0_l1i_fill_latency 2
core_0_l1i_max_tag_check 2
core_0_l1i_max_fill 2
core_0_l1d_set 64
core_0_l1d_way 12
core_0_l1d_rq_size 64
core_0_l1d_wq_size 64
core_0_l1d_pq_size 8
core_0_l1d_mshr_size 16
core_0_l1d_hit_latency 2
core_0_l1d_fill_latency 3
core_0_l1d_max_tag_check 2
core_0_l1d_max_fill 2
core_0_l2c_set 1024
core_0_l2c_way 8
core_0_l2c_rq_size 32
core_0_l2c_wq_size 32
core_0_l2c_pq_size 16
core_0_l2c_mshr_size 32
core_0_l2c_hit_latency 5
core_0_l2c_fill_latency 5
core_0_l2c_max_tag_check 1
core_0_l2c_max_fill 1
llc_set 2048
llc_way 16
llc_rq_size 32
llc_wq_size 32
llc_pq_size 32
llc_mshr_size 64
llc_hit_latency 10
llc_fill_latency 10
llc_max_tag_check 1
llc_max_fill 1
dram_channels 1
dram_ranks 1
dram_bankgroups 8
dram_banks 4
dram_rows 65536
dram_columns 1024
dram_channel_width 8
dram_rq_size 64
dram_wq_size 64
dram_size 17179869184
core_0_itlb_prefetcher no
core_0_dtlb_prefetcher no
core_0_stlb_prefetcher no
core_0_l1i_prefetcher next_line
core_0_l1d_prefetcher berti
core_0_l2c_prefetcher ip_stride
llc_prefetcher no
llc_replacement drrip

Core_0_instructions 50000000
Core_0_cycles 48282011
Core_0_IPC 1.03558
Core_0_branch_prediction_accuracy 97.1281
Core_0_branch_MPKI 7.59034
Core_0_average_ROB_occupancy_at_mispredict 43.6406

Core_0_ITLB_total_access 8347432
Core_0_ITLB_total_hit 8283964
Core_0_ITLB_total_miss 63468
Core_0_ITLB_total_MPKI 1.26936
Core_0_ITLB_total_miss_rate 0.0076033
Core_0_ITLB_demand_access 8347432
Core_0_ITLB_demand_hit 8283964
Core_0_ITLB_demand_miss 63468
Core_0_ITLB_demand_MPKI 1.26936
Core_0_ITLB_demand_miss_rate 0.0076033
Core_0_ITLB_load_access 8347432
Core_0_ITLB_load_hit 8283964
Core_0_ITLB_load_miss 63468
Core_0_ITLB_load_MPKI 1.26936
Core_0_ITLB_load_miss_rate 0.0076033
Core_0_ITLB_rfo_access 0
Core_0_ITLB_rfo_hit 0
Core_0_ITLB_rfo_miss 0
Core_0_ITLB_rfo_MPKI 0
Core_0_ITLB_rfo_miss_rate 0
Core_0_ITLB_prefetch_access 0
Core_0_ITLB_prefetch_hit 0
Core_0_ITLB_prefetch_miss 0
Core_0_ITLB_prefetch_MPKI 0
Core_0_ITLB_prefetch_miss_rate 0
Core_0_ITLB_writeback_access 0
Core_0_ITLB_writeback_hit 0
Core_0_ITLB_writeback_miss 0
Core_0_ITLB_writeback_MPKI 0
Core_0_ITLB_writeback_miss_rate 0
Core_0_ITLB_prefetch_requested 0
Core_0_ITLB_prefetch_issued 0
Core_0_ITLB_prefetch_useful 0
Core_0_ITLB_prefetch_useless 0
Core_0_ITLB_prefetch_late 0
Core_0_ITLB_prefetch_accuracy 0
Core_0_ITLB_prefetch_coverage 0

Core_0_DTLB_total_access 14480521
Core_0_DTLB_total_hit 12623933
Core_0_DTLB_total_miss 1856588
Core_0_DTLB_total_MPKI 37.1318
Core_0_DTLB_total_miss_rate 0.128213
Core_0_DTLB_demand_access 14480521
Core_0_DTLB_demand_hit 12623933
Core_0_DTLB_demand_miss 1856588
Core_0_DTLB_demand_MPKI 37.1318
Core_0_DTLB_demand_miss_rate 0.128213
Core_0_DTLB_load_access 14480521
Core_0_DTLB_load_hit 12623933
Core_0_DTLB_load_miss 1856588
Core_0_DTLB_load_MPKI 37.1318
Core_0_DTLB_load_miss_rate 0.128213
Core_0_DTLB_rfo_access 0
Core_0_DTLB_rfo_hit 0
Core_0_DTLB_rfo_miss 0
Core_0_DTLB_rfo_MPKI 0
Core_0_DTLB_rfo_miss_rate 0
Core_0_DTLB_prefetch_access 0
Core_0_DTLB_prefetch_hit 0
Core_0_DTLB_prefetch_miss 0
Core_0_DTLB_prefetch_MPKI 0
Core_0_DTLB_prefetch_miss_rate 0
Core_0_DTLB_writeback_access 0
Core_0_DTLB_writeback_hit 0
Core_0_DTLB_writeback_miss 0
Core_0_DTLB_writeback_MPKI 0
Core_0_DTLB_writeback_miss_rate 0
Core_0_DTLB_prefetch_requested 0
Core_0_DTLB_prefetch_issued 0
Core_0_DTLB_prefetch_useful 0
Core_0_DTLB_prefetch_useless 0
Core_0_DTLB_prefetch_late 0
Core_0_DTLB_prefetch_accuracy 0
Core_0_DTLB_prefetch_coverage 0

Core_0_STLB_total_access 1257090
Core_0_STLB_total_hit 1184273
Core_0_STLB_total_miss 72817
Core_0_STLB_total_MPKI 1.45634
Core_0_STLB_total_miss_rate 0.057925
Core_0_STLB_demand_access 1257090
Core_0_STLB_demand_hit 1184273
Core_0_STLB_demand_miss 72817
Core_0_STLB_demand_MPKI 1.45634
Core_0_STLB_demand_miss_rate 0.057925
Core_0_STLB_load_access 1257090
Core_0_STLB_load_hit 1184273
Core_0_STLB_load_miss 72817
Core_0_STLB_load_MPKI 1.45634
Core_0_STLB_load_miss_rate 0.057925
Core_0_STLB_rfo_access 0
Core_0_STLB_rfo_hit 0
Core_0_STLB_rfo_miss 0
Core_0_STLB_rfo_MPKI 0
Core_0_STLB_rfo_miss_rate 0
Core_0_STLB_prefetch_access 0
Core_0_STLB_prefetch_hit 0
Core_0_STLB_prefetch_miss 0
Core_0_STLB_prefetch_MPKI 0
Core_0_STLB_prefetch_miss_rate 0
Core_0_STLB_writeback_access 0
Core_0_STLB_writeback_hit 0
Core_0_STLB_writeback_miss 0
Core_0_STLB_writeback_MPKI 0
Core_0_STLB_writeback_miss_rate 0
Core_0_STLB_prefetch_requested 0
Core_0_STLB_prefetch_issued 0
Core_0_STLB_prefetch_useful 0
Core_0_STLB_prefetch_useless 0
Core_0_STLB_prefetch_late 0
Core_0_STLB_prefetch_accuracy 0
Core_0_STLB_prefetch_coverage 0

Core_0_L1I_total_access 9097134
Core_0_L1I_total_hit 8834892
Core_0_L1I_total_miss 262242
Core_0_L1I_total_MPKI 5.24484
Core_0_L1I_total_miss_rate 0.0288269
Core_0_L1I_demand_access 9097134
Core_0_L1I_demand_hit 8834892
Core_0_L1I_demand_miss 262242
Core_0_L1I_demand_MPKI 5.24484
Core_0_L1I_demand_miss_rate 0.0288269
Core_0_L1I_load_access 9097134
Core_0_L1I_load_hit 8834892
Core_0_L1I_load_miss 262242
Core_0_L1I_load_MPKI 5.24484
Core_0_L1I_load_miss_rate 0.0288269
Core_0_L1I_rfo_access 0
Core_0_L1I_rfo_hit 0
Core_0_L1I_rfo_miss 0
Core_0_L1I_rfo_MPKI 0
Core_0_L1I_rfo_miss_rate 0
Core_0_L1I_prefetch_access 0
Core_0_L1I_prefetch_hit 0
Core_0_L1I_prefetch_miss 0
Core_0_L1I_prefetch_MPKI 0
Core_0_L1I_prefetch_miss_rate 0
Core_0_L1I_writeback_access 0
Core_0_L1I_writeback_hit 0
Core_0_L1I_writeback_miss 0
Core_0_L1I_writeback_MPKI 0
Core_0_L1I_writeback_miss_rate 0
Core_0_L1I_prefetch_requested 0
Core_0_L1I_prefetch_issued 0
Core_0_L1I_prefetch_useful 0
Core_0_L1I_prefetch_useless 0
Core_0_L1I_prefetch_late 0
Core_0_L1I_prefetch_accuracy 0
Core_0_L1I_prefetch_coverage 0

Core_0_L1D_total_access 15208862
Core_0_L1D_total_hit 11439764
Core_0_L1D_total_miss 3769098
Core_0_L1D_total_MPKI 75.382
Core_0_L1D_total_miss_rate 0.247822
Core_0_L1D_demand_access 8998190
Core_0_L1D_demand_hit 6595126
Core_0_L1D_demand_miss 2403064
Core_0_L1D_demand_MPKI 48.0613
Core_0_L1D_demand_miss_rate 0.267061
Core_0_L1D_load_access 8998190
Core_0_L1D_load_hit 6595126
Core_0_L1D_load_miss 2403064
Core_0_L1D_load_MPKI 48.0613
Core_0_L1D_load_miss_rate 0.267061
Core_0_L1D_rfo_access 0
Core_0_L1D_rfo_hit 0
Core_0_L1D_rfo_miss 0
Core_0_L1D_rfo_MPKI 0
Core_0_L1D_rfo_miss_rate 0
Core_0_L1D_prefetch_access 1325537
Core_0_L1D_prefetch_hit 443206
Core_0_L1D_prefetch_miss 882331
Core_0_L1D_prefetch_MPKI 17.6466
Core_0_L1D_prefetch_miss_rate 0.66564
Core_0_L1D_writeback_access 4885135
Core_0_L1D_writeback_hit 4401432
Core_0_L1D_writeback_miss 483703
Core_0_L1D_writeback_MPKI 9.67406
Core_0_L1D_writeback_miss_rate 0.0990153
Core_0_L1D_prefetch_requested 1355186
Core_0_L1D_prefetch_issued 1325536
Core_0_L1D_prefetch_useful 276003
Core_0_L1D_prefetch_useless 543108
Core_0_L1D_prefetch_late 17553
Core_0_L1D_prefetch_accuracy 0.20822
Core_0_L1D_prefetch_coverage 0.103022

Core_0_L2C_total_access 3640412
Core_0_L2C_total_hit 3213508
Core_0_L2C_total_miss 426904
Core_0_L2C_total_MPKI 8.53808
Core_0_L2C_total_miss_rate 0.117268
Core_0_L2C_demand_access 2274575
Core_0_L2C_demand_hit 1991131
Core_0_L2C_demand_miss 283444
Core_0_L2C_demand_MPKI 5.66888
Core_0_L2C_demand_miss_rate 0.124614
Core_0_L2C_load_access 2148684
Core_0_L2C_load_hit 1972907
Core_0_L2C_load_miss 175777
Core_0_L2C_load_MPKI 3.51554
Core_0_L2C_load_miss_rate 0.0818068
Core_0_L2C_rfo_access 125891
Core_0_L2C_rfo_hit 18224
Core_0_L2C_rfo_miss 107667
Core_0_L2C_rfo_MPKI 2.15334
Core_0_L2C_rfo_miss_rate 0.85524
Core_0_L2C_prefetch_access 1186119
Core_0_L2C_prefetch_hit 1042660
Core_0_L2C_prefetch_miss 143459
Core_0_L2C_prefetch_MPKI 2.86918
Core_0_L2C_prefetch_miss_rate 0.120948
Core_0_L2C_writeback_access 179718
Core_0_L2C_writeback_hit 179717
Core_0_L2C_writeback_miss 1
Core_0_L2C_writeback_MPKI 2e-05
Core_0_L2C_writeback_miss_rate 5.56427e-06
Core_0_L2C_prefetch_requested 367270
Core_0_L2C_prefetch_issued 367052
Core_0_L2C_prefetch_useful 7679
Core_0_L2C_prefetch_useless 5745
Core_0_L2C_prefetch_late 238
Core_0_L2C_prefetch_accuracy 0.0209207
Core_0_L2C_prefetch_coverage 0.0263772

Core_0_LLC_total_access 544028
Core_0_LLC_total_hit 403392
Core_0_LLC_total_miss 140636
Core_0_LLC_total_MPKI 2.81272
Core_0_LLC_total_miss_rate 0.258509
Core_0_LLC_demand_access 283206
Core_0_LLC_demand_hit 172721
Core_0_LLC_demand_miss 110485
Core_0_LLC_demand_MPKI 2.2097
Core_0_LLC_demand_miss_rate 0.390122
Core_0_LLC_load_access 175615
Core_0_LLC_load_hit 166909
Core_0_LLC_load_miss 8706
Core_0_LLC_load_MPKI 0.17412
Core_0_LLC_load_miss_rate 0.0495744
Core_0_LLC_rfo_access 107591
Core_0_LLC_rfo_hit 5812
Core_0_LLC_rfo_miss 101779
Core_0_LLC_rfo_MPKI 2.03558
Core_0_LLC_rfo_miss_rate 0.945981
Core_0_LLC_prefetch_access 136441
Core_0_LLC_prefetch_hit 116826
Core_0_LLC_prefetch_miss 19615
Core_0_LLC_prefetch_MPKI 0.3923
Core_0_LLC_prefetch_miss_rate 0.143762
Core_0_LLC_writeback_access 124381
Core_0_LLC_writeback_hit 113845
Core_0_LLC_writeback_miss 10536
Core_0_LLC_writeback_MPKI 0.21072
Core_0_LLC_writeback_miss_rate 0.0847075
Core_0_LLC_prefetch_requested 0
Core_0_LLC_prefetch_issued 0
Core_0_LLC_prefetch_useful 0
Core_0_LLC_prefetch_useless 0
Core_0_LLC_prefetch_late 0
Core_0_LLC_prefetch_accuracy 0
Core_0_LLC_prefetch_coverage 0

[DRAM Statistics]
Channel_0_RQ_row_buffer_hit 11312
Channel_0_RQ_row_buffer_miss 119427
Channel_0_WQ_row_buffer_hit 5632
Channel_0_WQ_row_buffer_miss 88538
Channel_0_WQ_full 0
Channel_0_dbus_congested 473302
DRAM_total_RQ_row_buffer_hit 11312
DRAM_total_RQ_row_buffer_miss 119427
DRAM_total_WQ_row_buffer_hit 5632
DRAM_total_WQ_row_buffer_miss 88538
DRAM_total_WQ_full 0
DRAM_total_dbus_congested 473302
DRAM_avg_congested_cycle 5.98515

======STLB miss causes ========
Core_0_STLB_miss_cause_breakdown
Core_0_STLB_cause_Demand_Data_miss 71237
Core_0_STLB_cause_Demand_Data_miss_rate 0.0566682
Core_0_STLB_cause_Demand_Instruction_miss 1580
Core_0_STLB_cause_Demand_Instruction_miss_rate 0.00125687
Core_0_STLB_cause_L1D_Prefetch_miss 0
Core_0_STLB_cause_L1D_Prefetch_miss_rate 0
Core_0_STLB_cause_L1I_Prefetch_miss 0
Core_0_STLB_cause_L1I_Prefetch_miss_rate 0
Core_0_STLB_cause_Other_miss 0
Core_0_STLB_cause_Other_miss_rate 0
Core_0_STLB_Demand_miss 72817
Core_0_STLB_Demand_miss_rate 0.057925
Core_0_STLB_L1D_Prefetch_miss 0
Core_0_STLB_L1D_Prefetch_miss_rate 0
Core_0_STLB_Other_miss 0
Core_0_STLB_Other_miss_rate 0
