[VMEM] WARNING: physical memory size is smaller than virtual memory size.

*** ChampSim Multicore Out-of-Order Simulator ***
Warmup Instructions: 20000000
Simulation Instructions: 50000000
Number of CPUs: 1
Page size: 4096
STLB ideal mode: l1pref
STLB ideal fill: on
Core 0: /data0/tzh/champsim_traces/QMM/compute_int_23_new.xz
 L1D Berti prefetcher
Off-chip DRAM Size: 16 GiB Channels: 1 Width: 64-bit Data Rate: 3205 MT/s
Warmup halting CPU 0 at instruction 20000003 cycle 6899356 for remainder of phase
Warmup finished CPU 0 instructions: 20000003 cycles: 6899356 cumulative IPC: 2.899 (Simulation time: 00 hr 01 min 12 sec)
Warmup complete CPU 0 instructions: 20000003 cycles: 6899356 cumulative IPC: 2.899 (Simulation time: 00 hr 01 min 12 sec)
*** Reached end of trace: (0, "/data0/tzh/champsim_traces/QMM/compute_int_23_new.xz")
*** Reached end of trace: (0, "/data0/tzh/champsim_traces/QMM/compute_int_23_new.xz")
Simulation finished CPU 0 instructions: 50000001 cycles: 127522691 cumulative IPC: 0.3921 (Simulation time: 00 hr 11 min 17 sec)
Simulation complete CPU 0 instructions: 50000001 cycles: 127522691 cumulative IPC: 0.3921 (Simulation time: 00 hr 11 min 17 sec)

ChampSim completed all CPUs

=== Simulation ===
CPU 0 runs /data0/tzh/champsim_traces/QMM/compute_int_23_new.xz

Region of Interest Statistics

CPU 0 cumulative IPC: 0.3921 instructions: 50000001 cycles: 127522691
CPU 0 Branch Prediction Accuracy: 91.76% MPKI: 12.83 Average ROB Occupancy at Mispredict: 64.16
Branch type MPKI
BRANCH_DIRECT_JUMP: 0
BRANCH_INDIRECT: 0
BRANCH_CONDITIONAL: 12.83
BRANCH_DIRECT_CALL: 0
BRANCH_INDIRECT_CALL: 2e-05
BRANCH_RETURN: 0

cpu0->cpu0_STLB TOTAL        ACCESS:     272564 HIT:     153973 MISS:     118591 MSHR_MERGE:          0
cpu0->cpu0_STLB LOAD         ACCESS:     272564 HIT:     153973 MISS:     118591 MSHR_MERGE:          0
cpu0->cpu0_STLB RFO          ACCESS:          0 HIT:          0 MISS:          0 MSHR_MERGE:          0
cpu0->cpu0_STLB PREFETCH     ACCESS:          0 HIT:          0 MISS:          0 MSHR_MERGE:          0
cpu0->cpu0_STLB WRITE        ACCESS:          0 HIT:          0 MISS:          0 MSHR_MERGE:          0
cpu0->cpu0_STLB TRANSLATION  ACCESS:          0 HIT:          0 MISS:          0 MSHR_MERGE:          0
cpu0->cpu0_STLB PREFETCH REQUESTED:          0 ISSUED:          0 USEFUL:          0 USELESS:          0 LATE:          0
cpu0->cpu0_STLB AVERAGE MISS LATENCY: 74.88 cycles
cpu0->cpu0_L2C TOTAL        ACCESS:    2125503 HIT:     633034 MISS:    1492469 MSHR_MERGE:      60141
cpu0->cpu0_L2C LOAD         ACCESS:     700496 HIT:      55660 MISS:     644836 MSHR_MERGE:       7208
cpu0->cpu0_L2C RFO          ACCESS:      42630 HIT:        986 MISS:      41644 MSHR_MERGE:          6
cpu0->cpu0_L2C PREFETCH     ACCESS:     842676 HIT:      70413 MISS:     772263 MSHR_MERGE:      52927
cpu0->cpu0_L2C WRITE        ACCESS:     495382 HIT:     495382 MISS:          0 MSHR_MERGE:          0
cpu0->cpu0_L2C TRANSLATION  ACCESS:      44319 HIT:      10593 MISS:      33726 MSHR_MERGE:          0
cpu0->cpu0_L2C PREFETCH REQUESTED:     185172 ISSUED:     185172 USEFUL:      68203 USELESS:      45286 LATE:       7214
cpu0->cpu0_L2C AVERAGE MISS LATENCY: 222.2 cycles
cpu0->cpu0_L1I TOTAL        ACCESS:     175153 HIT:     175153 MISS:          0 MSHR_MERGE:          0
cpu0->cpu0_L1I LOAD         ACCESS:     175153 HIT:     175153 MISS:          0 MSHR_MERGE:          0
cpu0->cpu0_L1I RFO          ACCESS:          0 HIT:          0 MISS:          0 MSHR_MERGE:          0
cpu0->cpu0_L1I PREFETCH     ACCESS:          0 HIT:          0 MISS:          0 MSHR_MERGE:          0
cpu0->cpu0_L1I WRITE        ACCESS:          0 HIT:          0 MISS:          0 MSHR_MERGE:          0
cpu0->cpu0_L1I TRANSLATION  ACCESS:          0 HIT:          0 MISS:          0 MSHR_MERGE:          0
cpu0->cpu0_L1I PREFETCH REQUESTED:          0 ISSUED:          0 USEFUL:          0 USELESS:          0 LATE:          0
cpu0->cpu0_L1I AVERAGE MISS LATENCY: - cycles
cpu0->cpu0_L1D TOTAL        ACCESS:   15192836 HIT:   13268084 MISS:    1924752 MSHR_MERGE:     479804
cpu0->cpu0_L1D LOAD         ACCESS:    8069193 HIT:    6910051 MISS:    1159142 MSHR_MERGE:     458647
cpu0->cpu0_L1D RFO          ACCESS:          0 HIT:          0 MISS:          0 MSHR_MERGE:          0
cpu0->cpu0_L1D PREFETCH     ACCESS:     739154 HIT:      63582 MISS:     675572 MSHR_MERGE:      18068
cpu0->cpu0_L1D WRITE        ACCESS:    6145834 HIT:    6100969 MISS:      44865 MSHR_MERGE:       2235
cpu0->cpu0_L1D TRANSLATION  ACCESS:     238655 HIT:     193482 MISS:      45173 MSHR_MERGE:        854
cpu0->cpu0_L1D PREFETCH REQUESTED:     740589 ISSUED:     739152 USEFUL:     340569 USELESS:     316912 LATE:      82414
cpu0->cpu0_L1D AVERAGE MISS LATENCY: 209.7 cycles
cpu0->cpu0_ITLB TOTAL        ACCESS:     171436 HIT:     171339 MISS:         97 MSHR_MERGE:         67
cpu0->cpu0_ITLB LOAD         ACCESS:     171436 HIT:     171339 MISS:         97 MSHR_MERGE:         67
cpu0->cpu0_ITLB RFO          ACCESS:          0 HIT:          0 MISS:          0 MSHR_MERGE:          0
cpu0->cpu0_ITLB PREFETCH     ACCESS:          0 HIT:          0 MISS:          0 MSHR_MERGE:          0
cpu0->cpu0_ITLB WRITE        ACCESS:          0 HIT:          0 MISS:          0 MSHR_MERGE:          0
cpu0->cpu0_ITLB TRANSLATION  ACCESS:          0 HIT:          0 MISS:          0 MSHR_MERGE:          0
cpu0->cpu0_ITLB PREFETCH REQUESTED:          0 ISSUED:          0 USEFUL:          0 USELESS:          0 LATE:          0
cpu0->cpu0_ITLB AVERAGE MISS LATENCY: 276.9 cycles
cpu0->cpu0_DTLB TOTAL        ACCESS:   14280657 HIT:   13954720 MISS:     325937 MSHR_MERGE:      53403
cpu0->cpu0_DTLB LOAD         ACCESS:   14280657 HIT:   13954720 MISS:     325937 MSHR_MERGE:      53403
cpu0->cpu0_DTLB RFO          ACCESS:          0 HIT:          0 MISS:          0 MSHR_MERGE:          0
cpu0->cpu0_DTLB PREFETCH     ACCESS:          0 HIT:          0 MISS:          0 MSHR_MERGE:          0
cpu0->cpu0_DTLB WRITE        ACCESS:          0 HIT:          0 MISS:          0 MSHR_MERGE:          0
cpu0->cpu0_DTLB TRANSLATION  ACCESS:          0 HIT:          0 MISS:          0 MSHR_MERGE:          0
cpu0->cpu0_DTLB PREFETCH REQUESTED:          0 ISSUED:          0 USEFUL:          0 USELESS:          0 LATE:          0
cpu0->cpu0_DTLB AVERAGE MISS LATENCY: 37.99 cycles
cpu0->LLC TOTAL        ACCESS:    1921210 HIT:     444817 MISS:    1476393 MSHR_MERGE:      11627
cpu0->LLC LOAD         ACCESS:     637628 HIT:       8407 MISS:     629221 MSHR_MERGE:       1136
cpu0->LLC RFO          ACCESS:      41638 HIT:        115 MISS:      41523 MSHR_MERGE:          0
cpu0->LLC PREFETCH     ACCESS:     719336 HIT:       7892 MISS:     711444 MSHR_MERGE:      10491
cpu0->LLC WRITE        ACCESS:     488882 HIT:     424469 MISS:      64413 MSHR_MERGE:          0
cpu0->LLC TRANSLATION  ACCESS:      33726 HIT:       3934 MISS:      29792 MSHR_MERGE:          0
cpu0->LLC PREFETCH REQUESTED:          0 ISSUED:          0 USEFUL:          0 USELESS:          0 LATE:          0
cpu0->LLC AVERAGE MISS LATENCY: 193.6 cycles

DRAM Statistics

Channel 0 RQ ROW_BUFFER_HIT:      87039
  ROW_BUFFER_MISS:    1313304
  AVG DBUS CONGESTED CYCLE: 11.86
Channel 0 WQ ROW_BUFFER_HIT:     138120
  ROW_BUFFER_MISS:     346810
  FULL:          0
Channel 0 REFRESHES ISSUED:      10627

[ROI Statistics]
[System Configuration]
num_cpus 1
cpu_freq 4000
fetch_width 6
decode_width 6
dispatch_width 6
execute_width 6
lq_width 2
sq_width 2
retire_width 6
scheduler_size 128
branch_mispredict_penalty 15
rob_size 352
lq_size 128
sq_size 72
ifetch_buffer_size 64
decode_buffer_size 32
dispatch_buffer_size 32
register_file_size 288
decode_latency 1
dispatch_latency 1
schedule_latency 1
execute_latency 1
page_size 4096
block_size 64
core_0_itlb_set 16
core_0_itlb_way 4
core_0_itlb_rq_size 16
core_0_itlb_wq_size 16
core_0_itlb_pq_size 0
core_0_itlb_mshr_size 8
core_0_itlb_hit_latency 1
core_0_itlb_fill_latency 1
core_0_itlb_max_tag_check 2
core_0_itlb_max_fill 2
core_0_dtlb_set 16
core_0_dtlb_way 4
core_0_dtlb_rq_size 16
core_0_dtlb_wq_size 16
core_0_dtlb_pq_size 0
core_0_dtlb_mshr_size 8
core_0_dtlb_hit_latency 1
core_0_dtlb_fill_latency 1
core_0_dtlb_max_tag_check 2
core_0_dtlb_max_fill 2
core_0_stlb_set 128
core_0_stlb_way 12
core_0_stlb_rq_size 32
core_0_stlb_wq_size 32
core_0_stlb_pq_size 0
core_0_stlb_mshr_size 16
core_0_stlb_hit_latency 4
core_0_stlb_fill_latency 4
core_0_stlb_max_tag_check 1
core_0_stlb_max_fill 1
core_0_l1i_set 64
core_0_l1i_way 8
core_0_l1i_rq_size 64
core_0_l1i_wq_size 64
core_0_l1i_pq_size 32
core_0_l1i_mshr_size 8
core_0_l1i_hit_latency 2
core_0_l1i_fill_latency 2
core_0_l1i_max_tag_check 2
core_0_l1i_max_fill 2
core_0_l1d_set 64
core_0_l1d_way 12
core_0_l1d_rq_size 64
core_0_l1d_wq_size 64
core_0_l1d_pq_size 8
core_0_l1d_mshr_size 16
core_0_l1d_hit_latency 2
core_0_l1d_fill_latency 3
core_0_l1d_max_tag_check 2
core_0_l1d_max_fill 2
core_0_l2c_set 1024
core_0_l2c_way 8
core_0_l2c_rq_size 32
core_0_l2c_wq_size 32
core_0_l2c_pq_size 16
core_0_l2c_mshr_size 32
core_0_l2c_hit_latency 5
core_0_l2c_fill_latency 5
core_0_l2c_max_tag_check 1
core_0_l2c_max_fill 1
llc_set 2048
llc_way 16
llc_rq_size 32
llc_wq_size 32
llc_pq_size 32
llc_mshr_size 64
llc_hit_latency 10
llc_fill_latency 10
llc_max_tag_check 1
llc_max_fill 1
dram_channels 1
dram_ranks 1
dram_bankgroups 8
dram_banks 4
dram_rows 65536
dram_columns 1024
dram_channel_width 8
dram_rq_size 64
dram_wq_size 64
dram_size 17179869184
core_0_itlb_prefetcher no
core_0_dtlb_prefetcher no
core_0_stlb_prefetcher no
core_0_l1i_prefetcher next_line
core_0_l1d_prefetcher berti
core_0_l2c_prefetcher ip_stride
llc_prefetcher no
llc_replacement drrip

Core_0_instructions 50000001
Core_0_cycles 127522691
Core_0_IPC 0.392087
Core_0_branch_prediction_accuracy 91.7572
Core_0_branch_MPKI 12.834
Core_0_average_ROB_occupancy_at_mispredict 64.1638

Core_0_ITLB_total_access 171436
Core_0_ITLB_total_hit 171339
Core_0_ITLB_total_miss 97
Core_0_ITLB_total_MPKI 0.00194
Core_0_ITLB_total_miss_rate 0.000565809
Core_0_ITLB_demand_access 171436
Core_0_ITLB_demand_hit 171339
Core_0_ITLB_demand_miss 97
Core_0_ITLB_demand_MPKI 0.00194
Core_0_ITLB_demand_miss_rate 0.000565809
Core_0_ITLB_load_access 171436
Core_0_ITLB_load_hit 171339
Core_0_ITLB_load_miss 97
Core_0_ITLB_load_MPKI 0.00194
Core_0_ITLB_load_miss_rate 0.000565809
Core_0_ITLB_rfo_access 0
Core_0_ITLB_rfo_hit 0
Core_0_ITLB_rfo_miss 0
Core_0_ITLB_rfo_MPKI 0
Core_0_ITLB_rfo_miss_rate 0
Core_0_ITLB_prefetch_access 0
Core_0_ITLB_prefetch_hit 0
Core_0_ITLB_prefetch_miss 0
Core_0_ITLB_prefetch_MPKI 0
Core_0_ITLB_prefetch_miss_rate 0
Core_0_ITLB_writeback_access 0
Core_0_ITLB_writeback_hit 0
Core_0_ITLB_writeback_miss 0
Core_0_ITLB_writeback_MPKI 0
Core_0_ITLB_writeback_miss_rate 0
Core_0_ITLB_prefetch_requested 0
Core_0_ITLB_prefetch_issued 0
Core_0_ITLB_prefetch_useful 0
Core_0_ITLB_prefetch_useless 0
Core_0_ITLB_prefetch_late 0
Core_0_ITLB_prefetch_accuracy 0
Core_0_ITLB_prefetch_coverage 0

Core_0_DTLB_total_access 14280657
Core_0_DTLB_total_hit 13954720
Core_0_DTLB_total_miss 325937
Core_0_DTLB_total_MPKI 6.51874
Core_0_DTLB_total_miss_rate 0.0228237
Core_0_DTLB_demand_access 14280657
Core_0_DTLB_demand_hit 13954720
Core_0_DTLB_demand_miss 325937
Core_0_DTLB_demand_MPKI 6.51874
Core_0_DTLB_demand_miss_rate 0.0228237
Core_0_DTLB_load_access 14280657
Core_0_DTLB_load_hit 13954720
Core_0_DTLB_load_miss 325937
Core_0_DTLB_load_MPKI 6.51874
Core_0_DTLB_load_miss_rate 0.0228237
Core_0_DTLB_rfo_access 0
Core_0_DTLB_rfo_hit 0
Core_0_DTLB_rfo_miss 0
Core_0_DTLB_rfo_MPKI 0
Core_0_DTLB_rfo_miss_rate 0
Core_0_DTLB_prefetch_access 0
Core_0_DTLB_prefetch_hit 0
Core_0_DTLB_prefetch_miss 0
Core_0_DTLB_prefetch_MPKI 0
Core_0_DTLB_prefetch_miss_rate 0
Core_0_DTLB_writeback_access 0
Core_0_DTLB_writeback_hit 0
Core_0_DTLB_writeback_miss 0
Core_0_DTLB_writeback_MPKI 0
Core_0_DTLB_writeback_miss_rate 0
Core_0_DTLB_prefetch_requested 0
Core_0_DTLB_prefetch_issued 0
Core_0_DTLB_prefetch_useful 0
Core_0_DTLB_prefetch_useless 0
Core_0_DTLB_prefetch_late 0
Core_0_DTLB_prefetch_accuracy 0
Core_0_DTLB_prefetch_coverage 0

Core_0_STLB_total_access 272564
Core_0_STLB_total_hit 153973
Core_0_STLB_total_miss 118591
Core_0_STLB_total_MPKI 2.37182
Core_0_STLB_total_miss_rate 0.435094
Core_0_STLB_demand_access 272564
Core_0_STLB_demand_hit 153973
Core_0_STLB_demand_miss 118591
Core_0_STLB_demand_MPKI 2.37182
Core_0_STLB_demand_miss_rate 0.435094
Core_0_STLB_load_access 272564
Core_0_STLB_load_hit 153973
Core_0_STLB_load_miss 118591
Core_0_STLB_load_MPKI 2.37182
Core_0_STLB_load_miss_rate 0.435094
Core_0_STLB_rfo_access 0
Core_0_STLB_rfo_hit 0
Core_0_STLB_rfo_miss 0
Core_0_STLB_rfo_MPKI 0
Core_0_STLB_rfo_miss_rate 0
Core_0_STLB_prefetch_access 0
Core_0_STLB_prefetch_hit 0
Core_0_STLB_prefetch_miss 0
Core_0_STLB_prefetch_MPKI 0
Core_0_STLB_prefetch_miss_rate 0
Core_0_STLB_writeback_access 0
Core_0_STLB_writeback_hit 0
Core_0_STLB_writeback_miss 0
Core_0_STLB_writeback_MPKI 0
Core_0_STLB_writeback_miss_rate 0
Core_0_STLB_prefetch_requested 0
Core_0_STLB_prefetch_issued 0
Core_0_STLB_prefetch_useful 0
Core_0_STLB_prefetch_useless 0
Core_0_STLB_prefetch_late 0
Core_0_STLB_prefetch_accuracy 0
Core_0_STLB_prefetch_coverage 0

Core_0_L1I_total_access 175153
Core_0_L1I_total_hit 175153
Core_0_L1I_total_miss 0
Core_0_L1I_total_MPKI 0
Core_0_L1I_total_miss_rate 0
Core_0_L1I_demand_access 175153
Core_0_L1I_demand_hit 175153
Core_0_L1I_demand_miss 0
Core_0_L1I_demand_MPKI 0
Core_0_L1I_demand_miss_rate 0
Core_0_L1I_load_access 175153
Core_0_L1I_load_hit 175153
Core_0_L1I_load_miss 0
Core_0_L1I_load_MPKI 0
Core_0_L1I_load_miss_rate 0
Core_0_L1I_rfo_access 0
Core_0_L1I_rfo_hit 0
Core_0_L1I_rfo_miss 0
Core_0_L1I_rfo_MPKI 0
Core_0_L1I_rfo_miss_rate 0
Core_0_L1I_prefetch_access 0
Core_0_L1I_prefetch_hit 0
Core_0_L1I_prefetch_miss 0
Core_0_L1I_prefetch_MPKI 0
Core_0_L1I_prefetch_miss_rate 0
Core_0_L1I_writeback_access 0
Core_0_L1I_writeback_hit 0
Core_0_L1I_writeback_miss 0
Core_0_L1I_writeback_MPKI 0
Core_0_L1I_writeback_miss_rate 0
Core_0_L1I_prefetch_requested 0
Core_0_L1I_prefetch_issued 0
Core_0_L1I_prefetch_useful 0
Core_0_L1I_prefetch_useless 0
Core_0_L1I_prefetch_late 0
Core_0_L1I_prefetch_accuracy 0
Core_0_L1I_prefetch_coverage 0

Core_0_L1D_total_access 14954181
Core_0_L1D_total_hit 13074602
Core_0_L1D_total_miss 1879579
Core_0_L1D_total_MPKI 37.5916
Core_0_L1D_total_miss_rate 0.125689
Core_0_L1D_demand_access 8069193
Core_0_L1D_demand_hit 6910051
Core_0_L1D_demand_miss 1159142
Core_0_L1D_demand_MPKI 23.1828
Core_0_L1D_demand_miss_rate 0.14365
Core_0_L1D_load_access 8069193
Core_0_L1D_load_hit 6910051
Core_0_L1D_load_miss 1159142
Core_0_L1D_load_MPKI 23.1828
Core_0_L1D_load_miss_rate 0.14365
Core_0_L1D_rfo_access 0
Core_0_L1D_rfo_hit 0
Core_0_L1D_rfo_miss 0
Core_0_L1D_rfo_MPKI 0
Core_0_L1D_rfo_miss_rate 0
Core_0_L1D_prefetch_access 739154
Core_0_L1D_prefetch_hit 63582
Core_0_L1D_prefetch_miss 675572
Core_0_L1D_prefetch_MPKI 13.5114
Core_0_L1D_prefetch_miss_rate 0.91398
Core_0_L1D_writeback_access 6145834
Core_0_L1D_writeback_hit 6100969
Core_0_L1D_writeback_miss 44865
Core_0_L1D_writeback_MPKI 0.8973
Core_0_L1D_writeback_miss_rate 0.00730007
Core_0_L1D_prefetch_requested 740589
Core_0_L1D_prefetch_issued 739152
Core_0_L1D_prefetch_useful 340569
Core_0_L1D_prefetch_useless 316912
Core_0_L1D_prefetch_late 82414
Core_0_L1D_prefetch_accuracy 0.460756
Core_0_L1D_prefetch_coverage 0.22709

Core_0_L2C_total_access 2081184
Core_0_L2C_total_hit 622441
Core_0_L2C_total_miss 1458743
Core_0_L2C_total_MPKI 29.1749
Core_0_L2C_total_miss_rate 0.70092
Core_0_L2C_demand_access 743126
Core_0_L2C_demand_hit 56646
Core_0_L2C_demand_miss 686480
Core_0_L2C_demand_MPKI 13.7296
Core_0_L2C_demand_miss_rate 0.923773
Core_0_L2C_load_access 700496
Core_0_L2C_load_hit 55660
Core_0_L2C_load_miss 644836
Core_0_L2C_load_MPKI 12.8967
Core_0_L2C_load_miss_rate 0.920542
Core_0_L2C_rfo_access 42630
Core_0_L2C_rfo_hit 986
Core_0_L2C_rfo_miss 41644
Core_0_L2C_rfo_MPKI 0.83288
Core_0_L2C_rfo_miss_rate 0.976871
Core_0_L2C_prefetch_access 842676
Core_0_L2C_prefetch_hit 70413
Core_0_L2C_prefetch_miss 772263
Core_0_L2C_prefetch_MPKI 15.4453
Core_0_L2C_prefetch_miss_rate 0.916441
Core_0_L2C_writeback_access 495382
Core_0_L2C_writeback_hit 495382
Core_0_L2C_writeback_miss 0
Core_0_L2C_writeback_MPKI 0
Core_0_L2C_writeback_miss_rate 0
Core_0_L2C_prefetch_requested 185172
Core_0_L2C_prefetch_issued 185172
Core_0_L2C_prefetch_useful 68203
Core_0_L2C_prefetch_useless 45286
Core_0_L2C_prefetch_late 7214
Core_0_L2C_prefetch_accuracy 0.368322
Core_0_L2C_prefetch_coverage 0.090373

Core_0_LLC_total_access 1887484
Core_0_LLC_total_hit 440883
Core_0_LLC_total_miss 1446601
Core_0_LLC_total_MPKI 28.932
Core_0_LLC_total_miss_rate 0.766418
Core_0_LLC_demand_access 679266
Core_0_LLC_demand_hit 8522
Core_0_LLC_demand_miss 670744
Core_0_LLC_demand_MPKI 13.4149
Core_0_LLC_demand_miss_rate 0.987454
Core_0_LLC_load_access 637628
Core_0_LLC_load_hit 8407
Core_0_LLC_load_miss 629221
Core_0_LLC_load_MPKI 12.5844
Core_0_LLC_load_miss_rate 0.986815
Core_0_LLC_rfo_access 41638
Core_0_LLC_rfo_hit 115
Core_0_LLC_rfo_miss 41523
Core_0_LLC_rfo_MPKI 0.83046
Core_0_LLC_rfo_miss_rate 0.997238
Core_0_LLC_prefetch_access 719336
Core_0_LLC_prefetch_hit 7892
Core_0_LLC_prefetch_miss 711444
Core_0_LLC_prefetch_MPKI 14.2289
Core_0_LLC_prefetch_miss_rate 0.989029
Core_0_LLC_writeback_access 488882
Core_0_LLC_writeback_hit 424469
Core_0_LLC_writeback_miss 64413
Core_0_LLC_writeback_MPKI 1.28826
Core_0_LLC_writeback_miss_rate 0.131756
Core_0_LLC_prefetch_requested 0
Core_0_LLC_prefetch_issued 0
Core_0_LLC_prefetch_useful 0
Core_0_LLC_prefetch_useless 0
Core_0_LLC_prefetch_late 0
Core_0_LLC_prefetch_accuracy 0
Core_0_LLC_prefetch_coverage 0

[DRAM Statistics]
Channel_0_RQ_row_buffer_hit 87039
Channel_0_RQ_row_buffer_miss 1313304
Channel_0_WQ_row_buffer_hit 138120
Channel_0_WQ_row_buffer_miss 346810
Channel_0_WQ_full 0
Channel_0_dbus_congested 5813806
DRAM_total_RQ_row_buffer_hit 87039
DRAM_total_RQ_row_buffer_miss 1313304
DRAM_total_WQ_row_buffer_hit 138120
DRAM_total_WQ_row_buffer_miss 346810
DRAM_total_WQ_full 0
DRAM_total_dbus_congested 5813806
DRAM_avg_congested_cycle 11.8595

======STLB miss causes ========
Core_0_STLB_miss_cause_breakdown
Core_0_STLB_cause_Demand_Data_miss 118561
Core_0_STLB_cause_Demand_Data_miss_rate 0.434984
Core_0_STLB_cause_Demand_Instruction_miss 30
Core_0_STLB_cause_Demand_Instruction_miss_rate 0.000110066
Core_0_STLB_cause_L1D_Prefetch_miss 0
Core_0_STLB_cause_L1D_Prefetch_miss_rate 0
Core_0_STLB_cause_L1I_Prefetch_miss 0
Core_0_STLB_cause_L1I_Prefetch_miss_rate 0
Core_0_STLB_cause_Other_miss 0
Core_0_STLB_cause_Other_miss_rate 0
Core_0_STLB_Demand_miss 118591
Core_0_STLB_Demand_miss_rate 0.435094
Core_0_STLB_L1D_Prefetch_miss 0
Core_0_STLB_L1D_Prefetch_miss_rate 0
Core_0_STLB_Other_miss 0
Core_0_STLB_Other_miss_rate 0
