[VMEM] WARNING: physical memory size is smaller than virtual memory size.

*** ChampSim Multicore Out-of-Order Simulator ***
Warmup Instructions: 20000000
Simulation Instructions: 50000000
Number of CPUs: 1
Page size: 4096
STLB ideal mode: l1pref
STLB ideal fill: on
Core 0: /data0/tzh/champsim_traces/QMM/compute_fp_7_new.xz
 L1D Berti prefetcher
Off-chip DRAM Size: 16 GiB Channels: 1 Width: 64-bit Data Rate: 3205 MT/s
Warmup halting CPU 0 at instruction 20000002 cycle 5775082 for remainder of phase
Warmup finished CPU 0 instructions: 20000002 cycles: 5775082 cumulative IPC: 3.463 (Simulation time: 00 hr 01 min 11 sec)
Warmup complete CPU 0 instructions: 20000002 cycles: 5775082 cumulative IPC: 3.463 (Simulation time: 00 hr 01 min 11 sec)
*** Reached end of trace: (0, "/data0/tzh/champsim_traces/QMM/compute_fp_7_new.xz")
[BTB] WARNING: target of return is a lower address than the corresponding call. This is usually a problem with your trace.
*** Reached end of trace: (0, "/data0/tzh/champsim_traces/QMM/compute_fp_7_new.xz")
[BTB] WARNING: target of return is a lower address than the corresponding call. This is usually a problem with your trace.
Simulation finished CPU 0 instructions: 50000005 cycles: 119766699 cumulative IPC: 0.4175 (Simulation time: 00 hr 12 min 54 sec)
Simulation complete CPU 0 instructions: 50000005 cycles: 119766699 cumulative IPC: 0.4175 (Simulation time: 00 hr 12 min 54 sec)

ChampSim completed all CPUs

=== Simulation ===
CPU 0 runs /data0/tzh/champsim_traces/QMM/compute_fp_7_new.xz

Region of Interest Statistics

CPU 0 cumulative IPC: 0.4175 instructions: 50000005 cycles: 119766699
CPU 0 Branch Prediction Accuracy: 93.74% MPKI: 10.24 Average ROB Occupancy at Mispredict: 67.76
Branch type MPKI
BRANCH_DIRECT_JUMP: 0.00058
BRANCH_INDIRECT: 0.00012
BRANCH_CONDITIONAL: 10.24
BRANCH_DIRECT_CALL: 0.00024
BRANCH_INDIRECT_CALL: 0.00016
BRANCH_RETURN: 0.00028

cpu0->cpu0_STLB TOTAL        ACCESS:     750606 HIT:     647610 MISS:     102996 MSHR_MERGE:          0
cpu0->cpu0_STLB LOAD         ACCESS:     750606 HIT:     647610 MISS:     102996 MSHR_MERGE:          0
cpu0->cpu0_STLB RFO          ACCESS:          0 HIT:          0 MISS:          0 MSHR_MERGE:          0
cpu0->cpu0_STLB PREFETCH     ACCESS:          0 HIT:          0 MISS:          0 MSHR_MERGE:          0
cpu0->cpu0_STLB WRITE        ACCESS:          0 HIT:          0 MISS:          0 MSHR_MERGE:          0
cpu0->cpu0_STLB TRANSLATION  ACCESS:          0 HIT:          0 MISS:          0 MSHR_MERGE:          0
cpu0->cpu0_STLB PREFETCH REQUESTED:          0 ISSUED:          0 USEFUL:          0 USELESS:          0 LATE:          0
cpu0->cpu0_STLB AVERAGE MISS LATENCY: 68.13 cycles
cpu0->cpu0_L2C TOTAL        ACCESS:    6616439 HIT:    3241994 MISS:    3374445 MSHR_MERGE:     244810
cpu0->cpu0_L2C LOAD         ACCESS:    1887456 HIT:     666083 MISS:    1221373 MSHR_MERGE:      25279
cpu0->cpu0_L2C RFO          ACCESS:     676594 HIT:     139292 MISS:     537302 MSHR_MERGE:         16
cpu0->cpu0_L2C PREFETCH     ACCESS:    2334798 HIT:     749818 MISS:    1584980 MSHR_MERGE:     219515
cpu0->cpu0_L2C WRITE        ACCESS:    1658311 HIT:    1658219 MISS:         92 MSHR_MERGE:          0
cpu0->cpu0_L2C TRANSLATION  ACCESS:      59280 HIT:      28582 MISS:      30698 MSHR_MERGE:          0
cpu0->cpu0_L2C PREFETCH REQUESTED:     758873 ISSUED:     750140 USEFUL:     187575 USELESS:      90925 LATE:      25295
cpu0->cpu0_L2C AVERAGE MISS LATENCY: 201.5 cycles
cpu0->cpu0_L1I TOTAL        ACCESS:    2714519 HIT:    2711452 MISS:       3067 MSHR_MERGE:       1111
cpu0->cpu0_L1I LOAD         ACCESS:    2714519 HIT:    2711452 MISS:       3067 MSHR_MERGE:       1111
cpu0->cpu0_L1I RFO          ACCESS:          0 HIT:          0 MISS:          0 MSHR_MERGE:          0
cpu0->cpu0_L1I PREFETCH     ACCESS:          0 HIT:          0 MISS:          0 MSHR_MERGE:          0
cpu0->cpu0_L1I WRITE        ACCESS:          0 HIT:          0 MISS:          0 MSHR_MERGE:          0
cpu0->cpu0_L1I TRANSLATION  ACCESS:          0 HIT:          0 MISS:          0 MSHR_MERGE:          0
cpu0->cpu0_L1I PREFETCH REQUESTED:          0 ISSUED:          0 USEFUL:          0 USELESS:          0 LATE:          0
cpu0->cpu0_L1I AVERAGE MISS LATENCY: 277.6 cycles
cpu0->cpu0_L1D TOTAL        ACCESS:   17037307 HIT:   10345398 MISS:    6691909 MSHR_MERGE:    2485770
cpu0->cpu0_L1D LOAD         ACCESS:    9659226 HIT:    6766568 MISS:    2892658 MSHR_MERGE:    1007107
cpu0->cpu0_L1D RFO          ACCESS:          0 HIT:          0 MISS:          0 MSHR_MERGE:          0
cpu0->cpu0_L1D PREFETCH     ACCESS:    1960702 HIT:     321774 MISS:    1638928 MSHR_MERGE:      54251
cpu0->cpu0_L1D WRITE        ACCESS:    5212161 HIT:    3111929 MISS:    2100232 MSHR_MERGE:    1423601
cpu0->cpu0_L1D TRANSLATION  ACCESS:     205218 HIT:     145127 MISS:      60091 MSHR_MERGE:        811
cpu0->cpu0_L1D PREFETCH REQUESTED:    1993663 ISSUED:    1960694 USEFUL:     867959 USELESS:     716601 LATE:     124397
cpu0->cpu0_L1D AVERAGE MISS LATENCY: 146.8 cycles
cpu0->cpu0_ITLB TOTAL        ACCESS:    2444056 HIT:    2443627 MISS:        429 MSHR_MERGE:        289
cpu0->cpu0_ITLB LOAD         ACCESS:    2444056 HIT:    2443627 MISS:        429 MSHR_MERGE:        289
cpu0->cpu0_ITLB RFO          ACCESS:          0 HIT:          0 MISS:          0 MSHR_MERGE:          0
cpu0->cpu0_ITLB PREFETCH     ACCESS:          0 HIT:          0 MISS:          0 MSHR_MERGE:          0
cpu0->cpu0_ITLB WRITE        ACCESS:          0 HIT:          0 MISS:          0 MSHR_MERGE:          0
cpu0->cpu0_ITLB TRANSLATION  ACCESS:          0 HIT:          0 MISS:          0 MSHR_MERGE:          0
cpu0->cpu0_ITLB PREFETCH REQUESTED:          0 ISSUED:          0 USEFUL:          0 USELESS:          0 LATE:          0
cpu0->cpu0_ITLB AVERAGE MISS LATENCY: 274.6 cycles
cpu0->cpu0_DTLB TOTAL        ACCESS:   16230055 HIT:   15198388 MISS:    1031667 MSHR_MERGE:     281201
cpu0->cpu0_DTLB LOAD         ACCESS:   16230055 HIT:   15198388 MISS:    1031667 MSHR_MERGE:     281201
cpu0->cpu0_DTLB RFO          ACCESS:          0 HIT:          0 MISS:          0 MSHR_MERGE:          0
cpu0->cpu0_DTLB PREFETCH     ACCESS:          0 HIT:          0 MISS:          0 MSHR_MERGE:          0
cpu0->cpu0_DTLB WRITE        ACCESS:          0 HIT:          0 MISS:          0 MSHR_MERGE:          0
cpu0->cpu0_DTLB TRANSLATION  ACCESS:          0 HIT:          0 MISS:          0 MSHR_MERGE:          0
cpu0->cpu0_DTLB PREFETCH REQUESTED:          0 ISSUED:          0 USEFUL:          0 USELESS:          0 LATE:          0
cpu0->cpu0_DTLB AVERAGE MISS LATENCY: 14.44 cycles
cpu0->LLC TOTAL        ACCESS:    4291199 HIT:    2008909 MISS:    2282290 MSHR_MERGE:      17770
cpu0->LLC LOAD         ACCESS:    1196093 HIT:     468835 MISS:     727258 MSHR_MERGE:       2660
cpu0->LLC RFO          ACCESS:     537286 HIT:     142773 MISS:     394513 MSHR_MERGE:          0
cpu0->LLC PREFETCH     ACCESS:    1365462 HIT:     463749 MISS:     901713 MSHR_MERGE:      15110
cpu0->LLC WRITE        ACCESS:    1161660 HIT:     917406 MISS:     244254 MSHR_MERGE:          0
cpu0->LLC TRANSLATION  ACCESS:      30698 HIT:      16146 MISS:      14552 MSHR_MERGE:          0
cpu0->LLC PREFETCH REQUESTED:          0 ISSUED:          0 USEFUL:          0 USELESS:          0 LATE:          0
cpu0->LLC AVERAGE MISS LATENCY: 238.4 cycles

DRAM Statistics

Channel 0 RQ ROW_BUFFER_HIT:      69917
  ROW_BUFFER_MISS:    1948087
  AVG DBUS CONGESTED CYCLE: 6.564
Channel 0 WQ ROW_BUFFER_HIT:     125368
  ROW_BUFFER_MISS:     491587
  FULL:        486
Channel 0 REFRESHES ISSUED:       9980

[ROI Statistics]
[System Configuration]
num_cpus 1
cpu_freq 4000
fetch_width 6
decode_width 6
dispatch_width 6
execute_width 6
lq_width 2
sq_width 2
retire_width 6
scheduler_size 128
branch_mispredict_penalty 15
rob_size 352
lq_size 128
sq_size 72
ifetch_buffer_size 64
decode_buffer_size 32
dispatch_buffer_size 32
register_file_size 288
decode_latency 1
dispatch_latency 1
schedule_latency 1
execute_latency 1
page_size 4096
block_size 64
core_0_itlb_set 16
core_0_itlb_way 4
core_0_itlb_rq_size 16
core_0_itlb_wq_size 16
core_0_itlb_pq_size 0
core_0_itlb_mshr_size 8
core_0_itlb_hit_latency 1
core_0_itlb_fill_latency 1
core_0_itlb_max_tag_check 2
core_0_itlb_max_fill 2
core_0_dtlb_set 16
core_0_dtlb_way 4
core_0_dtlb_rq_size 16
core_0_dtlb_wq_size 16
core_0_dtlb_pq_size 0
core_0_dtlb_mshr_size 8
core_0_dtlb_hit_latency 1
core_0_dtlb_fill_latency 1
core_0_dtlb_max_tag_check 2
core_0_dtlb_max_fill 2
core_0_stlb_set 128
core_0_stlb_way 12
core_0_stlb_rq_size 32
core_0_stlb_wq_size 32
core_0_stlb_pq_size 0
core_0_stlb_mshr_size 16
core_0_stlb_hit_latency 4
core_0_stlb_fill_latency 4
core_0_stlb_max_tag_check 1
core_0_stlb_max_fill 1
core_0_l1i_set 64
core_0_l1i_way 8
core_0_l1i_rq_size 64
core_0_l1i_wq_size 64
core_0_l1i_pq_size 32
core_0_l1i_mshr_size 8
core_0_l1i_hit_latency 2
core_0_l1i_fill_latency 2
core_0_l1i_max_tag_check 2
core_0_l1i_max_fill 2
core_0_l1d_set 64
core_0_l1d_way 12
core_0_l1d_rq_size 64
core_0_l1d_wq_size 64
core_0_l1d_pq_size 8
core_0_l1d_mshr_size 16
core_0_l1d_hit_latency 2
core_0_l1d_fill_latency 3
core_0_l1d_max_tag_check 2
core_0_l1d_max_fill 2
core_0_l2c_set 1024
core_0_l2c_way 8
core_0_l2c_rq_size 32
core_0_l2c_wq_size 32
core_0_l2c_pq_size 16
core_0_l2c_mshr_size 32
core_0_l2c_hit_latency 5
core_0_l2c_fill_latency 5
core_0_l2c_max_tag_check 1
core_0_l2c_max_fill 1
llc_set 2048
llc_way 16
llc_rq_size 32
llc_wq_size 32
llc_pq_size 32
llc_mshr_size 64
llc_hit_latency 10
llc_fill_latency 10
llc_max_tag_check 1
llc_max_fill 1
dram_channels 1
dram_ranks 1
dram_bankgroups 8
dram_banks 4
dram_rows 65536
dram_columns 1024
dram_channel_width 8
dram_rq_size 64
dram_wq_size 64
dram_size 17179869184
core_0_itlb_prefetcher no
core_0_dtlb_prefetcher no
core_0_stlb_prefetcher no
core_0_l1i_prefetcher next_line
core_0_l1d_prefetcher berti
core_0_l2c_prefetcher ip_stride
llc_prefetcher no
llc_replacement drrip

Core_0_instructions 50000005
Core_0_cycles 119766699
Core_0_IPC 0.417478
Core_0_branch_prediction_accuracy 93.7416
Core_0_branch_MPKI 10.2378
Core_0_average_ROB_occupancy_at_mispredict 67.7608

Core_0_ITLB_total_access 2444056
Core_0_ITLB_total_hit 2443627
Core_0_ITLB_total_miss 429
Core_0_ITLB_total_MPKI 0.00858
Core_0_ITLB_total_miss_rate 0.000175528
Core_0_ITLB_demand_access 2444056
Core_0_ITLB_demand_hit 2443627
Core_0_ITLB_demand_miss 429
Core_0_ITLB_demand_MPKI 0.00858
Core_0_ITLB_demand_miss_rate 0.000175528
Core_0_ITLB_load_access 2444056
Core_0_ITLB_load_hit 2443627
Core_0_ITLB_load_miss 429
Core_0_ITLB_load_MPKI 0.00858
Core_0_ITLB_load_miss_rate 0.000175528
Core_0_ITLB_rfo_access 0
Core_0_ITLB_rfo_hit 0
Core_0_ITLB_rfo_miss 0
Core_0_ITLB_rfo_MPKI 0
Core_0_ITLB_rfo_miss_rate 0
Core_0_ITLB_prefetch_access 0
Core_0_ITLB_prefetch_hit 0
Core_0_ITLB_prefetch_miss 0
Core_0_ITLB_prefetch_MPKI 0
Core_0_ITLB_prefetch_miss_rate 0
Core_0_ITLB_writeback_access 0
Core_0_ITLB_writeback_hit 0
Core_0_ITLB_writeback_miss 0
Core_0_ITLB_writeback_MPKI 0
Core_0_ITLB_writeback_miss_rate 0
Core_0_ITLB_prefetch_requested 0
Core_0_ITLB_prefetch_issued 0
Core_0_ITLB_prefetch_useful 0
Core_0_ITLB_prefetch_useless 0
Core_0_ITLB_prefetch_late 0
Core_0_ITLB_prefetch_accuracy 0
Core_0_ITLB_prefetch_coverage 0

Core_0_DTLB_total_access 16230055
Core_0_DTLB_total_hit 15198388
Core_0_DTLB_total_miss 1031667
Core_0_DTLB_total_MPKI 20.6333
Core_0_DTLB_total_miss_rate 0.0635652
Core_0_DTLB_demand_access 16230055
Core_0_DTLB_demand_hit 15198388
Core_0_DTLB_demand_miss 1031667
Core_0_DTLB_demand_MPKI 20.6333
Core_0_DTLB_demand_miss_rate 0.0635652
Core_0_DTLB_load_access 16230055
Core_0_DTLB_load_hit 15198388
Core_0_DTLB_load_miss 1031667
Core_0_DTLB_load_MPKI 20.6333
Core_0_DTLB_load_miss_rate 0.0635652
Core_0_DTLB_rfo_access 0
Core_0_DTLB_rfo_hit 0
Core_0_DTLB_rfo_miss 0
Core_0_DTLB_rfo_MPKI 0
Core_0_DTLB_rfo_miss_rate 0
Core_0_DTLB_prefetch_access 0
Core_0_DTLB_prefetch_hit 0
Core_0_DTLB_prefetch_miss 0
Core_0_DTLB_prefetch_MPKI 0
Core_0_DTLB_prefetch_miss_rate 0
Core_0_DTLB_writeback_access 0
Core_0_DTLB_writeback_hit 0
Core_0_DTLB_writeback_miss 0
Core_0_DTLB_writeback_MPKI 0
Core_0_DTLB_writeback_miss_rate 0
Core_0_DTLB_prefetch_requested 0
Core_0_DTLB_prefetch_issued 0
Core_0_DTLB_prefetch_useful 0
Core_0_DTLB_prefetch_useless 0
Core_0_DTLB_prefetch_late 0
Core_0_DTLB_prefetch_accuracy 0
Core_0_DTLB_prefetch_coverage 0

Core_0_STLB_total_access 750606
Core_0_STLB_total_hit 647610
Core_0_STLB_total_miss 102996
Core_0_STLB_total_MPKI 2.05992
Core_0_STLB_total_miss_rate 0.137217
Core_0_STLB_demand_access 750606
Core_0_STLB_demand_hit 647610
Core_0_STLB_demand_miss 102996
Core_0_STLB_demand_MPKI 2.05992
Core_0_STLB_demand_miss_rate 0.137217
Core_0_STLB_load_access 750606
Core_0_STLB_load_hit 647610
Core_0_STLB_load_miss 102996
Core_0_STLB_load_MPKI 2.05992
Core_0_STLB_load_miss_rate 0.137217
Core_0_STLB_rfo_access 0
Core_0_STLB_rfo_hit 0
Core_0_STLB_rfo_miss 0
Core_0_STLB_rfo_MPKI 0
Core_0_STLB_rfo_miss_rate 0
Core_0_STLB_prefetch_access 0
Core_0_STLB_prefetch_hit 0
Core_0_STLB_prefetch_miss 0
Core_0_STLB_prefetch_MPKI 0
Core_0_STLB_prefetch_miss_rate 0
Core_0_STLB_writeback_access 0
Core_0_STLB_writeback_hit 0
Core_0_STLB_writeback_miss 0
Core_0_STLB_writeback_MPKI 0
Core_0_STLB_writeback_miss_rate 0
Core_0_STLB_prefetch_requested 0
Core_0_STLB_prefetch_issued 0
Core_0_STLB_prefetch_useful 0
Core_0_STLB_prefetch_useless 0
Core_0_STLB_prefetch_late 0
Core_0_STLB_prefetch_accuracy 0
Core_0_STLB_prefetch_coverage 0

Core_0_L1I_total_access 2714519
Core_0_L1I_total_hit 2711452
Core_0_L1I_total_miss 3067
Core_0_L1I_total_MPKI 0.06134
Core_0_L1I_total_miss_rate 0.00112985
Core_0_L1I_demand_access 2714519
Core_0_L1I_demand_hit 2711452
Core_0_L1I_demand_miss 3067
Core_0_L1I_demand_MPKI 0.06134
Core_0_L1I_demand_miss_rate 0.00112985
Core_0_L1I_load_access 2714519
Core_0_L1I_load_hit 2711452
Core_0_L1I_load_miss 3067
Core_0_L1I_load_MPKI 0.06134
Core_0_L1I_load_miss_rate 0.00112985
Core_0_L1I_rfo_access 0
Core_0_L1I_rfo_hit 0
Core_0_L1I_rfo_miss 0
Core_0_L1I_rfo_MPKI 0
Core_0_L1I_rfo_miss_rate 0
Core_0_L1I_prefetch_access 0
Core_0_L1I_prefetch_hit 0
Core_0_L1I_prefetch_miss 0
Core_0_L1I_prefetch_MPKI 0
Core_0_L1I_prefetch_miss_rate 0
Core_0_L1I_writeback_access 0
Core_0_L1I_writeback_hit 0
Core_0_L1I_writeback_miss 0
Core_0_L1I_writeback_MPKI 0
Core_0_L1I_writeback_miss_rate 0
Core_0_L1I_prefetch_requested 0
Core_0_L1I_prefetch_issued 0
Core_0_L1I_prefetch_useful 0
Core_0_L1I_prefetch_useless 0
Core_0_L1I_prefetch_late 0
Core_0_L1I_prefetch_accuracy 0
Core_0_L1I_prefetch_coverage 0

Core_0_L1D_total_access 16832089
Core_0_L1D_total_hit 10200271
Core_0_L1D_total_miss 6631818
Core_0_L1D_total_MPKI 132.636
Core_0_L1D_total_miss_rate 0.393999
Core_0_L1D_demand_access 9659226
Core_0_L1D_demand_hit 6766568
Core_0_L1D_demand_miss 2892658
Core_0_L1D_demand_MPKI 57.8532
Core_0_L1D_demand_miss_rate 0.299471
Core_0_L1D_load_access 9659226
Core_0_L1D_load_hit 6766568
Core_0_L1D_load_miss 2892658
Core_0_L1D_load_MPKI 57.8532
Core_0_L1D_load_miss_rate 0.299471
Core_0_L1D_rfo_access 0
Core_0_L1D_rfo_hit 0
Core_0_L1D_rfo_miss 0
Core_0_L1D_rfo_MPKI 0
Core_0_L1D_rfo_miss_rate 0
Core_0_L1D_prefetch_access 1960702
Core_0_L1D_prefetch_hit 321774
Core_0_L1D_prefetch_miss 1638928
Core_0_L1D_prefetch_MPKI 32.7786
Core_0_L1D_prefetch_miss_rate 0.835888
Core_0_L1D_writeback_access 5212161
Core_0_L1D_writeback_hit 3111929
Core_0_L1D_writeback_miss 2100232
Core_0_L1D_writeback_MPKI 42.0046
Core_0_L1D_writeback_miss_rate 0.402948
Core_0_L1D_prefetch_requested 1993663
Core_0_L1D_prefetch_issued 1960694
Core_0_L1D_prefetch_useful 867959
Core_0_L1D_prefetch_useless 716601
Core_0_L1D_prefetch_late 124397
Core_0_L1D_prefetch_accuracy 0.442679
Core_0_L1D_prefetch_coverage 0.230802

Core_0_L2C_total_access 6557159
Core_0_L2C_total_hit 3213412
Core_0_L2C_total_miss 3343747
Core_0_L2C_total_MPKI 66.8749
Core_0_L2C_total_miss_rate 0.509938
Core_0_L2C_demand_access 2564050
Core_0_L2C_demand_hit 805375
Core_0_L2C_demand_miss 1758675
Core_0_L2C_demand_MPKI 35.1735
Core_0_L2C_demand_miss_rate 0.685897
Core_0_L2C_load_access 1887456
Core_0_L2C_load_hit 666083
Core_0_L2C_load_miss 1221373
Core_0_L2C_load_MPKI 24.4275
Core_0_L2C_load_miss_rate 0.6471
Core_0_L2C_rfo_access 676594
Core_0_L2C_rfo_hit 139292
Core_0_L2C_rfo_miss 537302
Core_0_L2C_rfo_MPKI 10.746
Core_0_L2C_rfo_miss_rate 0.794128
Core_0_L2C_prefetch_access 2334798
Core_0_L2C_prefetch_hit 749818
Core_0_L2C_prefetch_miss 1584980
Core_0_L2C_prefetch_MPKI 31.6996
Core_0_L2C_prefetch_miss_rate 0.678851
Core_0_L2C_writeback_access 1658311
Core_0_L2C_writeback_hit 1658219
Core_0_L2C_writeback_miss 92
Core_0_L2C_writeback_MPKI 0.00184
Core_0_L2C_writeback_miss_rate 5.54781e-05
Core_0_L2C_prefetch_requested 758873
Core_0_L2C_prefetch_issued 750140
Core_0_L2C_prefetch_useful 187575
Core_0_L2C_prefetch_useless 90925
Core_0_L2C_prefetch_late 25295
Core_0_L2C_prefetch_accuracy 0.250053
Core_0_L2C_prefetch_coverage 0.0963776

Core_0_LLC_total_access 4260501
Core_0_LLC_total_hit 1992763
Core_0_LLC_total_miss 2267738
Core_0_LLC_total_MPKI 45.3548
Core_0_LLC_total_miss_rate 0.53227
Core_0_LLC_demand_access 1733379
Core_0_LLC_demand_hit 611608
Core_0_LLC_demand_miss 1121771
Core_0_LLC_demand_MPKI 22.4354
Core_0_LLC_demand_miss_rate 0.647159
Core_0_LLC_load_access 1196093
Core_0_LLC_load_hit 468835
Core_0_LLC_load_miss 727258
Core_0_LLC_load_MPKI 14.5452
Core_0_LLC_load_miss_rate 0.608028
Core_0_LLC_rfo_access 537286
Core_0_LLC_rfo_hit 142773
Core_0_LLC_rfo_miss 394513
Core_0_LLC_rfo_MPKI 7.89026
Core_0_LLC_rfo_miss_rate 0.73427
Core_0_LLC_prefetch_access 1365462
Core_0_LLC_prefetch_hit 463749
Core_0_LLC_prefetch_miss 901713
Core_0_LLC_prefetch_MPKI 18.0343
Core_0_LLC_prefetch_miss_rate 0.660372
Core_0_LLC_writeback_access 1161660
Core_0_LLC_writeback_hit 917406
Core_0_LLC_writeback_miss 244254
Core_0_LLC_writeback_MPKI 4.88508
Core_0_LLC_writeback_miss_rate 0.210263
Core_0_LLC_prefetch_requested 0
Core_0_LLC_prefetch_issued 0
Core_0_LLC_prefetch_useful 0
Core_0_LLC_prefetch_useless 0
Core_0_LLC_prefetch_late 0
Core_0_LLC_prefetch_accuracy 0
Core_0_LLC_prefetch_coverage 0

[DRAM Statistics]
Channel_0_RQ_row_buffer_hit 69917
Channel_0_RQ_row_buffer_miss 1948087
Channel_0_WQ_row_buffer_hit 125368
Channel_0_WQ_row_buffer_miss 491587
Channel_0_WQ_full 486
Channel_0_dbus_congested 6999684
DRAM_total_RQ_row_buffer_hit 69917
DRAM_total_RQ_row_buffer_miss 1948087
DRAM_total_WQ_row_buffer_hit 125368
DRAM_total_WQ_row_buffer_miss 491587
DRAM_total_WQ_full 486
DRAM_total_dbus_congested 6999684
DRAM_avg_congested_cycle 6.56413

======STLB miss causes ========
Core_0_STLB_miss_cause_breakdown
Core_0_STLB_cause_Demand_Data_miss 102856
Core_0_STLB_cause_Demand_Data_miss_rate 0.137031
Core_0_STLB_cause_Demand_Instruction_miss 140
Core_0_STLB_cause_Demand_Instruction_miss_rate 0.000186516
Core_0_STLB_cause_L1D_Prefetch_miss 0
Core_0_STLB_cause_L1D_Prefetch_miss_rate 0
Core_0_STLB_cause_L1I_Prefetch_miss 0
Core_0_STLB_cause_L1I_Prefetch_miss_rate 0
Core_0_STLB_cause_Other_miss 0
Core_0_STLB_cause_Other_miss_rate 0
Core_0_STLB_Demand_miss 102996
Core_0_STLB_Demand_miss_rate 0.137217
Core_0_STLB_L1D_Prefetch_miss 0
Core_0_STLB_L1D_Prefetch_miss_rate 0
Core_0_STLB_Other_miss 0
Core_0_STLB_Other_miss_rate 0
