[VMEM] WARNING: physical memory size is smaller than virtual memory size.

*** ChampSim Multicore Out-of-Order Simulator ***
Warmup Instructions: 20000000
Simulation Instructions: 50000000
Number of CPUs: 1
Page size: 4096
STLB ideal mode: l1pref
STLB ideal fill: on
Core 0: /data0/tzh/champsim_traces/QMM/srv_63_new.xz
 L1D Berti prefetcher
Off-chip DRAM Size: 16 GiB Channels: 1 Width: 64-bit Data Rate: 3205 MT/s
[BTB] WARNING: target of return is a lower address than the corresponding call. This is usually a problem with your trace.
[BTB] WARNING: target of return is a lower address than the corresponding call. This is usually a problem with your trace.
[BTB] WARNING: target of return is a lower address than the corresponding call. This is usually a problem with your trace.
[BTB] WARNING: target of return is a lower address than the corresponding call. This is usually a problem with your trace.
[BTB] WARNING: target of return is a lower address than the corresponding call. This is usually a problem with your trace.
[BTB] WARNING: target of return is a lower address than the corresponding call. This is usually a problem with your trace.
[BTB] WARNING: target of return is a lower address than the corresponding call. This is usually a problem with your trace.
[BTB] WARNING: target of return is a lower address than the corresponding call. This is usually a problem with your trace.
[BTB] WARNING: target of return is a lower address than the corresponding call. This is usually a problem with your trace.
[BTB] WARNING: target of return is a lower address than the corresponding call. This is usually a problem with your trace.
Warmup halting CPU 0 at instruction 20000001 cycle 4499164 for remainder of phase
Warmup finished CPU 0 instructions: 20000001 cycles: 4499164 cumulative IPC: 4.445 (Simulation time: 00 hr 01 min 08 sec)
Warmup complete CPU 0 instructions: 20000001 cycles: 4499164 cumulative IPC: 4.445 (Simulation time: 00 hr 01 min 08 sec)
*** Reached end of trace: (0, "/data0/tzh/champsim_traces/QMM/srv_63_new.xz")
*** Reached end of trace: (0, "/data0/tzh/champsim_traces/QMM/srv_63_new.xz")
Simulation finished CPU 0 instructions: 50000001 cycles: 28400219 cumulative IPC: 1.761 (Simulation time: 00 hr 05 min 23 sec)
Simulation complete CPU 0 instructions: 50000001 cycles: 28400219 cumulative IPC: 1.761 (Simulation time: 00 hr 05 min 23 sec)

ChampSim completed all CPUs

=== Simulation ===
CPU 0 runs /data0/tzh/champsim_traces/QMM/srv_63_new.xz

Region of Interest Statistics

CPU 0 cumulative IPC: 1.761 instructions: 50000001 cycles: 28400219
CPU 0 Branch Prediction Accuracy: 98.29% MPKI: 3.07 Average ROB Occupancy at Mispredict: 107.2
Branch type MPKI
BRANCH_DIRECT_JUMP: 0.2107
BRANCH_INDIRECT: 0.1796
BRANCH_CONDITIONAL: 1.847
BRANCH_DIRECT_CALL: 0.3949
BRANCH_INDIRECT_CALL: 0.09022
BRANCH_RETURN: 0.3479

cpu0->cpu0_STLB TOTAL        ACCESS:     841240 HIT:     749383 MISS:      91857 MSHR_MERGE:          0
cpu0->cpu0_STLB LOAD         ACCESS:     841240 HIT:     749383 MISS:      91857 MSHR_MERGE:          0
cpu0->cpu0_STLB RFO          ACCESS:          0 HIT:          0 MISS:          0 MSHR_MERGE:          0
cpu0->cpu0_STLB PREFETCH     ACCESS:          0 HIT:          0 MISS:          0 MSHR_MERGE:          0
cpu0->cpu0_STLB WRITE        ACCESS:          0 HIT:          0 MISS:          0 MSHR_MERGE:          0
cpu0->cpu0_STLB TRANSLATION  ACCESS:          0 HIT:          0 MISS:          0 MSHR_MERGE:          0
cpu0->cpu0_STLB PREFETCH REQUESTED:          0 ISSUED:          0 USEFUL:          0 USELESS:          0 LATE:          0
cpu0->cpu0_STLB AVERAGE MISS LATENCY: 42.48 cycles
cpu0->cpu0_L2C TOTAL        ACCESS:    2495446 HIT:    1459182 MISS:    1036264 MSHR_MERGE:      13750
cpu0->cpu0_L2C LOAD         ACCESS:    1769966 HIT:    1010796 MISS:     759170 MSHR_MERGE:        110
cpu0->cpu0_L2C RFO          ACCESS:      77765 HIT:      38930 MISS:      38835 MSHR_MERGE:         39
cpu0->cpu0_L2C PREFETCH     ACCESS:     291542 HIT:     111411 MISS:     180131 MSHR_MERGE:      13601
cpu0->cpu0_L2C WRITE        ACCESS:     270717 HIT:     269325 MISS:       1392 MSHR_MERGE:          0
cpu0->cpu0_L2C TRANSLATION  ACCESS:      85456 HIT:      28720 MISS:      56736 MSHR_MERGE:          0
cpu0->cpu0_L2C PREFETCH REQUESTED:      46649 ISSUED:      46510 USEFUL:      16037 USELESS:       7017 LATE:        149
cpu0->cpu0_L2C AVERAGE MISS LATENCY: 26.3 cycles
cpu0->cpu0_L1I TOTAL        ACCESS:    7847096 HIT:    5763510 MISS:    2083586 MSHR_MERGE:     796231
cpu0->cpu0_L1I LOAD         ACCESS:    7847096 HIT:    5763510 MISS:    2083586 MSHR_MERGE:     796231
cpu0->cpu0_L1I RFO          ACCESS:          0 HIT:          0 MISS:          0 MSHR_MERGE:          0
cpu0->cpu0_L1I PREFETCH     ACCESS:          0 HIT:          0 MISS:          0 MSHR_MERGE:          0
cpu0->cpu0_L1I WRITE        ACCESS:          0 HIT:          0 MISS:          0 MSHR_MERGE:          0
cpu0->cpu0_L1I TRANSLATION  ACCESS:          0 HIT:          0 MISS:          0 MSHR_MERGE:          0
cpu0->cpu0_L1I PREFETCH REQUESTED:          0 ISSUED:          0 USEFUL:          0 USELESS:          0 LATE:          0
cpu0->cpu0_L1I AVERAGE MISS LATENCY: 14.8 cycles
cpu0->cpu0_L1D TOTAL        ACCESS:   12086199 HIT:   10889272 MISS:    1196927 MSHR_MERGE:     306044
cpu0->cpu0_L1D LOAD         ACCESS:    6494383 HIT:    5846114 MISS:     648269 MSHR_MERGE:     165651
cpu0->cpu0_L1D RFO          ACCESS:          0 HIT:          0 MISS:          0 MSHR_MERGE:          0
cpu0->cpu0_L1D PREFETCH     ACCESS:     417138 HIT:     155180 MISS:     261958 MSHR_MERGE:      16923
cpu0->cpu0_L1D WRITE        ACCESS:    4966481 HIT:    4766973 MISS:     199508 MSHR_MERGE:     121734
cpu0->cpu0_L1D TRANSLATION  ACCESS:     208197 HIT:     121005 MISS:      87192 MSHR_MERGE:       1736
cpu0->cpu0_L1D PREFETCH REQUESTED:     418771 ISSUED:     417138 USEFUL:      99395 USELESS:     145621 LATE:       8866
cpu0->cpu0_L1D AVERAGE MISS LATENCY: 29.66 cycles
cpu0->cpu0_ITLB TOTAL        ACCESS:    6654812 HIT:    6162828 MISS:     491984 MSHR_MERGE:     305762
cpu0->cpu0_ITLB LOAD         ACCESS:    6654812 HIT:    6162828 MISS:     491984 MSHR_MERGE:     305762
cpu0->cpu0_ITLB RFO          ACCESS:          0 HIT:          0 MISS:          0 MSHR_MERGE:          0
cpu0->cpu0_ITLB PREFETCH     ACCESS:          0 HIT:          0 MISS:          0 MSHR_MERGE:          0
cpu0->cpu0_ITLB WRITE        ACCESS:          0 HIT:          0 MISS:          0 MSHR_MERGE:          0
cpu0->cpu0_ITLB TRANSLATION  ACCESS:          0 HIT:          0 MISS:          0 MSHR_MERGE:          0
cpu0->cpu0_ITLB PREFETCH REQUESTED:          0 ISSUED:          0 USEFUL:          0 USELESS:          0 LATE:          0
cpu0->cpu0_ITLB AVERAGE MISS LATENCY: 9.658 cycles
cpu0->cpu0_DTLB TOTAL        ACCESS:   11123694 HIT:   10246177 MISS:     877517 MSHR_MERGE:     222499
cpu0->cpu0_DTLB LOAD         ACCESS:   11123694 HIT:   10246177 MISS:     877517 MSHR_MERGE:     222499
cpu0->cpu0_DTLB RFO          ACCESS:          0 HIT:          0 MISS:          0 MSHR_MERGE:          0
cpu0->cpu0_DTLB PREFETCH     ACCESS:          0 HIT:          0 MISS:          0 MSHR_MERGE:          0
cpu0->cpu0_DTLB WRITE        ACCESS:          0 HIT:          0 MISS:          0 MSHR_MERGE:          0
cpu0->cpu0_DTLB TRANSLATION  ACCESS:          0 HIT:          0 MISS:          0 MSHR_MERGE:          0
cpu0->cpu0_DTLB PREFETCH REQUESTED:          0 ISSUED:          0 USEFUL:          0 USELESS:          0 LATE:          0
cpu0->cpu0_DTLB AVERAGE MISS LATENCY: 9.791 cycles
cpu0->LLC TOTAL        ACCESS:    1166506 HIT:    1048491 MISS:     118015 MSHR_MERGE:         20
cpu0->LLC LOAD         ACCESS:     759060 HIT:     723535 MISS:      35525 MSHR_MERGE:          0
cpu0->LLC RFO          ACCESS:      38796 HIT:      30088 MISS:       8708 MSHR_MERGE:          0
cpu0->LLC PREFETCH     ACCESS:     166530 HIT:     100406 MISS:      66124 MSHR_MERGE:         20
cpu0->LLC WRITE        ACCESS:     145384 HIT:     142402 MISS:       2982 MSHR_MERGE:          0
cpu0->LLC TRANSLATION  ACCESS:      56736 HIT:      52060 MISS:       4676 MSHR_MERGE:          0
cpu0->LLC PREFETCH REQUESTED:          0 ISSUED:          0 USEFUL:          0 USELESS:          0 LATE:          0
cpu0->LLC AVERAGE MISS LATENCY: 185.9 cycles

DRAM Statistics

Channel 0 RQ ROW_BUFFER_HIT:       3605
  ROW_BUFFER_MISS:     111403
  AVG DBUS CONGESTED CYCLE: 14.68
Channel 0 WQ ROW_BUFFER_HIT:      12652
  ROW_BUFFER_MISS:      44768
  FULL:          0
Channel 0 REFRESHES ISSUED:       2367

[ROI Statistics]
[System Configuration]
num_cpus 1
cpu_freq 4000
fetch_width 6
decode_width 6
dispatch_width 6
execute_width 6
lq_width 2
sq_width 2
retire_width 6
scheduler_size 128
branch_mispredict_penalty 15
rob_size 352
lq_size 128
sq_size 72
ifetch_buffer_size 64
decode_buffer_size 32
dispatch_buffer_size 32
register_file_size 288
decode_latency 1
dispatch_latency 1
schedule_latency 1
execute_latency 1
page_size 4096
block_size 64
core_0_itlb_set 16
core_0_itlb_way 4
core_0_itlb_rq_size 16
core_0_itlb_wq_size 16
core_0_itlb_pq_size 0
core_0_itlb_mshr_size 8
core_0_itlb_hit_latency 1
core_0_itlb_fill_latency 1
core_0_itlb_max_tag_check 2
core_0_itlb_max_fill 2
core_0_dtlb_set 16
core_0_dtlb_way 4
core_0_dtlb_rq_size 16
core_0_dtlb_wq_size 16
core_0_dtlb_pq_size 0
core_0_dtlb_mshr_size 8
core_0_dtlb_hit_latency 1
core_0_dtlb_fill_latency 1
core_0_dtlb_max_tag_check 2
core_0_dtlb_max_fill 2
core_0_stlb_set 128
core_0_stlb_way 12
core_0_stlb_rq_size 32
core_0_stlb_wq_size 32
core_0_stlb_pq_size 0
core_0_stlb_mshr_size 16
core_0_stlb_hit_latency 4
core_0_stlb_fill_latency 4
core_0_stlb_max_tag_check 1
core_0_stlb_max_fill 1
core_0_l1i_set 64
core_0_l1i_way 8
core_0_l1i_rq_size 64
core_0_l1i_wq_size 64
core_0_l1i_pq_size 32
core_0_l1i_mshr_size 8
core_0_l1i_hit_latency 2
core_0_l1i_fill_latency 2
core_0_l1i_max_tag_check 2
core_0_l1i_max_fill 2
core_0_l1d_set 64
core_0_l1d_way 12
core_0_l1d_rq_size 64
core_0_l1d_wq_size 64
core_0_l1d_pq_size 8
core_0_l1d_mshr_size 16
core_0_l1d_hit_latency 2
core_0_l1d_fill_latency 3
core_0_l1d_max_tag_check 2
core_0_l1d_max_fill 2
core_0_l2c_set 1024
core_0_l2c_way 8
core_0_l2c_rq_size 32
core_0_l2c_wq_size 32
core_0_l2c_pq_size 16
core_0_l2c_mshr_size 32
core_0_l2c_hit_latency 5
core_0_l2c_fill_latency 5
core_0_l2c_max_tag_check 1
core_0_l2c_max_fill 1
llc_set 2048
llc_way 16
llc_rq_size 32
llc_wq_size 32
llc_pq_size 32
llc_mshr_size 64
llc_hit_latency 10
llc_fill_latency 10
llc_max_tag_check 1
llc_max_fill 1
dram_channels 1
dram_ranks 1
dram_bankgroups 8
dram_banks 4
dram_rows 65536
dram_columns 1024
dram_channel_width 8
dram_rq_size 64
dram_wq_size 64
dram_size 17179869184
core_0_itlb_prefetcher no
core_0_dtlb_prefetcher no
core_0_stlb_prefetcher no
core_0_l1i_prefetcher next_line
core_0_l1d_prefetcher berti
core_0_l2c_prefetcher ip_stride
llc_prefetcher no
llc_replacement drrip

Core_0_instructions 50000001
Core_0_cycles 28400219
Core_0_IPC 1.76055
Core_0_branch_prediction_accuracy 98.2858
Core_0_branch_MPKI 3.07018
Core_0_average_ROB_occupancy_at_mispredict 107.193

Core_0_ITLB_total_access 6654812
Core_0_ITLB_total_hit 6162828
Core_0_ITLB_total_miss 491984
Core_0_ITLB_total_MPKI 9.83968
Core_0_ITLB_total_miss_rate 0.0739291
Core_0_ITLB_demand_access 6654812
Core_0_ITLB_demand_hit 6162828
Core_0_ITLB_demand_miss 491984
Core_0_ITLB_demand_MPKI 9.83968
Core_0_ITLB_demand_miss_rate 0.0739291
Core_0_ITLB_load_access 6654812
Core_0_ITLB_load_hit 6162828
Core_0_ITLB_load_miss 491984
Core_0_ITLB_load_MPKI 9.83968
Core_0_ITLB_load_miss_rate 0.0739291
Core_0_ITLB_rfo_access 0
Core_0_ITLB_rfo_hit 0
Core_0_ITLB_rfo_miss 0
Core_0_ITLB_rfo_MPKI 0
Core_0_ITLB_rfo_miss_rate 0
Core_0_ITLB_prefetch_access 0
Core_0_ITLB_prefetch_hit 0
Core_0_ITLB_prefetch_miss 0
Core_0_ITLB_prefetch_MPKI 0
Core_0_ITLB_prefetch_miss_rate 0
Core_0_ITLB_writeback_access 0
Core_0_ITLB_writeback_hit 0
Core_0_ITLB_writeback_miss 0
Core_0_ITLB_writeback_MPKI 0
Core_0_ITLB_writeback_miss_rate 0
Core_0_ITLB_prefetch_requested 0
Core_0_ITLB_prefetch_issued 0
Core_0_ITLB_prefetch_useful 0
Core_0_ITLB_prefetch_useless 0
Core_0_ITLB_prefetch_late 0
Core_0_ITLB_prefetch_accuracy 0
Core_0_ITLB_prefetch_coverage 0

Core_0_DTLB_total_access 11123694
Core_0_DTLB_total_hit 10246177
Core_0_DTLB_total_miss 877517
Core_0_DTLB_total_MPKI 17.5503
Core_0_DTLB_total_miss_rate 0.0788872
Core_0_DTLB_demand_access 11123694
Core_0_DTLB_demand_hit 10246177
Core_0_DTLB_demand_miss 877517
Core_0_DTLB_demand_MPKI 17.5503
Core_0_DTLB_demand_miss_rate 0.0788872
Core_0_DTLB_load_access 11123694
Core_0_DTLB_load_hit 10246177
Core_0_DTLB_load_miss 877517
Core_0_DTLB_load_MPKI 17.5503
Core_0_DTLB_load_miss_rate 0.0788872
Core_0_DTLB_rfo_access 0
Core_0_DTLB_rfo_hit 0
Core_0_DTLB_rfo_miss 0
Core_0_DTLB_rfo_MPKI 0
Core_0_DTLB_rfo_miss_rate 0
Core_0_DTLB_prefetch_access 0
Core_0_DTLB_prefetch_hit 0
Core_0_DTLB_prefetch_miss 0
Core_0_DTLB_prefetch_MPKI 0
Core_0_DTLB_prefetch_miss_rate 0
Core_0_DTLB_writeback_access 0
Core_0_DTLB_writeback_hit 0
Core_0_DTLB_writeback_miss 0
Core_0_DTLB_writeback_MPKI 0
Core_0_DTLB_writeback_miss_rate 0
Core_0_DTLB_prefetch_requested 0
Core_0_DTLB_prefetch_issued 0
Core_0_DTLB_prefetch_useful 0
Core_0_DTLB_prefetch_useless 0
Core_0_DTLB_prefetch_late 0
Core_0_DTLB_prefetch_accuracy 0
Core_0_DTLB_prefetch_coverage 0

Core_0_STLB_total_access 841240
Core_0_STLB_total_hit 749383
Core_0_STLB_total_miss 91857
Core_0_STLB_total_MPKI 1.83714
Core_0_STLB_total_miss_rate 0.109192
Core_0_STLB_demand_access 841240
Core_0_STLB_demand_hit 749383
Core_0_STLB_demand_miss 91857
Core_0_STLB_demand_MPKI 1.83714
Core_0_STLB_demand_miss_rate 0.109192
Core_0_STLB_load_access 841240
Core_0_STLB_load_hit 749383
Core_0_STLB_load_miss 91857
Core_0_STLB_load_MPKI 1.83714
Core_0_STLB_load_miss_rate 0.109192
Core_0_STLB_rfo_access 0
Core_0_STLB_rfo_hit 0
Core_0_STLB_rfo_miss 0
Core_0_STLB_rfo_MPKI 0
Core_0_STLB_rfo_miss_rate 0
Core_0_STLB_prefetch_access 0
Core_0_STLB_prefetch_hit 0
Core_0_STLB_prefetch_miss 0
Core_0_STLB_prefetch_MPKI 0
Core_0_STLB_prefetch_miss_rate 0
Core_0_STLB_writeback_access 0
Core_0_STLB_writeback_hit 0
Core_0_STLB_writeback_miss 0
Core_0_STLB_writeback_MPKI 0
Core_0_STLB_writeback_miss_rate 0
Core_0_STLB_prefetch_requested 0
Core_0_STLB_prefetch_issued 0
Core_0_STLB_prefetch_useful 0
Core_0_STLB_prefetch_useless 0
Core_0_STLB_prefetch_late 0
Core_0_STLB_prefetch_accuracy 0
Core_0_STLB_prefetch_coverage 0

Core_0_L1I_total_access 7847096
Core_0_L1I_total_hit 5763510
Core_0_L1I_total_miss 2083586
Core_0_L1I_total_MPKI 41.6717
Core_0_L1I_total_miss_rate 0.265523
Core_0_L1I_demand_access 7847096
Core_0_L1I_demand_hit 5763510
Core_0_L1I_demand_miss 2083586
Core_0_L1I_demand_MPKI 41.6717
Core_0_L1I_demand_miss_rate 0.265523
Core_0_L1I_load_access 7847096
Core_0_L1I_load_hit 5763510
Core_0_L1I_load_miss 2083586
Core_0_L1I_load_MPKI 41.6717
Core_0_L1I_load_miss_rate 0.265523
Core_0_L1I_rfo_access 0
Core_0_L1I_rfo_hit 0
Core_0_L1I_rfo_miss 0
Core_0_L1I_rfo_MPKI 0
Core_0_L1I_rfo_miss_rate 0
Core_0_L1I_prefetch_access 0
Core_0_L1I_prefetch_hit 0
Core_0_L1I_prefetch_miss 0
Core_0_L1I_prefetch_MPKI 0
Core_0_L1I_prefetch_miss_rate 0
Core_0_L1I_writeback_access 0
Core_0_L1I_writeback_hit 0
Core_0_L1I_writeback_miss 0
Core_0_L1I_writeback_MPKI 0
Core_0_L1I_writeback_miss_rate 0
Core_0_L1I_prefetch_requested 0
Core_0_L1I_prefetch_issued 0
Core_0_L1I_prefetch_useful 0
Core_0_L1I_prefetch_useless 0
Core_0_L1I_prefetch_late 0
Core_0_L1I_prefetch_accuracy 0
Core_0_L1I_prefetch_coverage 0

Core_0_L1D_total_access 11878002
Core_0_L1D_total_hit 10768267
Core_0_L1D_total_miss 1109735
Core_0_L1D_total_MPKI 22.1947
Core_0_L1D_total_miss_rate 0.0934277
Core_0_L1D_demand_access 6494383
Core_0_L1D_demand_hit 5846114
Core_0_L1D_demand_miss 648269
Core_0_L1D_demand_MPKI 12.9654
Core_0_L1D_demand_miss_rate 0.09982
Core_0_L1D_load_access 6494383
Core_0_L1D_load_hit 5846114
Core_0_L1D_load_miss 648269
Core_0_L1D_load_MPKI 12.9654
Core_0_L1D_load_miss_rate 0.09982
Core_0_L1D_rfo_access 0
Core_0_L1D_rfo_hit 0
Core_0_L1D_rfo_miss 0
Core_0_L1D_rfo_MPKI 0
Core_0_L1D_rfo_miss_rate 0
Core_0_L1D_prefetch_access 417138
Core_0_L1D_prefetch_hit 155180
Core_0_L1D_prefetch_miss 261958
Core_0_L1D_prefetch_MPKI 5.23916
Core_0_L1D_prefetch_miss_rate 0.627989
Core_0_L1D_writeback_access 4966481
Core_0_L1D_writeback_hit 4766973
Core_0_L1D_writeback_miss 199508
Core_0_L1D_writeback_MPKI 3.99016
Core_0_L1D_writeback_miss_rate 0.0401709
Core_0_L1D_prefetch_requested 418771
Core_0_L1D_prefetch_issued 417138
Core_0_L1D_prefetch_useful 99395
Core_0_L1D_prefetch_useless 145621
Core_0_L1D_prefetch_late 8866
Core_0_L1D_prefetch_accuracy 0.238278
Core_0_L1D_prefetch_coverage 0.132941

Core_0_L2C_total_access 2409990
Core_0_L2C_total_hit 1430462
Core_0_L2C_total_miss 979528
Core_0_L2C_total_MPKI 19.5906
Core_0_L2C_total_miss_rate 0.406445
Core_0_L2C_demand_access 1847731
Core_0_L2C_demand_hit 1049726
Core_0_L2C_demand_miss 798005
Core_0_L2C_demand_MPKI 15.9601
Core_0_L2C_demand_miss_rate 0.431884
Core_0_L2C_load_access 1769966
Core_0_L2C_load_hit 1010796
Core_0_L2C_load_miss 759170
Core_0_L2C_load_MPKI 15.1834
Core_0_L2C_load_miss_rate 0.428918
Core_0_L2C_rfo_access 77765
Core_0_L2C_rfo_hit 38930
Core_0_L2C_rfo_miss 38835
Core_0_L2C_rfo_MPKI 0.7767
Core_0_L2C_rfo_miss_rate 0.499389
Core_0_L2C_prefetch_access 291542
Core_0_L2C_prefetch_hit 111411
Core_0_L2C_prefetch_miss 180131
Core_0_L2C_prefetch_MPKI 3.60262
Core_0_L2C_prefetch_miss_rate 0.617856
Core_0_L2C_writeback_access 270717
Core_0_L2C_writeback_hit 269325
Core_0_L2C_writeback_miss 1392
Core_0_L2C_writeback_MPKI 0.02784
Core_0_L2C_writeback_miss_rate 0.0051419
Core_0_L2C_prefetch_requested 46649
Core_0_L2C_prefetch_issued 46510
Core_0_L2C_prefetch_useful 16037
Core_0_L2C_prefetch_useless 7017
Core_0_L2C_prefetch_late 149
Core_0_L2C_prefetch_accuracy 0.344808
Core_0_L2C_prefetch_coverage 0.0197005

Core_0_LLC_total_access 1109770
Core_0_LLC_total_hit 996431
Core_0_LLC_total_miss 113339
Core_0_LLC_total_MPKI 2.26678
Core_0_LLC_total_miss_rate 0.102128
Core_0_LLC_demand_access 797856
Core_0_LLC_demand_hit 753623
Core_0_LLC_demand_miss 44233
Core_0_LLC_demand_MPKI 0.88466
Core_0_LLC_demand_miss_rate 0.0554398
Core_0_LLC_load_access 759060
Core_0_LLC_load_hit 723535
Core_0_LLC_load_miss 35525
Core_0_LLC_load_MPKI 0.7105
Core_0_LLC_load_miss_rate 0.0468013
Core_0_LLC_rfo_access 38796
Core_0_LLC_rfo_hit 30088
Core_0_LLC_rfo_miss 8708
Core_0_LLC_rfo_MPKI 0.17416
Core_0_LLC_rfo_miss_rate 0.224456
Core_0_LLC_prefetch_access 166530
Core_0_LLC_prefetch_hit 100406
Core_0_LLC_prefetch_miss 66124
Core_0_LLC_prefetch_MPKI 1.32248
Core_0_LLC_prefetch_miss_rate 0.39707
Core_0_LLC_writeback_access 145384
Core_0_LLC_writeback_hit 142402
Core_0_LLC_writeback_miss 2982
Core_0_LLC_writeback_MPKI 0.05964
Core_0_LLC_writeback_miss_rate 0.0205112
Core_0_LLC_prefetch_requested 0
Core_0_LLC_prefetch_issued 0
Core_0_LLC_prefetch_useful 0
Core_0_LLC_prefetch_useless 0
Core_0_LLC_prefetch_late 0
Core_0_LLC_prefetch_accuracy 0
Core_0_LLC_prefetch_coverage 0

[DRAM Statistics]
Channel_0_RQ_row_buffer_hit 3605
Channel_0_RQ_row_buffer_miss 111403
Channel_0_WQ_row_buffer_hit 12652
Channel_0_WQ_row_buffer_miss 44768
Channel_0_WQ_full 0
Channel_0_dbus_congested 459797
DRAM_total_RQ_row_buffer_hit 3605
DRAM_total_RQ_row_buffer_miss 111403
DRAM_total_WQ_row_buffer_hit 12652
DRAM_total_WQ_row_buffer_miss 44768
DRAM_total_WQ_full 0
DRAM_total_dbus_congested 459797
DRAM_avg_congested_cycle 14.6791

======STLB miss causes ========
Core_0_STLB_miss_cause_breakdown
Core_0_STLB_cause_Demand_Data_miss 59486
Core_0_STLB_cause_Demand_Data_miss_rate 0.0707123
Core_0_STLB_cause_Demand_Instruction_miss 32371
Core_0_STLB_cause_Demand_Instruction_miss_rate 0.0384801
Core_0_STLB_cause_L1D_Prefetch_miss 0
Core_0_STLB_cause_L1D_Prefetch_miss_rate 0
Core_0_STLB_cause_L1I_Prefetch_miss 0
Core_0_STLB_cause_L1I_Prefetch_miss_rate 0
Core_0_STLB_cause_Other_miss 0
Core_0_STLB_cause_Other_miss_rate 0
Core_0_STLB_Demand_miss 91857
Core_0_STLB_Demand_miss_rate 0.109192
Core_0_STLB_L1D_Prefetch_miss 0
Core_0_STLB_L1D_Prefetch_miss_rate 0
Core_0_STLB_Other_miss 0
Core_0_STLB_Other_miss_rate 0
