[VMEM] WARNING: physical memory size is smaller than virtual memory size.

*** ChampSim Multicore Out-of-Order Simulator ***
Warmup Instructions: 20000000
Simulation Instructions: 50000000
Number of CPUs: 1
Page size: 4096
STLB ideal mode: l1pref
STLB ideal fill: on
Core 0: /data0/tzh/champsim_traces/QMM/srv_6_new.xz
 L1D Berti prefetcher
Off-chip DRAM Size: 16 GiB Channels: 1 Width: 64-bit Data Rate: 3205 MT/s
[BTB] WARNING: target of return is a lower address than the corresponding call. This is usually a problem with your trace.
[BTB] WARNING: target of return is a lower address than the corresponding call. This is usually a problem with your trace.
[BTB] WARNING: target of return is a lower address than the corresponding call. This is usually a problem with your trace.
[BTB] WARNING: target of return is a lower address than the corresponding call. This is usually a problem with your trace.
[BTB] WARNING: target of return is a lower address than the corresponding call. This is usually a problem with your trace.
[BTB] WARNING: target of return is a lower address than the corresponding call. This is usually a problem with your trace.
[BTB] WARNING: target of return is a lower address than the corresponding call. This is usually a problem with your trace.
[BTB] WARNING: target of return is a lower address than the corresponding call. This is usually a problem with your trace.
[BTB] WARNING: target of return is a lower address than the corresponding call. This is usually a problem with your trace.
[BTB] WARNING: target of return is a lower address than the corresponding call. This is usually a problem with your trace.
Warmup halting CPU 0 at instruction 20000003 cycle 4477955 for remainder of phase
Warmup finished CPU 0 instructions: 20000003 cycles: 4477955 cumulative IPC: 4.466 (Simulation time: 00 hr 01 min 02 sec)
Warmup complete CPU 0 instructions: 20000003 cycles: 4477955 cumulative IPC: 4.466 (Simulation time: 00 hr 01 min 02 sec)
*** Reached end of trace: (0, "/data0/tzh/champsim_traces/QMM/srv_6_new.xz")
*** Reached end of trace: (0, "/data0/tzh/champsim_traces/QMM/srv_6_new.xz")
Simulation finished CPU 0 instructions: 50000004 cycles: 26731996 cumulative IPC: 1.87 (Simulation time: 00 hr 05 min 13 sec)
Simulation complete CPU 0 instructions: 50000004 cycles: 26731996 cumulative IPC: 1.87 (Simulation time: 00 hr 05 min 13 sec)

ChampSim completed all CPUs

=== Simulation ===
CPU 0 runs /data0/tzh/champsim_traces/QMM/srv_6_new.xz

Region of Interest Statistics

CPU 0 cumulative IPC: 1.87 instructions: 50000004 cycles: 26731996
CPU 0 Branch Prediction Accuracy: 98.65% MPKI: 2.406 Average ROB Occupancy at Mispredict: 123.8
Branch type MPKI
BRANCH_DIRECT_JUMP: 0.1469
BRANCH_INDIRECT: 0.1652
BRANCH_CONDITIONAL: 1.486
BRANCH_DIRECT_CALL: 0.2703
BRANCH_INDIRECT_CALL: 0.0796
BRANCH_RETURN: 0.2579

cpu0->cpu0_STLB TOTAL        ACCESS:     820670 HIT:     732198 MISS:      88472 MSHR_MERGE:          0
cpu0->cpu0_STLB LOAD         ACCESS:     820670 HIT:     732198 MISS:      88472 MSHR_MERGE:          0
cpu0->cpu0_STLB RFO          ACCESS:          0 HIT:          0 MISS:          0 MSHR_MERGE:          0
cpu0->cpu0_STLB PREFETCH     ACCESS:          0 HIT:          0 MISS:          0 MSHR_MERGE:          0
cpu0->cpu0_STLB WRITE        ACCESS:          0 HIT:          0 MISS:          0 MSHR_MERGE:          0
cpu0->cpu0_STLB TRANSLATION  ACCESS:          0 HIT:          0 MISS:          0 MSHR_MERGE:          0
cpu0->cpu0_STLB PREFETCH REQUESTED:          0 ISSUED:          0 USEFUL:          0 USELESS:          0 LATE:          0
cpu0->cpu0_STLB AVERAGE MISS LATENCY: 42.29 cycles
cpu0->cpu0_L2C TOTAL        ACCESS:    2456025 HIT:    1472037 MISS:     983988 MSHR_MERGE:      15540
cpu0->cpu0_L2C LOAD         ACCESS:    1733175 HIT:    1023019 MISS:     710156 MSHR_MERGE:        124
cpu0->cpu0_L2C RFO          ACCESS:      77192 HIT:      39167 MISS:      38025 MSHR_MERGE:         28
cpu0->cpu0_L2C PREFETCH     ACCESS:     292611 HIT:     111677 MISS:     180934 MSHR_MERGE:      15388
cpu0->cpu0_L2C WRITE        ACCESS:     268595 HIT:     267666 MISS:        929 MSHR_MERGE:          0
cpu0->cpu0_L2C TRANSLATION  ACCESS:      84452 HIT:      30508 MISS:      53944 MSHR_MERGE:          0
cpu0->cpu0_L2C PREFETCH REQUESTED:      47182 ISSUED:      47171 USEFUL:      16066 USELESS:       7062 LATE:        150
cpu0->cpu0_L2C AVERAGE MISS LATENCY: 26.46 cycles
cpu0->cpu0_L1I TOTAL        ACCESS:    7887354 HIT:    5844158 MISS:    2043196 MSHR_MERGE:     789788
cpu0->cpu0_L1I LOAD         ACCESS:    7887354 HIT:    5844158 MISS:    2043196 MSHR_MERGE:     789788
cpu0->cpu0_L1I RFO          ACCESS:          0 HIT:          0 MISS:          0 MSHR_MERGE:          0
cpu0->cpu0_L1I PREFETCH     ACCESS:          0 HIT:          0 MISS:          0 MSHR_MERGE:          0
cpu0->cpu0_L1I WRITE        ACCESS:          0 HIT:          0 MISS:          0 MSHR_MERGE:          0
cpu0->cpu0_L1I TRANSLATION  ACCESS:          0 HIT:          0 MISS:          0 MSHR_MERGE:          0
cpu0->cpu0_L1I PREFETCH REQUESTED:          0 ISSUED:          0 USEFUL:          0 USELESS:          0 LATE:          0
cpu0->cpu0_L1I AVERAGE MISS LATENCY: 14.61 cycles
cpu0->cpu0_L1D TOTAL        ACCESS:   11999887 HIT:   10796896 MISS:    1202991 MSHR_MERGE:     316104
cpu0->cpu0_L1D LOAD         ACCESS:    6417926 HIT:    5767640 MISS:     650286 MSHR_MERGE:     170507
cpu0->cpu0_L1D RFO          ACCESS:          0 HIT:          0 MISS:          0 MSHR_MERGE:          0
cpu0->cpu0_L1D PREFETCH     ACCESS:     417220 HIT:     154268 MISS:     262952 MSHR_MERGE:      17506
cpu0->cpu0_L1D WRITE        ACCESS:    4962485 HIT:    4758901 MISS:     203584 MSHR_MERGE:     126374
cpu0->cpu0_L1D TRANSLATION  ACCESS:     202256 HIT:     116087 MISS:      86169 MSHR_MERGE:       1717
cpu0->cpu0_L1D PREFETCH REQUESTED:     419268 ISSUED:     417212 USEFUL:     101500 USELESS:     143910 LATE:       9657
cpu0->cpu0_L1D AVERAGE MISS LATENCY: 28.66 cycles
cpu0->cpu0_ITLB TOTAL        ACCESS:    6699111 HIT:    6203812 MISS:     495299 MSHR_MERGE:     307169
cpu0->cpu0_ITLB LOAD         ACCESS:    6699111 HIT:    6203812 MISS:     495299 MSHR_MERGE:     307169
cpu0->cpu0_ITLB RFO          ACCESS:          0 HIT:          0 MISS:          0 MSHR_MERGE:          0
cpu0->cpu0_ITLB PREFETCH     ACCESS:          0 HIT:          0 MISS:          0 MSHR_MERGE:          0
cpu0->cpu0_ITLB WRITE        ACCESS:          0 HIT:          0 MISS:          0 MSHR_MERGE:          0
cpu0->cpu0_ITLB TRANSLATION  ACCESS:          0 HIT:          0 MISS:          0 MSHR_MERGE:          0
cpu0->cpu0_ITLB PREFETCH REQUESTED:          0 ISSUED:          0 USEFUL:          0 USELESS:          0 LATE:          0
cpu0->cpu0_ITLB AVERAGE MISS LATENCY: 9.754 cycles
cpu0->cpu0_DTLB TOTAL        ACCESS:   11025164 HIT:   10170492 MISS:     854672 MSHR_MERGE:     222132
cpu0->cpu0_DTLB LOAD         ACCESS:   11025164 HIT:   10170492 MISS:     854672 MSHR_MERGE:     222132
cpu0->cpu0_DTLB RFO          ACCESS:          0 HIT:          0 MISS:          0 MSHR_MERGE:          0
cpu0->cpu0_DTLB PREFETCH     ACCESS:          0 HIT:          0 MISS:          0 MSHR_MERGE:          0
cpu0->cpu0_DTLB WRITE        ACCESS:          0 HIT:          0 MISS:          0 MSHR_MERGE:          0
cpu0->cpu0_DTLB TRANSLATION  ACCESS:          0 HIT:          0 MISS:          0 MSHR_MERGE:          0
cpu0->cpu0_DTLB PREFETCH REQUESTED:          0 ISSUED:          0 USEFUL:          0 USELESS:          0 LATE:          0
cpu0->cpu0_DTLB AVERAGE MISS LATENCY: 9.657 cycles
cpu0->LLC TOTAL        ACCESS:    1110879 HIT:    1000556 MISS:     110323 MSHR_MERGE:          5
cpu0->LLC LOAD         ACCESS:     710032 HIT:     676249 MISS:      33783 MSHR_MERGE:          0
cpu0->LLC RFO          ACCESS:      37997 HIT:      29323 MISS:       8674 MSHR_MERGE:          0
cpu0->LLC PREFETCH     ACCESS:     165546 HIT:     104389 MISS:      61157 MSHR_MERGE:          5
cpu0->LLC WRITE        ACCESS:     143360 HIT:     140740 MISS:       2620 MSHR_MERGE:          0
cpu0->LLC TRANSLATION  ACCESS:      53944 HIT:      49855 MISS:       4089 MSHR_MERGE:          0
cpu0->LLC PREFETCH REQUESTED:          0 ISSUED:          0 USEFUL:          0 USELESS:          0 LATE:          0
cpu0->LLC AVERAGE MISS LATENCY: 186.6 cycles

DRAM Statistics

Channel 0 RQ ROW_BUFFER_HIT:       4045
  ROW_BUFFER_MISS:     103647
  AVG DBUS CONGESTED CYCLE: 14.24
Channel 0 WQ ROW_BUFFER_HIT:      11727
  ROW_BUFFER_MISS:      44325
  FULL:          0
Channel 0 REFRESHES ISSUED:       2227

[ROI Statistics]
[System Configuration]
num_cpus 1
cpu_freq 4000
fetch_width 6
decode_width 6
dispatch_width 6
execute_width 6
lq_width 2
sq_width 2
retire_width 6
scheduler_size 128
branch_mispredict_penalty 15
rob_size 352
lq_size 128
sq_size 72
ifetch_buffer_size 64
decode_buffer_size 32
dispatch_buffer_size 32
register_file_size 288
decode_latency 1
dispatch_latency 1
schedule_latency 1
execute_latency 1
page_size 4096
block_size 64
core_0_itlb_set 16
core_0_itlb_way 4
core_0_itlb_rq_size 16
core_0_itlb_wq_size 16
core_0_itlb_pq_size 0
core_0_itlb_mshr_size 8
core_0_itlb_hit_latency 1
core_0_itlb_fill_latency 1
core_0_itlb_max_tag_check 2
core_0_itlb_max_fill 2
core_0_dtlb_set 16
core_0_dtlb_way 4
core_0_dtlb_rq_size 16
core_0_dtlb_wq_size 16
core_0_dtlb_pq_size 0
core_0_dtlb_mshr_size 8
core_0_dtlb_hit_latency 1
core_0_dtlb_fill_latency 1
core_0_dtlb_max_tag_check 2
core_0_dtlb_max_fill 2
core_0_stlb_set 128
core_0_stlb_way 12
core_0_stlb_rq_size 32
core_0_stlb_wq_size 32
core_0_stlb_pq_size 0
core_0_stlb_mshr_size 16
core_0_stlb_hit_latency 4
core_0_stlb_fill_latency 4
core_0_stlb_max_tag_check 1
core_0_stlb_max_fill 1
core_0_l1i_set 64
core_0_l1i_way 8
core_0_l1i_rq_size 64
core_0_l1i_wq_size 64
core_0_l1i_pq_size 32
core_0_l1i_mshr_size 8
core_0_l1i_hit_latency 2
core_0_l1i_fill_latency 2
core_0_l1i_max_tag_check 2
core_0_l1i_max_fill 2
core_0_l1d_set 64
core_0_l1d_way 12
core_0_l1d_rq_size 64
core_0_l1d_wq_size 64
core_0_l1d_pq_size 8
core_0_l1d_mshr_size 16
core_0_l1d_hit_latency 2
core_0_l1d_fill_latency 3
core_0_l1d_max_tag_check 2
core_0_l1d_max_fill 2
core_0_l2c_set 1024
core_0_l2c_way 8
core_0_l2c_rq_size 32
core_0_l2c_wq_size 32
core_0_l2c_pq_size 16
core_0_l2c_mshr_size 32
core_0_l2c_hit_latency 5
core_0_l2c_fill_latency 5
core_0_l2c_max_tag_check 1
core_0_l2c_max_fill 1
llc_set 2048
llc_way 16
llc_rq_size 32
llc_wq_size 32
llc_pq_size 32
llc_mshr_size 64
llc_hit_latency 10
llc_fill_latency 10
llc_max_tag_check 1
llc_max_fill 1
dram_channels 1
dram_ranks 1
dram_bankgroups 8
dram_banks 4
dram_rows 65536
dram_columns 1024
dram_channel_width 8
dram_rq_size 64
dram_wq_size 64
dram_size 17179869184
core_0_itlb_prefetcher no
core_0_dtlb_prefetcher no
core_0_stlb_prefetcher no
core_0_l1i_prefetcher next_line
core_0_l1d_prefetcher berti
core_0_l2c_prefetcher ip_stride
llc_prefetcher no
llc_replacement drrip

Core_0_instructions 50000004
Core_0_cycles 26731996
Core_0_IPC 1.87042
Core_0_branch_prediction_accuracy 98.6529
Core_0_branch_MPKI 2.40596
Core_0_average_ROB_occupancy_at_mispredict 123.838

Core_0_ITLB_total_access 6699111
Core_0_ITLB_total_hit 6203812
Core_0_ITLB_total_miss 495299
Core_0_ITLB_total_MPKI 9.90598
Core_0_ITLB_total_miss_rate 0.073935
Core_0_ITLB_demand_access 6699111
Core_0_ITLB_demand_hit 6203812
Core_0_ITLB_demand_miss 495299
Core_0_ITLB_demand_MPKI 9.90598
Core_0_ITLB_demand_miss_rate 0.073935
Core_0_ITLB_load_access 6699111
Core_0_ITLB_load_hit 6203812
Core_0_ITLB_load_miss 495299
Core_0_ITLB_load_MPKI 9.90598
Core_0_ITLB_load_miss_rate 0.073935
Core_0_ITLB_rfo_access 0
Core_0_ITLB_rfo_hit 0
Core_0_ITLB_rfo_miss 0
Core_0_ITLB_rfo_MPKI 0
Core_0_ITLB_rfo_miss_rate 0
Core_0_ITLB_prefetch_access 0
Core_0_ITLB_prefetch_hit 0
Core_0_ITLB_prefetch_miss 0
Core_0_ITLB_prefetch_MPKI 0
Core_0_ITLB_prefetch_miss_rate 0
Core_0_ITLB_writeback_access 0
Core_0_ITLB_writeback_hit 0
Core_0_ITLB_writeback_miss 0
Core_0_ITLB_writeback_MPKI 0
Core_0_ITLB_writeback_miss_rate 0
Core_0_ITLB_prefetch_requested 0
Core_0_ITLB_prefetch_issued 0
Core_0_ITLB_prefetch_useful 0
Core_0_ITLB_prefetch_useless 0
Core_0_ITLB_prefetch_late 0
Core_0_ITLB_prefetch_accuracy 0
Core_0_ITLB_prefetch_coverage 0

Core_0_DTLB_total_access 11025164
Core_0_DTLB_total_hit 10170492
Core_0_DTLB_total_miss 854672
Core_0_DTLB_total_MPKI 17.0934
Core_0_DTLB_total_miss_rate 0.0775201
Core_0_DTLB_demand_access 11025164
Core_0_DTLB_demand_hit 10170492
Core_0_DTLB_demand_miss 854672
Core_0_DTLB_demand_MPKI 17.0934
Core_0_DTLB_demand_miss_rate 0.0775201
Core_0_DTLB_load_access 11025164
Core_0_DTLB_load_hit 10170492
Core_0_DTLB_load_miss 854672
Core_0_DTLB_load_MPKI 17.0934
Core_0_DTLB_load_miss_rate 0.0775201
Core_0_DTLB_rfo_access 0
Core_0_DTLB_rfo_hit 0
Core_0_DTLB_rfo_miss 0
Core_0_DTLB_rfo_MPKI 0
Core_0_DTLB_rfo_miss_rate 0
Core_0_DTLB_prefetch_access 0
Core_0_DTLB_prefetch_hit 0
Core_0_DTLB_prefetch_miss 0
Core_0_DTLB_prefetch_MPKI 0
Core_0_DTLB_prefetch_miss_rate 0
Core_0_DTLB_writeback_access 0
Core_0_DTLB_writeback_hit 0
Core_0_DTLB_writeback_miss 0
Core_0_DTLB_writeback_MPKI 0
Core_0_DTLB_writeback_miss_rate 0
Core_0_DTLB_prefetch_requested 0
Core_0_DTLB_prefetch_issued 0
Core_0_DTLB_prefetch_useful 0
Core_0_DTLB_prefetch_useless 0
Core_0_DTLB_prefetch_late 0
Core_0_DTLB_prefetch_accuracy 0
Core_0_DTLB_prefetch_coverage 0

Core_0_STLB_total_access 820670
Core_0_STLB_total_hit 732198
Core_0_STLB_total_miss 88472
Core_0_STLB_total_MPKI 1.76944
Core_0_STLB_total_miss_rate 0.107805
Core_0_STLB_demand_access 820670
Core_0_STLB_demand_hit 732198
Core_0_STLB_demand_miss 88472
Core_0_STLB_demand_MPKI 1.76944
Core_0_STLB_demand_miss_rate 0.107805
Core_0_STLB_load_access 820670
Core_0_STLB_load_hit 732198
Core_0_STLB_load_miss 88472
Core_0_STLB_load_MPKI 1.76944
Core_0_STLB_load_miss_rate 0.107805
Core_0_STLB_rfo_access 0
Core_0_STLB_rfo_hit 0
Core_0_STLB_rfo_miss 0
Core_0_STLB_rfo_MPKI 0
Core_0_STLB_rfo_miss_rate 0
Core_0_STLB_prefetch_access 0
Core_0_STLB_prefetch_hit 0
Core_0_STLB_prefetch_miss 0
Core_0_STLB_prefetch_MPKI 0
Core_0_STLB_prefetch_miss_rate 0
Core_0_STLB_writeback_access 0
Core_0_STLB_writeback_hit 0
Core_0_STLB_writeback_miss 0
Core_0_STLB_writeback_MPKI 0
Core_0_STLB_writeback_miss_rate 0
Core_0_STLB_prefetch_requested 0
Core_0_STLB_prefetch_issued 0
Core_0_STLB_prefetch_useful 0
Core_0_STLB_prefetch_useless 0
Core_0_STLB_prefetch_late 0
Core_0_STLB_prefetch_accuracy 0
Core_0_STLB_prefetch_coverage 0

Core_0_L1I_total_access 7887354
Core_0_L1I_total_hit 5844158
Core_0_L1I_total_miss 2043196
Core_0_L1I_total_MPKI 40.8639
Core_0_L1I_total_miss_rate 0.259047
Core_0_L1I_demand_access 7887354
Core_0_L1I_demand_hit 5844158
Core_0_L1I_demand_miss 2043196
Core_0_L1I_demand_MPKI 40.8639
Core_0_L1I_demand_miss_rate 0.259047
Core_0_L1I_load_access 7887354
Core_0_L1I_load_hit 5844158
Core_0_L1I_load_miss 2043196
Core_0_L1I_load_MPKI 40.8639
Core_0_L1I_load_miss_rate 0.259047
Core_0_L1I_rfo_access 0
Core_0_L1I_rfo_hit 0
Core_0_L1I_rfo_miss 0
Core_0_L1I_rfo_MPKI 0
Core_0_L1I_rfo_miss_rate 0
Core_0_L1I_prefetch_access 0
Core_0_L1I_prefetch_hit 0
Core_0_L1I_prefetch_miss 0
Core_0_L1I_prefetch_MPKI 0
Core_0_L1I_prefetch_miss_rate 0
Core_0_L1I_writeback_access 0
Core_0_L1I_writeback_hit 0
Core_0_L1I_writeback_miss 0
Core_0_L1I_writeback_MPKI 0
Core_0_L1I_writeback_miss_rate 0
Core_0_L1I_prefetch_requested 0
Core_0_L1I_prefetch_issued 0
Core_0_L1I_prefetch_useful 0
Core_0_L1I_prefetch_useless 0
Core_0_L1I_prefetch_late 0
Core_0_L1I_prefetch_accuracy 0
Core_0_L1I_prefetch_coverage 0

Core_0_L1D_total_access 11797631
Core_0_L1D_total_hit 10680809
Core_0_L1D_total_miss 1116822
Core_0_L1D_total_MPKI 22.3364
Core_0_L1D_total_miss_rate 0.0946649
Core_0_L1D_demand_access 6417926
Core_0_L1D_demand_hit 5767640
Core_0_L1D_demand_miss 650286
Core_0_L1D_demand_MPKI 13.0057
Core_0_L1D_demand_miss_rate 0.101323
Core_0_L1D_load_access 6417926
Core_0_L1D_load_hit 5767640
Core_0_L1D_load_miss 650286
Core_0_L1D_load_MPKI 13.0057
Core_0_L1D_load_miss_rate 0.101323
Core_0_L1D_rfo_access 0
Core_0_L1D_rfo_hit 0
Core_0_L1D_rfo_miss 0
Core_0_L1D_rfo_MPKI 0
Core_0_L1D_rfo_miss_rate 0
Core_0_L1D_prefetch_access 417220
Core_0_L1D_prefetch_hit 154268
Core_0_L1D_prefetch_miss 262952
Core_0_L1D_prefetch_MPKI 5.25904
Core_0_L1D_prefetch_miss_rate 0.630248
Core_0_L1D_writeback_access 4962485
Core_0_L1D_writeback_hit 4758901
Core_0_L1D_writeback_miss 203584
Core_0_L1D_writeback_MPKI 4.07168
Core_0_L1D_writeback_miss_rate 0.0410246
Core_0_L1D_prefetch_requested 419268
Core_0_L1D_prefetch_issued 417212
Core_0_L1D_prefetch_useful 101500
Core_0_L1D_prefetch_useless 143910
Core_0_L1D_prefetch_late 9657
Core_0_L1D_prefetch_accuracy 0.243282
Core_0_L1D_prefetch_coverage 0.135012

Core_0_L2C_total_access 2371573
Core_0_L2C_total_hit 1441529
Core_0_L2C_total_miss 930044
Core_0_L2C_total_MPKI 18.6009
Core_0_L2C_total_miss_rate 0.392163
Core_0_L2C_demand_access 1810367
Core_0_L2C_demand_hit 1062186
Core_0_L2C_demand_miss 748181
Core_0_L2C_demand_MPKI 14.9636
Core_0_L2C_demand_miss_rate 0.413276
Core_0_L2C_load_access 1733175
Core_0_L2C_load_hit 1023019
Core_0_L2C_load_miss 710156
Core_0_L2C_load_MPKI 14.2031
Core_0_L2C_load_miss_rate 0.409743
Core_0_L2C_rfo_access 77192
Core_0_L2C_rfo_hit 39167
Core_0_L2C_rfo_miss 38025
Core_0_L2C_rfo_MPKI 0.7605
Core_0_L2C_rfo_miss_rate 0.492603
Core_0_L2C_prefetch_access 292611
Core_0_L2C_prefetch_hit 111677
Core_0_L2C_prefetch_miss 180934
Core_0_L2C_prefetch_MPKI 3.61868
Core_0_L2C_prefetch_miss_rate 0.618343
Core_0_L2C_writeback_access 268595
Core_0_L2C_writeback_hit 267666
Core_0_L2C_writeback_miss 929
Core_0_L2C_writeback_MPKI 0.01858
Core_0_L2C_writeback_miss_rate 0.00345874
Core_0_L2C_prefetch_requested 47182
Core_0_L2C_prefetch_issued 47171
Core_0_L2C_prefetch_useful 16066
Core_0_L2C_prefetch_useless 7062
Core_0_L2C_prefetch_late 150
Core_0_L2C_prefetch_accuracy 0.340591
Core_0_L2C_prefetch_coverage 0.021022

Core_0_LLC_total_access 1056935
Core_0_LLC_total_hit 950701
Core_0_LLC_total_miss 106234
Core_0_LLC_total_MPKI 2.12468
Core_0_LLC_total_miss_rate 0.100511
Core_0_LLC_demand_access 748029
Core_0_LLC_demand_hit 705572
Core_0_LLC_demand_miss 42457
Core_0_LLC_demand_MPKI 0.84914
Core_0_LLC_demand_miss_rate 0.0567585
Core_0_LLC_load_access 710032
Core_0_LLC_load_hit 676249
Core_0_LLC_load_miss 33783
Core_0_LLC_load_MPKI 0.67566
Core_0_LLC_load_miss_rate 0.0475795
Core_0_LLC_rfo_access 37997
Core_0_LLC_rfo_hit 29323
Core_0_LLC_rfo_miss 8674
Core_0_LLC_rfo_MPKI 0.17348
Core_0_LLC_rfo_miss_rate 0.228281
Core_0_LLC_prefetch_access 165546
Core_0_LLC_prefetch_hit 104389
Core_0_LLC_prefetch_miss 61157
Core_0_LLC_prefetch_MPKI 1.22314
Core_0_LLC_prefetch_miss_rate 0.369426
Core_0_LLC_writeback_access 143360
Core_0_LLC_writeback_hit 140740
Core_0_LLC_writeback_miss 2620
Core_0_LLC_writeback_MPKI 0.0524
Core_0_LLC_writeback_miss_rate 0.0182757
Core_0_LLC_prefetch_requested 0
Core_0_LLC_prefetch_issued 0
Core_0_LLC_prefetch_useful 0
Core_0_LLC_prefetch_useless 0
Core_0_LLC_prefetch_late 0
Core_0_LLC_prefetch_accuracy 0
Core_0_LLC_prefetch_coverage 0

[DRAM Statistics]
Channel_0_RQ_row_buffer_hit 4045
Channel_0_RQ_row_buffer_miss 103647
Channel_0_WQ_row_buffer_hit 11727
Channel_0_WQ_row_buffer_miss 44325
Channel_0_WQ_full 0
Channel_0_dbus_congested 436606
DRAM_total_RQ_row_buffer_hit 4045
DRAM_total_RQ_row_buffer_miss 103647
DRAM_total_WQ_row_buffer_hit 11727
DRAM_total_WQ_row_buffer_miss 44325
DRAM_total_WQ_full 0
DRAM_total_dbus_congested 436606
DRAM_avg_congested_cycle 14.2411

======STLB miss causes ========
Core_0_STLB_miss_cause_breakdown
Core_0_STLB_cause_Demand_Data_miss 56280
Core_0_STLB_cause_Demand_Data_miss_rate 0.0685781
Core_0_STLB_cause_Demand_Instruction_miss 32192
Core_0_STLB_cause_Demand_Instruction_miss_rate 0.0392265
Core_0_STLB_cause_L1D_Prefetch_miss 0
Core_0_STLB_cause_L1D_Prefetch_miss_rate 0
Core_0_STLB_cause_L1I_Prefetch_miss 0
Core_0_STLB_cause_L1I_Prefetch_miss_rate 0
Core_0_STLB_cause_Other_miss 0
Core_0_STLB_cause_Other_miss_rate 0
Core_0_STLB_Demand_miss 88472
Core_0_STLB_Demand_miss_rate 0.107805
Core_0_STLB_L1D_Prefetch_miss 0
Core_0_STLB_L1D_Prefetch_miss_rate 0
Core_0_STLB_Other_miss 0
Core_0_STLB_Other_miss_rate 0
