[VMEM] WARNING: physical memory size is smaller than virtual memory size.

*** ChampSim Multicore Out-of-Order Simulator ***
Warmup Instructions: 20000000
Simulation Instructions: 50000000
Number of CPUs: 1
Page size: 4096
STLB ideal mode: l1pref
STLB ideal fill: on
Core 0: /data0/tzh/champsim_traces/QMM/srv_2_new.xz
 L1D Berti prefetcher
Off-chip DRAM Size: 16 GiB Channels: 1 Width: 64-bit Data Rate: 3205 MT/s
[BTB] WARNING: target of return is a lower address than the corresponding call. This is usually a problem with your trace.
[BTB] WARNING: target of return is a lower address than the corresponding call. This is usually a problem with your trace.
[BTB] WARNING: target of return is a lower address than the corresponding call. This is usually a problem with your trace.
[BTB] WARNING: target of return is a lower address than the corresponding call. This is usually a problem with your trace.
[BTB] WARNING: target of return is a lower address than the corresponding call. This is usually a problem with your trace.
[BTB] WARNING: target of return is a lower address than the corresponding call. This is usually a problem with your trace.
[BTB] WARNING: target of return is a lower address than the corresponding call. This is usually a problem with your trace.
[BTB] WARNING: target of return is a lower address than the corresponding call. This is usually a problem with your trace.
[BTB] WARNING: target of return is a lower address than the corresponding call. This is usually a problem with your trace.
[BTB] WARNING: target of return is a lower address than the corresponding call. This is usually a problem with your trace.
Warmup halting CPU 0 at instruction 20000001 cycle 4485320 for remainder of phase
Warmup finished CPU 0 instructions: 20000001 cycles: 4485320 cumulative IPC: 4.459 (Simulation time: 00 hr 01 min 07 sec)
Warmup complete CPU 0 instructions: 20000001 cycles: 4485320 cumulative IPC: 4.459 (Simulation time: 00 hr 01 min 07 sec)
*** Reached end of trace: (0, "/data0/tzh/champsim_traces/QMM/srv_2_new.xz")
*** Reached end of trace: (0, "/data0/tzh/champsim_traces/QMM/srv_2_new.xz")
Simulation finished CPU 0 instructions: 50000002 cycles: 28324784 cumulative IPC: 1.765 (Simulation time: 00 hr 05 min 34 sec)
Simulation complete CPU 0 instructions: 50000002 cycles: 28324784 cumulative IPC: 1.765 (Simulation time: 00 hr 05 min 34 sec)

ChampSim completed all CPUs

=== Simulation ===
CPU 0 runs /data0/tzh/champsim_traces/QMM/srv_2_new.xz

Region of Interest Statistics

CPU 0 cumulative IPC: 1.765 instructions: 50000002 cycles: 28324784
CPU 0 Branch Prediction Accuracy: 98.44% MPKI: 2.79 Average ROB Occupancy at Mispredict: 113.8
Branch type MPKI
BRANCH_DIRECT_JUMP: 0.1725
BRANCH_INDIRECT: 0.1659
BRANCH_CONDITIONAL: 1.718
BRANCH_DIRECT_CALL: 0.3372
BRANCH_INDIRECT_CALL: 0.08928
BRANCH_RETURN: 0.3073

cpu0->cpu0_STLB TOTAL        ACCESS:     841408 HIT:     754919 MISS:      86489 MSHR_MERGE:          0
cpu0->cpu0_STLB LOAD         ACCESS:     841408 HIT:     754919 MISS:      86489 MSHR_MERGE:          0
cpu0->cpu0_STLB RFO          ACCESS:          0 HIT:          0 MISS:          0 MSHR_MERGE:          0
cpu0->cpu0_STLB PREFETCH     ACCESS:          0 HIT:          0 MISS:          0 MSHR_MERGE:          0
cpu0->cpu0_STLB WRITE        ACCESS:          0 HIT:          0 MISS:          0 MSHR_MERGE:          0
cpu0->cpu0_STLB TRANSLATION  ACCESS:          0 HIT:          0 MISS:          0 MSHR_MERGE:          0
cpu0->cpu0_STLB PREFETCH REQUESTED:          0 ISSUED:          0 USEFUL:          0 USELESS:          0 LATE:          0
cpu0->cpu0_STLB AVERAGE MISS LATENCY: 44.09 cycles
cpu0->cpu0_L2C TOTAL        ACCESS:    2501579 HIT:    1477625 MISS:    1023954 MSHR_MERGE:      14388
cpu0->cpu0_L2C LOAD         ACCESS:    1773921 HIT:    1026561 MISS:     747360 MSHR_MERGE:        114
cpu0->cpu0_L2C RFO          ACCESS:      78570 HIT:      40227 MISS:      38343 MSHR_MERGE:         39
cpu0->cpu0_L2C PREFETCH     ACCESS:     296323 HIT:     112884 MISS:     183439 MSHR_MERGE:      14235
cpu0->cpu0_L2C WRITE        ACCESS:     270844 HIT:     270056 MISS:        788 MSHR_MERGE:          0
cpu0->cpu0_L2C TRANSLATION  ACCESS:      81921 HIT:      27897 MISS:      54024 MSHR_MERGE:          0
cpu0->cpu0_L2C PREFETCH REQUESTED:      46858 ISSUED:      46791 USEFUL:      15694 USELESS:       6761 LATE:        152
cpu0->cpu0_L2C AVERAGE MISS LATENCY: 27.5 cycles
cpu0->cpu0_L1I TOTAL        ACCESS:    7861597 HIT:    5764786 MISS:    2096811 MSHR_MERGE:     806512
cpu0->cpu0_L1I LOAD         ACCESS:    7861597 HIT:    5764786 MISS:    2096811 MSHR_MERGE:     806512
cpu0->cpu0_L1I RFO          ACCESS:          0 HIT:          0 MISS:          0 MSHR_MERGE:          0
cpu0->cpu0_L1I PREFETCH     ACCESS:          0 HIT:          0 MISS:          0 MSHR_MERGE:          0
cpu0->cpu0_L1I WRITE        ACCESS:          0 HIT:          0 MISS:          0 MSHR_MERGE:          0
cpu0->cpu0_L1I TRANSLATION  ACCESS:          0 HIT:          0 MISS:          0 MSHR_MERGE:          0
cpu0->cpu0_L1I PREFETCH REQUESTED:          0 ISSUED:          0 USEFUL:          0 USELESS:          0 LATE:          0
cpu0->cpu0_L1I AVERAGE MISS LATENCY: 15.13 cycles
cpu0->cpu0_L1D TOTAL        ACCESS:   12047799 HIT:   10842327 MISS:    1205472 MSHR_MERGE:     311812
cpu0->cpu0_L1D LOAD         ACCESS:    6473754 HIT:    5822095 MISS:     651659 MSHR_MERGE:     168029
cpu0->cpu0_L1D RFO          ACCESS:          0 HIT:          0 MISS:          0 MSHR_MERGE:          0
cpu0->cpu0_L1D PREFETCH     ACCESS:     422081 HIT:     155013 MISS:     267068 MSHR_MERGE:      17536
cpu0->cpu0_L1D WRITE        ACCESS:    4955489 HIT:    4752364 MISS:     203125 MSHR_MERGE:     124548
cpu0->cpu0_L1D TRANSLATION  ACCESS:     196475 HIT:     112855 MISS:      83620 MSHR_MERGE:       1699
cpu0->cpu0_L1D PREFETCH REQUESTED:     423765 ISSUED:     422078 USEFUL:     102574 USELESS:     146933 LATE:       9503
cpu0->cpu0_L1D AVERAGE MISS LATENCY: 30 cycles
cpu0->cpu0_ITLB TOTAL        ACCESS:    6667666 HIT:    6177081 MISS:     490585 MSHR_MERGE:     304234
cpu0->cpu0_ITLB LOAD         ACCESS:    6667666 HIT:    6177081 MISS:     490585 MSHR_MERGE:     304234
cpu0->cpu0_ITLB RFO          ACCESS:          0 HIT:          0 MISS:          0 MSHR_MERGE:          0
cpu0->cpu0_ITLB PREFETCH     ACCESS:          0 HIT:          0 MISS:          0 MSHR_MERGE:          0
cpu0->cpu0_ITLB WRITE        ACCESS:          0 HIT:          0 MISS:          0 MSHR_MERGE:          0
cpu0->cpu0_ITLB TRANSLATION  ACCESS:          0 HIT:          0 MISS:          0 MSHR_MERGE:          0
cpu0->cpu0_ITLB PREFETCH REQUESTED:          0 ISSUED:          0 USEFUL:          0 USELESS:          0 LATE:          0
cpu0->cpu0_ITLB AVERAGE MISS LATENCY: 9.769 cycles
cpu0->cpu0_DTLB TOTAL        ACCESS:   11087774 HIT:   10210616 MISS:     877158 MSHR_MERGE:     222101
cpu0->cpu0_DTLB LOAD         ACCESS:   11087774 HIT:   10210616 MISS:     877158 MSHR_MERGE:     222101
cpu0->cpu0_DTLB RFO          ACCESS:          0 HIT:          0 MISS:          0 MSHR_MERGE:          0
cpu0->cpu0_DTLB PREFETCH     ACCESS:          0 HIT:          0 MISS:          0 MSHR_MERGE:          0
cpu0->cpu0_DTLB WRITE        ACCESS:          0 HIT:          0 MISS:          0 MSHR_MERGE:          0
cpu0->cpu0_DTLB TRANSLATION  ACCESS:          0 HIT:          0 MISS:          0 MSHR_MERGE:          0
cpu0->cpu0_DTLB PREFETCH REQUESTED:          0 ISSUED:          0 USEFUL:          0 USELESS:          0 LATE:          0
cpu0->cpu0_DTLB AVERAGE MISS LATENCY: 9.613 cycles
cpu0->LLC TOTAL        ACCESS:    1153615 HIT:    1033953 MISS:     119662 MSHR_MERGE:         14
cpu0->LLC LOAD         ACCESS:     747242 HIT:     707971 MISS:      39271 MSHR_MERGE:          0
cpu0->LLC RFO          ACCESS:      38304 HIT:      29506 MISS:       8798 MSHR_MERGE:          0
cpu0->LLC PREFETCH     ACCESS:     169203 HIT:     105014 MISS:      64189 MSHR_MERGE:         14
cpu0->LLC WRITE        ACCESS:     144842 HIT:     142115 MISS:       2727 MSHR_MERGE:          0
cpu0->LLC TRANSLATION  ACCESS:      54024 HIT:      49347 MISS:       4677 MSHR_MERGE:          0
cpu0->LLC PREFETCH REQUESTED:          0 ISSUED:          0 USEFUL:          0 USELESS:          0 LATE:          0
cpu0->LLC AVERAGE MISS LATENCY: 188.8 cycles

DRAM Statistics

Channel 0 RQ ROW_BUFFER_HIT:       4347
  ROW_BUFFER_MISS:     112570
  AVG DBUS CONGESTED CYCLE: 14.66
Channel 0 WQ ROW_BUFFER_HIT:      13124
  ROW_BUFFER_MISS:      44775
  FULL:          0
Channel 0 REFRESHES ISSUED:       2361

[ROI Statistics]
[System Configuration]
num_cpus 1
cpu_freq 4000
fetch_width 6
decode_width 6
dispatch_width 6
execute_width 6
lq_width 2
sq_width 2
retire_width 6
scheduler_size 128
branch_mispredict_penalty 15
rob_size 352
lq_size 128
sq_size 72
ifetch_buffer_size 64
decode_buffer_size 32
dispatch_buffer_size 32
register_file_size 288
decode_latency 1
dispatch_latency 1
schedule_latency 1
execute_latency 1
page_size 4096
block_size 64
core_0_itlb_set 16
core_0_itlb_way 4
core_0_itlb_rq_size 16
core_0_itlb_wq_size 16
core_0_itlb_pq_size 0
core_0_itlb_mshr_size 8
core_0_itlb_hit_latency 1
core_0_itlb_fill_latency 1
core_0_itlb_max_tag_check 2
core_0_itlb_max_fill 2
core_0_dtlb_set 16
core_0_dtlb_way 4
core_0_dtlb_rq_size 16
core_0_dtlb_wq_size 16
core_0_dtlb_pq_size 0
core_0_dtlb_mshr_size 8
core_0_dtlb_hit_latency 1
core_0_dtlb_fill_latency 1
core_0_dtlb_max_tag_check 2
core_0_dtlb_max_fill 2
core_0_stlb_set 128
core_0_stlb_way 12
core_0_stlb_rq_size 32
core_0_stlb_wq_size 32
core_0_stlb_pq_size 0
core_0_stlb_mshr_size 16
core_0_stlb_hit_latency 4
core_0_stlb_fill_latency 4
core_0_stlb_max_tag_check 1
core_0_stlb_max_fill 1
core_0_l1i_set 64
core_0_l1i_way 8
core_0_l1i_rq_size 64
core_0_l1i_wq_size 64
core_0_l1i_pq_size 32
core_0_l1i_mshr_size 8
core_0_l1i_hit_latency 2
core_0_l1i_fill_latency 2
core_0_l1i_max_tag_check 2
core_0_l1i_max_fill 2
core_0_l1d_set 64
core_0_l1d_way 12
core_0_l1d_rq_size 64
core_0_l1d_wq_size 64
core_0_l1d_pq_size 8
core_0_l1d_mshr_size 16
core_0_l1d_hit_latency 2
core_0_l1d_fill_latency 3
core_0_l1d_max_tag_check 2
core_0_l1d_max_fill 2
core_0_l2c_set 1024
core_0_l2c_way 8
core_0_l2c_rq_size 32
core_0_l2c_wq_size 32
core_0_l2c_pq_size 16
core_0_l2c_mshr_size 32
core_0_l2c_hit_latency 5
core_0_l2c_fill_latency 5
core_0_l2c_max_tag_check 1
core_0_l2c_max_fill 1
llc_set 2048
llc_way 16
llc_rq_size 32
llc_wq_size 32
llc_pq_size 32
llc_mshr_size 64
llc_hit_latency 10
llc_fill_latency 10
llc_max_tag_check 1
llc_max_fill 1
dram_channels 1
dram_ranks 1
dram_bankgroups 8
dram_banks 4
dram_rows 65536
dram_columns 1024
dram_channel_width 8
dram_rq_size 64
dram_wq_size 64
dram_size 17179869184
core_0_itlb_prefetcher no
core_0_dtlb_prefetcher no
core_0_stlb_prefetcher no
core_0_l1i_prefetcher next_line
core_0_l1d_prefetcher berti
core_0_l2c_prefetcher ip_stride
llc_prefetcher no
llc_replacement drrip

Core_0_instructions 50000002
Core_0_cycles 28324784
Core_0_IPC 1.76524
Core_0_branch_prediction_accuracy 98.4368
Core_0_branch_MPKI 2.79002
Core_0_average_ROB_occupancy_at_mispredict 113.784

Core_0_ITLB_total_access 6667666
Core_0_ITLB_total_hit 6177081
Core_0_ITLB_total_miss 490585
Core_0_ITLB_total_MPKI 9.8117
Core_0_ITLB_total_miss_rate 0.0735767
Core_0_ITLB_demand_access 6667666
Core_0_ITLB_demand_hit 6177081
Core_0_ITLB_demand_miss 490585
Core_0_ITLB_demand_MPKI 9.8117
Core_0_ITLB_demand_miss_rate 0.0735767
Core_0_ITLB_load_access 6667666
Core_0_ITLB_load_hit 6177081
Core_0_ITLB_load_miss 490585
Core_0_ITLB_load_MPKI 9.8117
Core_0_ITLB_load_miss_rate 0.0735767
Core_0_ITLB_rfo_access 0
Core_0_ITLB_rfo_hit 0
Core_0_ITLB_rfo_miss 0
Core_0_ITLB_rfo_MPKI 0
Core_0_ITLB_rfo_miss_rate 0
Core_0_ITLB_prefetch_access 0
Core_0_ITLB_prefetch_hit 0
Core_0_ITLB_prefetch_miss 0
Core_0_ITLB_prefetch_MPKI 0
Core_0_ITLB_prefetch_miss_rate 0
Core_0_ITLB_writeback_access 0
Core_0_ITLB_writeback_hit 0
Core_0_ITLB_writeback_miss 0
Core_0_ITLB_writeback_MPKI 0
Core_0_ITLB_writeback_miss_rate 0
Core_0_ITLB_prefetch_requested 0
Core_0_ITLB_prefetch_issued 0
Core_0_ITLB_prefetch_useful 0
Core_0_ITLB_prefetch_useless 0
Core_0_ITLB_prefetch_late 0
Core_0_ITLB_prefetch_accuracy 0
Core_0_ITLB_prefetch_coverage 0

Core_0_DTLB_total_access 11087774
Core_0_DTLB_total_hit 10210616
Core_0_DTLB_total_miss 877158
Core_0_DTLB_total_MPKI 17.5432
Core_0_DTLB_total_miss_rate 0.0791104
Core_0_DTLB_demand_access 11087774
Core_0_DTLB_demand_hit 10210616
Core_0_DTLB_demand_miss 877158
Core_0_DTLB_demand_MPKI 17.5432
Core_0_DTLB_demand_miss_rate 0.0791104
Core_0_DTLB_load_access 11087774
Core_0_DTLB_load_hit 10210616
Core_0_DTLB_load_miss 877158
Core_0_DTLB_load_MPKI 17.5432
Core_0_DTLB_load_miss_rate 0.0791104
Core_0_DTLB_rfo_access 0
Core_0_DTLB_rfo_hit 0
Core_0_DTLB_rfo_miss 0
Core_0_DTLB_rfo_MPKI 0
Core_0_DTLB_rfo_miss_rate 0
Core_0_DTLB_prefetch_access 0
Core_0_DTLB_prefetch_hit 0
Core_0_DTLB_prefetch_miss 0
Core_0_DTLB_prefetch_MPKI 0
Core_0_DTLB_prefetch_miss_rate 0
Core_0_DTLB_writeback_access 0
Core_0_DTLB_writeback_hit 0
Core_0_DTLB_writeback_miss 0
Core_0_DTLB_writeback_MPKI 0
Core_0_DTLB_writeback_miss_rate 0
Core_0_DTLB_prefetch_requested 0
Core_0_DTLB_prefetch_issued 0
Core_0_DTLB_prefetch_useful 0
Core_0_DTLB_prefetch_useless 0
Core_0_DTLB_prefetch_late 0
Core_0_DTLB_prefetch_accuracy 0
Core_0_DTLB_prefetch_coverage 0

Core_0_STLB_total_access 841408
Core_0_STLB_total_hit 754919
Core_0_STLB_total_miss 86489
Core_0_STLB_total_MPKI 1.72978
Core_0_STLB_total_miss_rate 0.102791
Core_0_STLB_demand_access 841408
Core_0_STLB_demand_hit 754919
Core_0_STLB_demand_miss 86489
Core_0_STLB_demand_MPKI 1.72978
Core_0_STLB_demand_miss_rate 0.102791
Core_0_STLB_load_access 841408
Core_0_STLB_load_hit 754919
Core_0_STLB_load_miss 86489
Core_0_STLB_load_MPKI 1.72978
Core_0_STLB_load_miss_rate 0.102791
Core_0_STLB_rfo_access 0
Core_0_STLB_rfo_hit 0
Core_0_STLB_rfo_miss 0
Core_0_STLB_rfo_MPKI 0
Core_0_STLB_rfo_miss_rate 0
Core_0_STLB_prefetch_access 0
Core_0_STLB_prefetch_hit 0
Core_0_STLB_prefetch_miss 0
Core_0_STLB_prefetch_MPKI 0
Core_0_STLB_prefetch_miss_rate 0
Core_0_STLB_writeback_access 0
Core_0_STLB_writeback_hit 0
Core_0_STLB_writeback_miss 0
Core_0_STLB_writeback_MPKI 0
Core_0_STLB_writeback_miss_rate 0
Core_0_STLB_prefetch_requested 0
Core_0_STLB_prefetch_issued 0
Core_0_STLB_prefetch_useful 0
Core_0_STLB_prefetch_useless 0
Core_0_STLB_prefetch_late 0
Core_0_STLB_prefetch_accuracy 0
Core_0_STLB_prefetch_coverage 0

Core_0_L1I_total_access 7861597
Core_0_L1I_total_hit 5764786
Core_0_L1I_total_miss 2096811
Core_0_L1I_total_MPKI 41.9362
Core_0_L1I_total_miss_rate 0.266716
Core_0_L1I_demand_access 7861597
Core_0_L1I_demand_hit 5764786
Core_0_L1I_demand_miss 2096811
Core_0_L1I_demand_MPKI 41.9362
Core_0_L1I_demand_miss_rate 0.266716
Core_0_L1I_load_access 7861597
Core_0_L1I_load_hit 5764786
Core_0_L1I_load_miss 2096811
Core_0_L1I_load_MPKI 41.9362
Core_0_L1I_load_miss_rate 0.266716
Core_0_L1I_rfo_access 0
Core_0_L1I_rfo_hit 0
Core_0_L1I_rfo_miss 0
Core_0_L1I_rfo_MPKI 0
Core_0_L1I_rfo_miss_rate 0
Core_0_L1I_prefetch_access 0
Core_0_L1I_prefetch_hit 0
Core_0_L1I_prefetch_miss 0
Core_0_L1I_prefetch_MPKI 0
Core_0_L1I_prefetch_miss_rate 0
Core_0_L1I_writeback_access 0
Core_0_L1I_writeback_hit 0
Core_0_L1I_writeback_miss 0
Core_0_L1I_writeback_MPKI 0
Core_0_L1I_writeback_miss_rate 0
Core_0_L1I_prefetch_requested 0
Core_0_L1I_prefetch_issued 0
Core_0_L1I_prefetch_useful 0
Core_0_L1I_prefetch_useless 0
Core_0_L1I_prefetch_late 0
Core_0_L1I_prefetch_accuracy 0
Core_0_L1I_prefetch_coverage 0

Core_0_L1D_total_access 11851324
Core_0_L1D_total_hit 10729472
Core_0_L1D_total_miss 1121852
Core_0_L1D_total_MPKI 22.437
Core_0_L1D_total_miss_rate 0.0946605
Core_0_L1D_demand_access 6473754
Core_0_L1D_demand_hit 5822095
Core_0_L1D_demand_miss 651659
Core_0_L1D_demand_MPKI 13.0332
Core_0_L1D_demand_miss_rate 0.100662
Core_0_L1D_load_access 6473754
Core_0_L1D_load_hit 5822095
Core_0_L1D_load_miss 651659
Core_0_L1D_load_MPKI 13.0332
Core_0_L1D_load_miss_rate 0.100662
Core_0_L1D_rfo_access 0
Core_0_L1D_rfo_hit 0
Core_0_L1D_rfo_miss 0
Core_0_L1D_rfo_MPKI 0
Core_0_L1D_rfo_miss_rate 0
Core_0_L1D_prefetch_access 422081
Core_0_L1D_prefetch_hit 155013
Core_0_L1D_prefetch_miss 267068
Core_0_L1D_prefetch_MPKI 5.34136
Core_0_L1D_prefetch_miss_rate 0.632741
Core_0_L1D_writeback_access 4955489
Core_0_L1D_writeback_hit 4752364
Core_0_L1D_writeback_miss 203125
Core_0_L1D_writeback_MPKI 4.0625
Core_0_L1D_writeback_miss_rate 0.0409899
Core_0_L1D_prefetch_requested 423765
Core_0_L1D_prefetch_issued 422078
Core_0_L1D_prefetch_useful 102574
Core_0_L1D_prefetch_useless 146933
Core_0_L1D_prefetch_late 9503
Core_0_L1D_prefetch_accuracy 0.243021
Core_0_L1D_prefetch_coverage 0.135998

Core_0_L2C_total_access 2419658
Core_0_L2C_total_hit 1449728
Core_0_L2C_total_miss 969930
Core_0_L2C_total_MPKI 19.3986
Core_0_L2C_total_miss_rate 0.400854
Core_0_L2C_demand_access 1852491
Core_0_L2C_demand_hit 1066788
Core_0_L2C_demand_miss 785703
Core_0_L2C_demand_MPKI 15.7141
Core_0_L2C_demand_miss_rate 0.424133
Core_0_L2C_load_access 1773921
Core_0_L2C_load_hit 1026561
Core_0_L2C_load_miss 747360
Core_0_L2C_load_MPKI 14.9472
Core_0_L2C_load_miss_rate 0.421304
Core_0_L2C_rfo_access 78570
Core_0_L2C_rfo_hit 40227
Core_0_L2C_rfo_miss 38343
Core_0_L2C_rfo_MPKI 0.76686
Core_0_L2C_rfo_miss_rate 0.488011
Core_0_L2C_prefetch_access 296323
Core_0_L2C_prefetch_hit 112884
Core_0_L2C_prefetch_miss 183439
Core_0_L2C_prefetch_MPKI 3.66878
Core_0_L2C_prefetch_miss_rate 0.619051
Core_0_L2C_writeback_access 270844
Core_0_L2C_writeback_hit 270056
Core_0_L2C_writeback_miss 788
Core_0_L2C_writeback_MPKI 0.01576
Core_0_L2C_writeback_miss_rate 0.00290942
Core_0_L2C_prefetch_requested 46858
Core_0_L2C_prefetch_issued 46791
Core_0_L2C_prefetch_useful 15694
Core_0_L2C_prefetch_useless 6761
Core_0_L2C_prefetch_late 152
Core_0_L2C_prefetch_accuracy 0.335406
Core_0_L2C_prefetch_coverage 0.0195833

Core_0_LLC_total_access 1099591
Core_0_LLC_total_hit 984606
Core_0_LLC_total_miss 114985
Core_0_LLC_total_MPKI 2.2997
Core_0_LLC_total_miss_rate 0.104571
Core_0_LLC_demand_access 785546
Core_0_LLC_demand_hit 737477
Core_0_LLC_demand_miss 48069
Core_0_LLC_demand_MPKI 0.96138
Core_0_LLC_demand_miss_rate 0.0611918
Core_0_LLC_load_access 747242
Core_0_LLC_load_hit 707971
Core_0_LLC_load_miss 39271
Core_0_LLC_load_MPKI 0.78542
Core_0_LLC_load_miss_rate 0.0525546
Core_0_LLC_rfo_access 38304
Core_0_LLC_rfo_hit 29506
Core_0_LLC_rfo_miss 8798
Core_0_LLC_rfo_MPKI 0.17596
Core_0_LLC_rfo_miss_rate 0.229689
Core_0_LLC_prefetch_access 169203
Core_0_LLC_prefetch_hit 105014
Core_0_LLC_prefetch_miss 64189
Core_0_LLC_prefetch_MPKI 1.28378
Core_0_LLC_prefetch_miss_rate 0.379361
Core_0_LLC_writeback_access 144842
Core_0_LLC_writeback_hit 142115
Core_0_LLC_writeback_miss 2727
Core_0_LLC_writeback_MPKI 0.05454
Core_0_LLC_writeback_miss_rate 0.0188274
Core_0_LLC_prefetch_requested 0
Core_0_LLC_prefetch_issued 0
Core_0_LLC_prefetch_useful 0
Core_0_LLC_prefetch_useless 0
Core_0_LLC_prefetch_late 0
Core_0_LLC_prefetch_accuracy 0
Core_0_LLC_prefetch_coverage 0

[DRAM Statistics]
Channel_0_RQ_row_buffer_hit 4347
Channel_0_RQ_row_buffer_miss 112570
Channel_0_WQ_row_buffer_hit 13124
Channel_0_WQ_row_buffer_miss 44775
Channel_0_WQ_full 0
Channel_0_dbus_congested 482260
DRAM_total_RQ_row_buffer_hit 4347
DRAM_total_RQ_row_buffer_miss 112570
DRAM_total_WQ_row_buffer_hit 13124
DRAM_total_WQ_row_buffer_miss 44775
DRAM_total_WQ_full 0
DRAM_total_dbus_congested 482260
DRAM_avg_congested_cycle 14.6605

======STLB miss causes ========
Core_0_STLB_miss_cause_breakdown
Core_0_STLB_cause_Demand_Data_miss 55842
Core_0_STLB_cause_Demand_Data_miss_rate 0.0663673
Core_0_STLB_cause_Demand_Instruction_miss 30647
Core_0_STLB_cause_Demand_Instruction_miss_rate 0.0364235
Core_0_STLB_cause_L1D_Prefetch_miss 0
Core_0_STLB_cause_L1D_Prefetch_miss_rate 0
Core_0_STLB_cause_L1I_Prefetch_miss 0
Core_0_STLB_cause_L1I_Prefetch_miss_rate 0
Core_0_STLB_cause_Other_miss 0
Core_0_STLB_cause_Other_miss_rate 0
Core_0_STLB_Demand_miss 86489
Core_0_STLB_Demand_miss_rate 0.102791
Core_0_STLB_L1D_Prefetch_miss 0
Core_0_STLB_L1D_Prefetch_miss_rate 0
Core_0_STLB_Other_miss 0
Core_0_STLB_Other_miss_rate 0
