[VMEM] WARNING: physical memory size is smaller than virtual memory size.

*** ChampSim Multicore Out-of-Order Simulator ***
Warmup Instructions: 20000000
Simulation Instructions: 50000000
Number of CPUs: 1
Page size: 4096
STLB ideal mode: l1pref
STLB ideal fill: on
Core 0: /data0/tzh/champsim_traces/QMM/srv_68_new.xz
 L1D Berti prefetcher
Off-chip DRAM Size: 16 GiB Channels: 1 Width: 64-bit Data Rate: 3205 MT/s
[BTB] WARNING: target of return is a lower address than the corresponding call. This is usually a problem with your trace.
[BTB] WARNING: target of return is a lower address than the corresponding call. This is usually a problem with your trace.
[BTB] WARNING: target of return is a lower address than the corresponding call. This is usually a problem with your trace.
[BTB] WARNING: target of return is a lower address than the corresponding call. This is usually a problem with your trace.
[BTB] WARNING: target of return is a lower address than the corresponding call. This is usually a problem with your trace.
[BTB] WARNING: target of return is a lower address than the corresponding call. This is usually a problem with your trace.
[BTB] WARNING: target of return is a lower address than the corresponding call. This is usually a problem with your trace.
[BTB] WARNING: target of return is a lower address than the corresponding call. This is usually a problem with your trace.
[BTB] WARNING: target of return is a lower address than the corresponding call. This is usually a problem with your trace.
[BTB] WARNING: target of return is a lower address than the corresponding call. This is usually a problem with your trace.
Warmup halting CPU 0 at instruction 20000002 cycle 4516936 for remainder of phase
Warmup finished CPU 0 instructions: 20000002 cycles: 4516936 cumulative IPC: 4.428 (Simulation time: 00 hr 01 min 05 sec)
Warmup complete CPU 0 instructions: 20000002 cycles: 4516936 cumulative IPC: 4.428 (Simulation time: 00 hr 01 min 05 sec)
*** Reached end of trace: (0, "/data0/tzh/champsim_traces/QMM/srv_68_new.xz")
*** Reached end of trace: (0, "/data0/tzh/champsim_traces/QMM/srv_68_new.xz")
Simulation finished CPU 0 instructions: 50000003 cycles: 29383130 cumulative IPC: 1.702 (Simulation time: 00 hr 05 min 08 sec)
Simulation complete CPU 0 instructions: 50000003 cycles: 29383130 cumulative IPC: 1.702 (Simulation time: 00 hr 05 min 08 sec)

ChampSim completed all CPUs

=== Simulation ===
CPU 0 runs /data0/tzh/champsim_traces/QMM/srv_68_new.xz

Region of Interest Statistics

CPU 0 cumulative IPC: 1.702 instructions: 50000003 cycles: 29383130
CPU 0 Branch Prediction Accuracy: 98.06% MPKI: 3.415 Average ROB Occupancy at Mispredict: 97.62
Branch type MPKI
BRANCH_DIRECT_JUMP: 0.2539
BRANCH_INDIRECT: 0.2023
BRANCH_CONDITIONAL: 2.058
BRANCH_DIRECT_CALL: 0.4479
BRANCH_INDIRECT_CALL: 0.0913
BRANCH_RETURN: 0.362

cpu0->cpu0_STLB TOTAL        ACCESS:     778230 HIT:     681613 MISS:      96617 MSHR_MERGE:          0
cpu0->cpu0_STLB LOAD         ACCESS:     778230 HIT:     681613 MISS:      96617 MSHR_MERGE:          0
cpu0->cpu0_STLB RFO          ACCESS:          0 HIT:          0 MISS:          0 MSHR_MERGE:          0
cpu0->cpu0_STLB PREFETCH     ACCESS:          0 HIT:          0 MISS:          0 MSHR_MERGE:          0
cpu0->cpu0_STLB WRITE        ACCESS:          0 HIT:          0 MISS:          0 MSHR_MERGE:          0
cpu0->cpu0_STLB TRANSLATION  ACCESS:          0 HIT:          0 MISS:          0 MSHR_MERGE:          0
cpu0->cpu0_STLB PREFETCH REQUESTED:          0 ISSUED:          0 USEFUL:          0 USELESS:          0 LATE:          0
cpu0->cpu0_STLB AVERAGE MISS LATENCY: 38.62 cycles
cpu0->cpu0_L2C TOTAL        ACCESS:    2338277 HIT:    1295244 MISS:    1043033 MSHR_MERGE:      13410
cpu0->cpu0_L2C LOAD         ACCESS:    1644618 HIT:     875421 MISS:     769197 MSHR_MERGE:        116
cpu0->cpu0_L2C RFO          ACCESS:      72295 HIT:      34612 MISS:      37683 MSHR_MERGE:         24
cpu0->cpu0_L2C PREFETCH     ACCESS:     278792 HIT:      99188 MISS:     179604 MSHR_MERGE:      13270
cpu0->cpu0_L2C WRITE        ACCESS:     255878 HIT:     254773 MISS:       1105 MSHR_MERGE:          0
cpu0->cpu0_L2C TRANSLATION  ACCESS:      86694 HIT:      31250 MISS:      55444 MSHR_MERGE:          0
cpu0->cpu0_L2C PREFETCH REQUESTED:      45901 ISSUED:      45877 USEFUL:      15795 USELESS:       6853 LATE:        140
cpu0->cpu0_L2C AVERAGE MISS LATENCY: 27.18 cycles
cpu0->cpu0_L1I TOTAL        ACCESS:    7734394 HIT:    5821056 MISS:    1913338 MSHR_MERGE:     725512
cpu0->cpu0_L1I LOAD         ACCESS:    7734394 HIT:    5821056 MISS:    1913338 MSHR_MERGE:     725512
cpu0->cpu0_L1I RFO          ACCESS:          0 HIT:          0 MISS:          0 MSHR_MERGE:          0
cpu0->cpu0_L1I PREFETCH     ACCESS:          0 HIT:          0 MISS:          0 MSHR_MERGE:          0
cpu0->cpu0_L1I WRITE        ACCESS:          0 HIT:          0 MISS:          0 MSHR_MERGE:          0
cpu0->cpu0_L1I TRANSLATION  ACCESS:          0 HIT:          0 MISS:          0 MSHR_MERGE:          0
cpu0->cpu0_L1I PREFETCH REQUESTED:          0 ISSUED:          0 USEFUL:          0 USELESS:          0 LATE:          0
cpu0->cpu0_L1I AVERAGE MISS LATENCY: 15.57 cycles
cpu0->cpu0_L1D TOTAL        ACCESS:   12092072 HIT:   10929555 MISS:    1162517 MSHR_MERGE:     313800
cpu0->cpu0_L1D LOAD         ACCESS:    6586009 HIT:    5966019 MISS:     619990 MSHR_MERGE:     163192
cpu0->cpu0_L1D RFO          ACCESS:          0 HIT:          0 MISS:          0 MSHR_MERGE:          0
cpu0->cpu0_L1D PREFETCH     ACCESS:     396280 HIT:     148110 MISS:     248170 MSHR_MERGE:      15249
cpu0->cpu0_L1D WRITE        ACCESS:    4892884 HIT:    4686964 MISS:     205920 MSHR_MERGE:     133616
cpu0->cpu0_L1D TRANSLATION  ACCESS:     216899 HIT:     128462 MISS:      88437 MSHR_MERGE:       1743
cpu0->cpu0_L1D PREFETCH REQUESTED:     397733 ISSUED:     396280 USEFUL:      96534 USELESS:     136373 LATE:       8558
cpu0->cpu0_L1D AVERAGE MISS LATENCY: 31.93 cycles
cpu0->cpu0_ITLB TOTAL        ACCESS:    6564192 HIT:    6098680 MISS:     465512 MSHR_MERGE:     289332
cpu0->cpu0_ITLB LOAD         ACCESS:    6564192 HIT:    6098680 MISS:     465512 MSHR_MERGE:     289332
cpu0->cpu0_ITLB RFO          ACCESS:          0 HIT:          0 MISS:          0 MSHR_MERGE:          0
cpu0->cpu0_ITLB PREFETCH     ACCESS:          0 HIT:          0 MISS:          0 MSHR_MERGE:          0
cpu0->cpu0_ITLB WRITE        ACCESS:          0 HIT:          0 MISS:          0 MSHR_MERGE:          0
cpu0->cpu0_ITLB TRANSLATION  ACCESS:          0 HIT:          0 MISS:          0 MSHR_MERGE:          0
cpu0->cpu0_ITLB PREFETCH REQUESTED:          0 ISSUED:          0 USEFUL:          0 USELESS:          0 LATE:          0
cpu0->cpu0_ITLB AVERAGE MISS LATENCY: 10.36 cycles
cpu0->cpu0_DTLB TOTAL        ACCESS:   11137600 HIT:   10324332 MISS:     813268 MSHR_MERGE:     211218
cpu0->cpu0_DTLB LOAD         ACCESS:   11137600 HIT:   10324332 MISS:     813268 MSHR_MERGE:     211218
cpu0->cpu0_DTLB RFO          ACCESS:          0 HIT:          0 MISS:          0 MSHR_MERGE:          0
cpu0->cpu0_DTLB PREFETCH     ACCESS:          0 HIT:          0 MISS:          0 MSHR_MERGE:          0
cpu0->cpu0_DTLB WRITE        ACCESS:          0 HIT:          0 MISS:          0 MSHR_MERGE:          0
cpu0->cpu0_DTLB TRANSLATION  ACCESS:          0 HIT:          0 MISS:          0 MSHR_MERGE:          0
cpu0->cpu0_DTLB PREFETCH REQUESTED:          0 ISSUED:          0 USEFUL:          0 USELESS:          0 LATE:          0
cpu0->cpu0_DTLB AVERAGE MISS LATENCY: 9.806 cycles
cpu0->LLC TOTAL        ACCESS:    1176234 HIT:    1054488 MISS:     121746 MSHR_MERGE:         36
cpu0->LLC LOAD         ACCESS:     769079 HIT:     732526 MISS:      36553 MSHR_MERGE:          0
cpu0->LLC RFO          ACCESS:      37658 HIT:      27171 MISS:      10487 MSHR_MERGE:          0
cpu0->LLC PREFETCH     ACCESS:     166334 HIT:      98684 MISS:      67650 MSHR_MERGE:         36
cpu0->LLC WRITE        ACCESS:     147719 HIT:     144574 MISS:       3145 MSHR_MERGE:          0
cpu0->LLC TRANSLATION  ACCESS:      55444 HIT:      51533 MISS:       3911 MSHR_MERGE:          0
cpu0->LLC PREFETCH REQUESTED:          0 ISSUED:          0 USEFUL:          0 USELESS:          0 LATE:          0
cpu0->LLC AVERAGE MISS LATENCY: 193.8 cycles

DRAM Statistics

Channel 0 RQ ROW_BUFFER_HIT:       3417
  ROW_BUFFER_MISS:     115139
  AVG DBUS CONGESTED CYCLE: 14.97
Channel 0 WQ ROW_BUFFER_HIT:      12870
  ROW_BUFFER_MISS:      45909
  FULL:          0
Channel 0 REFRESHES ISSUED:       2449

[ROI Statistics]
[System Configuration]
num_cpus 1
cpu_freq 4000
fetch_width 6
decode_width 6
dispatch_width 6
execute_width 6
lq_width 2
sq_width 2
retire_width 6
scheduler_size 128
branch_mispredict_penalty 15
rob_size 352
lq_size 128
sq_size 72
ifetch_buffer_size 64
decode_buffer_size 32
dispatch_buffer_size 32
register_file_size 288
decode_latency 1
dispatch_latency 1
schedule_latency 1
execute_latency 1
page_size 4096
block_size 64
core_0_itlb_set 16
core_0_itlb_way 4
core_0_itlb_rq_size 16
core_0_itlb_wq_size 16
core_0_itlb_pq_size 0
core_0_itlb_mshr_size 8
core_0_itlb_hit_latency 1
core_0_itlb_fill_latency 1
core_0_itlb_max_tag_check 2
core_0_itlb_max_fill 2
core_0_dtlb_set 16
core_0_dtlb_way 4
core_0_dtlb_rq_size 16
core_0_dtlb_wq_size 16
core_0_dtlb_pq_size 0
core_0_dtlb_mshr_size 8
core_0_dtlb_hit_latency 1
core_0_dtlb_fill_latency 1
core_0_dtlb_max_tag_check 2
core_0_dtlb_max_fill 2
core_0_stlb_set 128
core_0_stlb_way 12
core_0_stlb_rq_size 32
core_0_stlb_wq_size 32
core_0_stlb_pq_size 0
core_0_stlb_mshr_size 16
core_0_stlb_hit_latency 4
core_0_stlb_fill_latency 4
core_0_stlb_max_tag_check 1
core_0_stlb_max_fill 1
core_0_l1i_set 64
core_0_l1i_way 8
core_0_l1i_rq_size 64
core_0_l1i_wq_size 64
core_0_l1i_pq_size 32
core_0_l1i_mshr_size 8
core_0_l1i_hit_latency 2
core_0_l1i_fill_latency 2
core_0_l1i_max_tag_check 2
core_0_l1i_max_fill 2
core_0_l1d_set 64
core_0_l1d_way 12
core_0_l1d_rq_size 64
core_0_l1d_wq_size 64
core_0_l1d_pq_size 8
core_0_l1d_mshr_size 16
core_0_l1d_hit_latency 2
core_0_l1d_fill_latency 3
core_0_l1d_max_tag_check 2
core_0_l1d_max_fill 2
core_0_l2c_set 1024
core_0_l2c_way 8
core_0_l2c_rq_size 32
core_0_l2c_wq_size 32
core_0_l2c_pq_size 16
core_0_l2c_mshr_size 32
core_0_l2c_hit_latency 5
core_0_l2c_fill_latency 5
core_0_l2c_max_tag_check 1
core_0_l2c_max_fill 1
llc_set 2048
llc_way 16
llc_rq_size 32
llc_wq_size 32
llc_pq_size 32
llc_mshr_size 64
llc_hit_latency 10
llc_fill_latency 10
llc_max_tag_check 1
llc_max_fill 1
dram_channels 1
dram_ranks 1
dram_bankgroups 8
dram_banks 4
dram_rows 65536
dram_columns 1024
dram_channel_width 8
dram_rq_size 64
dram_wq_size 64
dram_size 17179869184
core_0_itlb_prefetcher no
core_0_dtlb_prefetcher no
core_0_stlb_prefetcher no
core_0_l1i_prefetcher next_line
core_0_l1d_prefetcher berti
core_0_l2c_prefetcher ip_stride
llc_prefetcher no
llc_replacement drrip

Core_0_instructions 50000003
Core_0_cycles 29383130
Core_0_IPC 1.70166
Core_0_branch_prediction_accuracy 98.0589
Core_0_branch_MPKI 3.41548
Core_0_average_ROB_occupancy_at_mispredict 97.6245

Core_0_ITLB_total_access 6564192
Core_0_ITLB_total_hit 6098680
Core_0_ITLB_total_miss 465512
Core_0_ITLB_total_MPKI 9.31024
Core_0_ITLB_total_miss_rate 0.0709169
Core_0_ITLB_demand_access 6564192
Core_0_ITLB_demand_hit 6098680
Core_0_ITLB_demand_miss 465512
Core_0_ITLB_demand_MPKI 9.31024
Core_0_ITLB_demand_miss_rate 0.0709169
Core_0_ITLB_load_access 6564192
Core_0_ITLB_load_hit 6098680
Core_0_ITLB_load_miss 465512
Core_0_ITLB_load_MPKI 9.31024
Core_0_ITLB_load_miss_rate 0.0709169
Core_0_ITLB_rfo_access 0
Core_0_ITLB_rfo_hit 0
Core_0_ITLB_rfo_miss 0
Core_0_ITLB_rfo_MPKI 0
Core_0_ITLB_rfo_miss_rate 0
Core_0_ITLB_prefetch_access 0
Core_0_ITLB_prefetch_hit 0
Core_0_ITLB_prefetch_miss 0
Core_0_ITLB_prefetch_MPKI 0
Core_0_ITLB_prefetch_miss_rate 0
Core_0_ITLB_writeback_access 0
Core_0_ITLB_writeback_hit 0
Core_0_ITLB_writeback_miss 0
Core_0_ITLB_writeback_MPKI 0
Core_0_ITLB_writeback_miss_rate 0
Core_0_ITLB_prefetch_requested 0
Core_0_ITLB_prefetch_issued 0
Core_0_ITLB_prefetch_useful 0
Core_0_ITLB_prefetch_useless 0
Core_0_ITLB_prefetch_late 0
Core_0_ITLB_prefetch_accuracy 0
Core_0_ITLB_prefetch_coverage 0

Core_0_DTLB_total_access 11137600
Core_0_DTLB_total_hit 10324332
Core_0_DTLB_total_miss 813268
Core_0_DTLB_total_MPKI 16.2654
Core_0_DTLB_total_miss_rate 0.07302
Core_0_DTLB_demand_access 11137600
Core_0_DTLB_demand_hit 10324332
Core_0_DTLB_demand_miss 813268
Core_0_DTLB_demand_MPKI 16.2654
Core_0_DTLB_demand_miss_rate 0.07302
Core_0_DTLB_load_access 11137600
Core_0_DTLB_load_hit 10324332
Core_0_DTLB_load_miss 813268
Core_0_DTLB_load_MPKI 16.2654
Core_0_DTLB_load_miss_rate 0.07302
Core_0_DTLB_rfo_access 0
Core_0_DTLB_rfo_hit 0
Core_0_DTLB_rfo_miss 0
Core_0_DTLB_rfo_MPKI 0
Core_0_DTLB_rfo_miss_rate 0
Core_0_DTLB_prefetch_access 0
Core_0_DTLB_prefetch_hit 0
Core_0_DTLB_prefetch_miss 0
Core_0_DTLB_prefetch_MPKI 0
Core_0_DTLB_prefetch_miss_rate 0
Core_0_DTLB_writeback_access 0
Core_0_DTLB_writeback_hit 0
Core_0_DTLB_writeback_miss 0
Core_0_DTLB_writeback_MPKI 0
Core_0_DTLB_writeback_miss_rate 0
Core_0_DTLB_prefetch_requested 0
Core_0_DTLB_prefetch_issued 0
Core_0_DTLB_prefetch_useful 0
Core_0_DTLB_prefetch_useless 0
Core_0_DTLB_prefetch_late 0
Core_0_DTLB_prefetch_accuracy 0
Core_0_DTLB_prefetch_coverage 0

Core_0_STLB_total_access 778230
Core_0_STLB_total_hit 681613
Core_0_STLB_total_miss 96617
Core_0_STLB_total_MPKI 1.93234
Core_0_STLB_total_miss_rate 0.12415
Core_0_STLB_demand_access 778230
Core_0_STLB_demand_hit 681613
Core_0_STLB_demand_miss 96617
Core_0_STLB_demand_MPKI 1.93234
Core_0_STLB_demand_miss_rate 0.12415
Core_0_STLB_load_access 778230
Core_0_STLB_load_hit 681613
Core_0_STLB_load_miss 96617
Core_0_STLB_load_MPKI 1.93234
Core_0_STLB_load_miss_rate 0.12415
Core_0_STLB_rfo_access 0
Core_0_STLB_rfo_hit 0
Core_0_STLB_rfo_miss 0
Core_0_STLB_rfo_MPKI 0
Core_0_STLB_rfo_miss_rate 0
Core_0_STLB_prefetch_access 0
Core_0_STLB_prefetch_hit 0
Core_0_STLB_prefetch_miss 0
Core_0_STLB_prefetch_MPKI 0
Core_0_STLB_prefetch_miss_rate 0
Core_0_STLB_writeback_access 0
Core_0_STLB_writeback_hit 0
Core_0_STLB_writeback_miss 0
Core_0_STLB_writeback_MPKI 0
Core_0_STLB_writeback_miss_rate 0
Core_0_STLB_prefetch_requested 0
Core_0_STLB_prefetch_issued 0
Core_0_STLB_prefetch_useful 0
Core_0_STLB_prefetch_useless 0
Core_0_STLB_prefetch_late 0
Core_0_STLB_prefetch_accuracy 0
Core_0_STLB_prefetch_coverage 0

Core_0_L1I_total_access 7734394
Core_0_L1I_total_hit 5821056
Core_0_L1I_total_miss 1913338
Core_0_L1I_total_MPKI 38.2668
Core_0_L1I_total_miss_rate 0.24738
Core_0_L1I_demand_access 7734394
Core_0_L1I_demand_hit 5821056
Core_0_L1I_demand_miss 1913338
Core_0_L1I_demand_MPKI 38.2668
Core_0_L1I_demand_miss_rate 0.24738
Core_0_L1I_load_access 7734394
Core_0_L1I_load_hit 5821056
Core_0_L1I_load_miss 1913338
Core_0_L1I_load_MPKI 38.2668
Core_0_L1I_load_miss_rate 0.24738
Core_0_L1I_rfo_access 0
Core_0_L1I_rfo_hit 0
Core_0_L1I_rfo_miss 0
Core_0_L1I_rfo_MPKI 0
Core_0_L1I_rfo_miss_rate 0
Core_0_L1I_prefetch_access 0
Core_0_L1I_prefetch_hit 0
Core_0_L1I_prefetch_miss 0
Core_0_L1I_prefetch_MPKI 0
Core_0_L1I_prefetch_miss_rate 0
Core_0_L1I_writeback_access 0
Core_0_L1I_writeback_hit 0
Core_0_L1I_writeback_miss 0
Core_0_L1I_writeback_MPKI 0
Core_0_L1I_writeback_miss_rate 0
Core_0_L1I_prefetch_requested 0
Core_0_L1I_prefetch_issued 0
Core_0_L1I_prefetch_useful 0
Core_0_L1I_prefetch_useless 0
Core_0_L1I_prefetch_late 0
Core_0_L1I_prefetch_accuracy 0
Core_0_L1I_prefetch_coverage 0

Core_0_L1D_total_access 11875173
Core_0_L1D_total_hit 10801093
Core_0_L1D_total_miss 1074080
Core_0_L1D_total_MPKI 21.4816
Core_0_L1D_total_miss_rate 0.0904475
Core_0_L1D_demand_access 6586009
Core_0_L1D_demand_hit 5966019
Core_0_L1D_demand_miss 619990
Core_0_L1D_demand_MPKI 12.3998
Core_0_L1D_demand_miss_rate 0.0941374
Core_0_L1D_load_access 6586009
Core_0_L1D_load_hit 5966019
Core_0_L1D_load_miss 619990
Core_0_L1D_load_MPKI 12.3998
Core_0_L1D_load_miss_rate 0.0941374
Core_0_L1D_rfo_access 0
Core_0_L1D_rfo_hit 0
Core_0_L1D_rfo_miss 0
Core_0_L1D_rfo_MPKI 0
Core_0_L1D_rfo_miss_rate 0
Core_0_L1D_prefetch_access 396280
Core_0_L1D_prefetch_hit 148110
Core_0_L1D_prefetch_miss 248170
Core_0_L1D_prefetch_MPKI 4.9634
Core_0_L1D_prefetch_miss_rate 0.626249
Core_0_L1D_writeback_access 4892884
Core_0_L1D_writeback_hit 4686964
Core_0_L1D_writeback_miss 205920
Core_0_L1D_writeback_MPKI 4.1184
Core_0_L1D_writeback_miss_rate 0.0420856
Core_0_L1D_prefetch_requested 397733
Core_0_L1D_prefetch_issued 396280
Core_0_L1D_prefetch_useful 96534
Core_0_L1D_prefetch_useless 136373
Core_0_L1D_prefetch_late 8558
Core_0_L1D_prefetch_accuracy 0.2436
Core_0_L1D_prefetch_coverage 0.134725

Core_0_L2C_total_access 2251583
Core_0_L2C_total_hit 1263994
Core_0_L2C_total_miss 987589
Core_0_L2C_total_MPKI 19.7518
Core_0_L2C_total_miss_rate 0.43862
Core_0_L2C_demand_access 1716913
Core_0_L2C_demand_hit 910033
Core_0_L2C_demand_miss 806880
Core_0_L2C_demand_MPKI 16.1376
Core_0_L2C_demand_miss_rate 0.46996
Core_0_L2C_load_access 1644618
Core_0_L2C_load_hit 875421
Core_0_L2C_load_miss 769197
Core_0_L2C_load_MPKI 15.3839
Core_0_L2C_load_miss_rate 0.467706
Core_0_L2C_rfo_access 72295
Core_0_L2C_rfo_hit 34612
Core_0_L2C_rfo_miss 37683
Core_0_L2C_rfo_MPKI 0.75366
Core_0_L2C_rfo_miss_rate 0.521239
Core_0_L2C_prefetch_access 278792
Core_0_L2C_prefetch_hit 99188
Core_0_L2C_prefetch_miss 179604
Core_0_L2C_prefetch_MPKI 3.59208
Core_0_L2C_prefetch_miss_rate 0.644222
Core_0_L2C_writeback_access 255878
Core_0_L2C_writeback_hit 254773
Core_0_L2C_writeback_miss 1105
Core_0_L2C_writeback_MPKI 0.0221
Core_0_L2C_writeback_miss_rate 0.00431846
Core_0_L2C_prefetch_requested 45901
Core_0_L2C_prefetch_issued 45877
Core_0_L2C_prefetch_useful 15795
Core_0_L2C_prefetch_useless 6853
Core_0_L2C_prefetch_late 140
Core_0_L2C_prefetch_accuracy 0.34429
Core_0_L2C_prefetch_coverage 0.0191996

Core_0_LLC_total_access 1120790
Core_0_LLC_total_hit 1002955
Core_0_LLC_total_miss 117835
Core_0_LLC_total_MPKI 2.3567
Core_0_LLC_total_miss_rate 0.105136
Core_0_LLC_demand_access 806737
Core_0_LLC_demand_hit 759697
Core_0_LLC_demand_miss 47040
Core_0_LLC_demand_MPKI 0.9408
Core_0_LLC_demand_miss_rate 0.058309
Core_0_LLC_load_access 769079
Core_0_LLC_load_hit 732526
Core_0_LLC_load_miss 36553
Core_0_LLC_load_MPKI 0.73106
Core_0_LLC_load_miss_rate 0.0475283
Core_0_LLC_rfo_access 37658
Core_0_LLC_rfo_hit 27171
Core_0_LLC_rfo_miss 10487
Core_0_LLC_rfo_MPKI 0.20974
Core_0_LLC_rfo_miss_rate 0.27848
Core_0_LLC_prefetch_access 166334
Core_0_LLC_prefetch_hit 98684
Core_0_LLC_prefetch_miss 67650
Core_0_LLC_prefetch_MPKI 1.353
Core_0_LLC_prefetch_miss_rate 0.406712
Core_0_LLC_writeback_access 147719
Core_0_LLC_writeback_hit 144574
Core_0_LLC_writeback_miss 3145
Core_0_LLC_writeback_MPKI 0.0629
Core_0_LLC_writeback_miss_rate 0.0212904
Core_0_LLC_prefetch_requested 0
Core_0_LLC_prefetch_issued 0
Core_0_LLC_prefetch_useful 0
Core_0_LLC_prefetch_useless 0
Core_0_LLC_prefetch_late 0
Core_0_LLC_prefetch_accuracy 0
Core_0_LLC_prefetch_coverage 0

[DRAM Statistics]
Channel_0_RQ_row_buffer_hit 3417
Channel_0_RQ_row_buffer_miss 115139
Channel_0_WQ_row_buffer_hit 12870
Channel_0_WQ_row_buffer_miss 45909
Channel_0_WQ_full 0
Channel_0_dbus_congested 472819
DRAM_total_RQ_row_buffer_hit 3417
DRAM_total_RQ_row_buffer_miss 115139
DRAM_total_WQ_row_buffer_hit 12870
DRAM_total_WQ_row_buffer_miss 45909
DRAM_total_WQ_full 0
DRAM_total_dbus_congested 472819
DRAM_avg_congested_cycle 14.9702

======STLB miss causes ========
Core_0_STLB_miss_cause_breakdown
Core_0_STLB_cause_Demand_Data_miss 61760
Core_0_STLB_cause_Demand_Data_miss_rate 0.0793596
Core_0_STLB_cause_Demand_Instruction_miss 34857
Core_0_STLB_cause_Demand_Instruction_miss_rate 0.0447901
Core_0_STLB_cause_L1D_Prefetch_miss 0
Core_0_STLB_cause_L1D_Prefetch_miss_rate 0
Core_0_STLB_cause_L1I_Prefetch_miss 0
Core_0_STLB_cause_L1I_Prefetch_miss_rate 0
Core_0_STLB_cause_Other_miss 0
Core_0_STLB_cause_Other_miss_rate 0
Core_0_STLB_Demand_miss 96617
Core_0_STLB_Demand_miss_rate 0.12415
Core_0_STLB_L1D_Prefetch_miss 0
Core_0_STLB_L1D_Prefetch_miss_rate 0
Core_0_STLB_Other_miss 0
Core_0_STLB_Other_miss_rate 0
