[VMEM] WARNING: physical memory size is smaller than virtual memory size.

*** ChampSim Multicore Out-of-Order Simulator ***
Warmup Instructions: 20000000
Simulation Instructions: 50000000
Number of CPUs: 1
Page size: 4096
STLB ideal mode: l1pref
STLB ideal fill: on
Core 0: /data2/zcq/champsim_traces_xsbench/xs.XXL64nuclide-531B.champsimtrace.xz
 L1D Berti prefetcher
Off-chip DRAM Size: 16 GiB Channels: 1 Width: 64-bit Data Rate: 3205 MT/s
Warmup halting CPU 0 at instruction 20000005 cycle 16128518 for remainder of phase
Warmup finished CPU 0 instructions: 20000005 cycles: 16128518 cumulative IPC: 1.24 (Simulation time: 00 hr 02 min 22 sec)
Warmup complete CPU 0 instructions: 20000005 cycles: 16128518 cumulative IPC: 1.24 (Simulation time: 00 hr 02 min 22 sec)
Simulation finished CPU 0 instructions: 50000002 cycles: 361666702 cumulative IPC: 0.1382 (Simulation time: 00 hr 22 min 42 sec)
Simulation complete CPU 0 instructions: 50000002 cycles: 361666702 cumulative IPC: 0.1382 (Simulation time: 00 hr 22 min 42 sec)

ChampSim completed all CPUs

=== Simulation ===
CPU 0 runs /data2/zcq/champsim_traces_xsbench/xs.XXL64nuclide-531B.champsimtrace.xz

Region of Interest Statistics

CPU 0 cumulative IPC: 0.1382 instructions: 50000002 cycles: 361666702
CPU 0 Branch Prediction Accuracy: 87.22% MPKI: 21.54 Average ROB Occupancy at Mispredict: 25.54
Branch type MPKI
BRANCH_DIRECT_JUMP: 0
BRANCH_INDIRECT: 0
BRANCH_CONDITIONAL: 21.54
BRANCH_DIRECT_CALL: 0
BRANCH_INDIRECT_CALL: 0
BRANCH_RETURN: 0

cpu0->cpu0_STLB TOTAL        ACCESS:    2068702 HIT:     146677 MISS:    1922025 MSHR_MERGE:          0
cpu0->cpu0_STLB LOAD         ACCESS:    2068702 HIT:     146677 MISS:    1922025 MSHR_MERGE:          0
cpu0->cpu0_STLB RFO          ACCESS:          0 HIT:          0 MISS:          0 MSHR_MERGE:          0
cpu0->cpu0_STLB PREFETCH     ACCESS:          0 HIT:          0 MISS:          0 MSHR_MERGE:          0
cpu0->cpu0_STLB WRITE        ACCESS:          0 HIT:          0 MISS:          0 MSHR_MERGE:          0
cpu0->cpu0_STLB TRANSLATION  ACCESS:          0 HIT:          0 MISS:          0 MSHR_MERGE:          0
cpu0->cpu0_STLB PREFETCH REQUESTED:          0 ISSUED:          0 USEFUL:          0 USELESS:          0 LATE:          0
cpu0->cpu0_STLB AVERAGE MISS LATENCY: 199.9 cycles
cpu0->cpu0_L2C TOTAL        ACCESS:    5214145 HIT:     226717 MISS:    4987428 MSHR_MERGE:       2844
cpu0->cpu0_L2C LOAD         ACCESS:    2977557 HIT:      87508 MISS:    2890049 MSHR_MERGE:          1
cpu0->cpu0_L2C RFO          ACCESS:       7514 HIT:       6941 MISS:        573 MSHR_MERGE:          0
cpu0->cpu0_L2C PREFETCH     ACCESS:     554462 HIT:      52199 MISS:     502263 MSHR_MERGE:       2843
cpu0->cpu0_L2C WRITE        ACCESS:      10658 HIT:      10634 MISS:         24 MSHR_MERGE:          0
cpu0->cpu0_L2C TRANSLATION  ACCESS:    1663954 HIT:      69435 MISS:    1594519 MSHR_MERGE:          0
cpu0->cpu0_L2C PREFETCH REQUESTED:     126305 ISSUED:     126305 USEFUL:       7834 USELESS:      69667 LATE:          1
cpu0->cpu0_L2C AVERAGE MISS LATENCY: 153.7 cycles
cpu0->cpu0_L1I TOTAL        ACCESS:      10506 HIT:      10506 MISS:          0 MSHR_MERGE:          0
cpu0->cpu0_L1I LOAD         ACCESS:      10506 HIT:      10506 MISS:          0 MSHR_MERGE:          0
cpu0->cpu0_L1I RFO          ACCESS:          0 HIT:          0 MISS:          0 MSHR_MERGE:          0
cpu0->cpu0_L1I PREFETCH     ACCESS:          0 HIT:          0 MISS:          0 MSHR_MERGE:          0
cpu0->cpu0_L1I WRITE        ACCESS:          0 HIT:          0 MISS:          0 MSHR_MERGE:          0
cpu0->cpu0_L1I TRANSLATION  ACCESS:          0 HIT:          0 MISS:          0 MSHR_MERGE:          0
cpu0->cpu0_L1I PREFETCH REQUESTED:          0 ISSUED:          0 USEFUL:          0 USELESS:          0 LATE:          0
cpu0->cpu0_L1I AVERAGE MISS LATENCY: - cycles
cpu0->cpu0_L1D TOTAL        ACCESS:   10375294 HIT:    4282051 MISS:    6093243 MSHR_MERGE:    1016054
cpu0->cpu0_L1D LOAD         ACCESS:    4780769 HIT:    1752490 MISS:    3028279 MSHR_MERGE:      50722
cpu0->cpu0_L1D RFO          ACCESS:          0 HIT:          0 MISS:          0 MSHR_MERGE:          0
cpu0->cpu0_L1D PREFETCH     ACCESS:     454263 HIT:      19215 MISS:     435048 MSHR_MERGE:       6891
cpu0->cpu0_L1D WRITE        ACCESS:     905471 HIT:     875498 MISS:      29973 MSHR_MERGE:      22452
cpu0->cpu0_L1D TRANSLATION  ACCESS:    4234791 HIT:    1634848 MISS:    2599943 MSHR_MERGE:     935989
cpu0->cpu0_L1D PREFETCH REQUESTED:     454266 ISSUED:     454263 USEFUL:      32039 USELESS:     396069 LATE:       2041
cpu0->cpu0_L1D AVERAGE MISS LATENCY: 157.3 cycles
cpu0->cpu0_ITLB TOTAL        ACCESS:       8525 HIT:       8525 MISS:          0 MSHR_MERGE:          0
cpu0->cpu0_ITLB LOAD         ACCESS:       8525 HIT:       8525 MISS:          0 MSHR_MERGE:          0
cpu0->cpu0_ITLB RFO          ACCESS:          0 HIT:          0 MISS:          0 MSHR_MERGE:          0
cpu0->cpu0_ITLB PREFETCH     ACCESS:          0 HIT:          0 MISS:          0 MSHR_MERGE:          0
cpu0->cpu0_ITLB WRITE        ACCESS:          0 HIT:          0 MISS:          0 MSHR_MERGE:          0
cpu0->cpu0_ITLB TRANSLATION  ACCESS:          0 HIT:          0 MISS:          0 MSHR_MERGE:          0
cpu0->cpu0_ITLB PREFETCH REQUESTED:          0 ISSUED:          0 USEFUL:          0 USELESS:          0 LATE:          0
cpu0->cpu0_ITLB AVERAGE MISS LATENCY: - cycles
cpu0->cpu0_DTLB TOTAL        ACCESS:    6041736 HIT:    3867846 MISS:    2173890 MSHR_MERGE:     105188
cpu0->cpu0_DTLB LOAD         ACCESS:    6041736 HIT:    3867846 MISS:    2173890 MSHR_MERGE:     105188
cpu0->cpu0_DTLB RFO          ACCESS:          0 HIT:          0 MISS:          0 MSHR_MERGE:          0
cpu0->cpu0_DTLB PREFETCH     ACCESS:          0 HIT:          0 MISS:          0 MSHR_MERGE:          0
cpu0->cpu0_DTLB WRITE        ACCESS:          0 HIT:          0 MISS:          0 MSHR_MERGE:          0
cpu0->cpu0_DTLB TRANSLATION  ACCESS:          0 HIT:          0 MISS:          0 MSHR_MERGE:          0
cpu0->cpu0_DTLB PREFETCH REQUESTED:          0 ISSUED:          0 USEFUL:          0 USELESS:          0 LATE:          0
cpu0->cpu0_DTLB AVERAGE MISS LATENCY: 191.7 cycles
cpu0->LLC TOTAL        ACCESS:    4986571 HIT:    1479158 MISS:    3507413 MSHR_MERGE:          0
cpu0->LLC LOAD         ACCESS:    2890048 HIT:     643465 MISS:    2246583 MSHR_MERGE:          0
cpu0->LLC RFO          ACCESS:        573 HIT:        572 MISS:          1 MSHR_MERGE:          0
cpu0->LLC PREFETCH     ACCESS:     499420 HIT:      20392 MISS:     479028 MSHR_MERGE:          0
cpu0->LLC WRITE        ACCESS:       2011 HIT:       2010 MISS:          1 MSHR_MERGE:          0
cpu0->LLC TRANSLATION  ACCESS:    1594519 HIT:     812719 MISS:     781800 MSHR_MERGE:          0
cpu0->LLC PREFETCH REQUESTED:          0 ISSUED:          0 USEFUL:          0 USELESS:          0 LATE:          0
cpu0->LLC AVERAGE MISS LATENCY: 204.4 cycles

DRAM Statistics

Channel 0 RQ ROW_BUFFER_HIT:      24003
  ROW_BUFFER_MISS:    3483409
  AVG DBUS CONGESTED CYCLE: 2.953
Channel 0 WQ ROW_BUFFER_HIT:          0
  ROW_BUFFER_MISS:          1
  FULL:          0
Channel 0 REFRESHES ISSUED:      30138

[ROI Statistics]
[System Configuration]
num_cpus 1
cpu_freq 4000
fetch_width 6
decode_width 6
dispatch_width 6
execute_width 6
lq_width 2
sq_width 2
retire_width 6
scheduler_size 128
branch_mispredict_penalty 15
rob_size 352
lq_size 128
sq_size 72
ifetch_buffer_size 64
decode_buffer_size 32
dispatch_buffer_size 32
register_file_size 288
decode_latency 1
dispatch_latency 1
schedule_latency 1
execute_latency 1
page_size 4096
block_size 64
core_0_itlb_set 16
core_0_itlb_way 4
core_0_itlb_rq_size 16
core_0_itlb_wq_size 16
core_0_itlb_pq_size 0
core_0_itlb_mshr_size 8
core_0_itlb_hit_latency 1
core_0_itlb_fill_latency 1
core_0_itlb_max_tag_check 2
core_0_itlb_max_fill 2
core_0_dtlb_set 16
core_0_dtlb_way 4
core_0_dtlb_rq_size 16
core_0_dtlb_wq_size 16
core_0_dtlb_pq_size 0
core_0_dtlb_mshr_size 8
core_0_dtlb_hit_latency 1
core_0_dtlb_fill_latency 1
core_0_dtlb_max_tag_check 2
core_0_dtlb_max_fill 2
core_0_stlb_set 128
core_0_stlb_way 12
core_0_stlb_rq_size 32
core_0_stlb_wq_size 32
core_0_stlb_pq_size 0
core_0_stlb_mshr_size 16
core_0_stlb_hit_latency 4
core_0_stlb_fill_latency 4
core_0_stlb_max_tag_check 1
core_0_stlb_max_fill 1
core_0_l1i_set 64
core_0_l1i_way 8
core_0_l1i_rq_size 64
core_0_l1i_wq_size 64
core_0_l1i_pq_size 32
core_0_l1i_mshr_size 8
core_0_l1i_hit_latency 2
core_0_l1i_fill_latency 2
core_0_l1i_max_tag_check 2
core_0_l1i_max_fill 2
core_0_l1d_set 64
core_0_l1d_way 12
core_0_l1d_rq_size 64
core_0_l1d_wq_size 64
core_0_l1d_pq_size 8
core_0_l1d_mshr_size 16
core_0_l1d_hit_latency 2
core_0_l1d_fill_latency 3
core_0_l1d_max_tag_check 2
core_0_l1d_max_fill 2
core_0_l2c_set 1024
core_0_l2c_way 8
core_0_l2c_rq_size 32
core_0_l2c_wq_size 32
core_0_l2c_pq_size 16
core_0_l2c_mshr_size 32
core_0_l2c_hit_latency 5
core_0_l2c_fill_latency 5
core_0_l2c_max_tag_check 1
core_0_l2c_max_fill 1
llc_set 2048
llc_way 16
llc_rq_size 32
llc_wq_size 32
llc_pq_size 32
llc_mshr_size 64
llc_hit_latency 10
llc_fill_latency 10
llc_max_tag_check 1
llc_max_fill 1
dram_channels 1
dram_ranks 1
dram_bankgroups 8
dram_banks 4
dram_rows 65536
dram_columns 1024
dram_channel_width 8
dram_rq_size 64
dram_wq_size 64
dram_size 17179869184
core_0_itlb_prefetcher no
core_0_dtlb_prefetcher no
core_0_stlb_prefetcher no
core_0_l1i_prefetcher next_line
core_0_l1d_prefetcher berti
core_0_l2c_prefetcher ip_stride
llc_prefetcher no
llc_replacement drrip

Core_0_instructions 50000002
Core_0_cycles 361666702
Core_0_IPC 0.138249
Core_0_branch_prediction_accuracy 87.2242
Core_0_branch_MPKI 21.5413
Core_0_average_ROB_occupancy_at_mispredict 25.5363

Core_0_ITLB_total_access 8525
Core_0_ITLB_total_hit 8525
Core_0_ITLB_total_miss 0
Core_0_ITLB_total_MPKI 0
Core_0_ITLB_total_miss_rate 0
Core_0_ITLB_demand_access 8525
Core_0_ITLB_demand_hit 8525
Core_0_ITLB_demand_miss 0
Core_0_ITLB_demand_MPKI 0
Core_0_ITLB_demand_miss_rate 0
Core_0_ITLB_load_access 8525
Core_0_ITLB_load_hit 8525
Core_0_ITLB_load_miss 0
Core_0_ITLB_load_MPKI 0
Core_0_ITLB_load_miss_rate 0
Core_0_ITLB_rfo_access 0
Core_0_ITLB_rfo_hit 0
Core_0_ITLB_rfo_miss 0
Core_0_ITLB_rfo_MPKI 0
Core_0_ITLB_rfo_miss_rate 0
Core_0_ITLB_prefetch_access 0
Core_0_ITLB_prefetch_hit 0
Core_0_ITLB_prefetch_miss 0
Core_0_ITLB_prefetch_MPKI 0
Core_0_ITLB_prefetch_miss_rate 0
Core_0_ITLB_writeback_access 0
Core_0_ITLB_writeback_hit 0
Core_0_ITLB_writeback_miss 0
Core_0_ITLB_writeback_MPKI 0
Core_0_ITLB_writeback_miss_rate 0
Core_0_ITLB_prefetch_requested 0
Core_0_ITLB_prefetch_issued 0
Core_0_ITLB_prefetch_useful 0
Core_0_ITLB_prefetch_useless 0
Core_0_ITLB_prefetch_late 0
Core_0_ITLB_prefetch_accuracy 0
Core_0_ITLB_prefetch_coverage 0
Core_0_ITLB_total_eviction 0

Core_0_DTLB_total_access 6041736
Core_0_DTLB_total_hit 3867846
Core_0_DTLB_total_miss 2173890
Core_0_DTLB_total_MPKI 43.4778
Core_0_DTLB_total_miss_rate 0.359812
Core_0_DTLB_demand_access 6041736
Core_0_DTLB_demand_hit 3867846
Core_0_DTLB_demand_miss 2173890
Core_0_DTLB_demand_MPKI 43.4778
Core_0_DTLB_demand_miss_rate 0.359812
Core_0_DTLB_load_access 6041736
Core_0_DTLB_load_hit 3867846
Core_0_DTLB_load_miss 2173890
Core_0_DTLB_load_MPKI 43.4778
Core_0_DTLB_load_miss_rate 0.359812
Core_0_DTLB_rfo_access 0
Core_0_DTLB_rfo_hit 0
Core_0_DTLB_rfo_miss 0
Core_0_DTLB_rfo_MPKI 0
Core_0_DTLB_rfo_miss_rate 0
Core_0_DTLB_prefetch_access 0
Core_0_DTLB_prefetch_hit 0
Core_0_DTLB_prefetch_miss 0
Core_0_DTLB_prefetch_MPKI 0
Core_0_DTLB_prefetch_miss_rate 0
Core_0_DTLB_writeback_access 0
Core_0_DTLB_writeback_hit 0
Core_0_DTLB_writeback_miss 0
Core_0_DTLB_writeback_MPKI 0
Core_0_DTLB_writeback_miss_rate 0
Core_0_DTLB_prefetch_requested 0
Core_0_DTLB_prefetch_issued 0
Core_0_DTLB_prefetch_useful 0
Core_0_DTLB_prefetch_useless 0
Core_0_DTLB_prefetch_late 0
Core_0_DTLB_prefetch_accuracy 0
Core_0_DTLB_prefetch_coverage 0
Core_0_DTLB_total_eviction 2068708

Core_0_STLB_total_access 2068702
Core_0_STLB_total_hit 146677
Core_0_STLB_total_miss 1922025
Core_0_STLB_total_MPKI 38.4405
Core_0_STLB_total_miss_rate 0.929097
Core_0_STLB_demand_access 2068702
Core_0_STLB_demand_hit 146677
Core_0_STLB_demand_miss 1922025
Core_0_STLB_demand_MPKI 38.4405
Core_0_STLB_demand_miss_rate 0.929097
Core_0_STLB_load_access 2068702
Core_0_STLB_load_hit 146677
Core_0_STLB_load_miss 1922025
Core_0_STLB_load_MPKI 38.4405
Core_0_STLB_load_miss_rate 0.929097
Core_0_STLB_rfo_access 0
Core_0_STLB_rfo_hit 0
Core_0_STLB_rfo_miss 0
Core_0_STLB_rfo_MPKI 0
Core_0_STLB_rfo_miss_rate 0
Core_0_STLB_prefetch_access 0
Core_0_STLB_prefetch_hit 0
Core_0_STLB_prefetch_miss 0
Core_0_STLB_prefetch_MPKI 0
Core_0_STLB_prefetch_miss_rate 0
Core_0_STLB_writeback_access 0
Core_0_STLB_writeback_hit 0
Core_0_STLB_writeback_miss 0
Core_0_STLB_writeback_MPKI 0
Core_0_STLB_writeback_miss_rate 0
Core_0_STLB_prefetch_requested 0
Core_0_STLB_prefetch_issued 0
Core_0_STLB_prefetch_useful 0
Core_0_STLB_prefetch_useless 0
Core_0_STLB_prefetch_late 0
Core_0_STLB_prefetch_accuracy 0
Core_0_STLB_prefetch_coverage 0
Core_0_STLB_total_eviction 2000945

Core_0_L1I_total_access 10506
Core_0_L1I_total_hit 10506
Core_0_L1I_total_miss 0
Core_0_L1I_total_MPKI 0
Core_0_L1I_total_miss_rate 0
Core_0_L1I_demand_access 10506
Core_0_L1I_demand_hit 10506
Core_0_L1I_demand_miss 0
Core_0_L1I_demand_MPKI 0
Core_0_L1I_demand_miss_rate 0
Core_0_L1I_load_access 10506
Core_0_L1I_load_hit 10506
Core_0_L1I_load_miss 0
Core_0_L1I_load_MPKI 0
Core_0_L1I_load_miss_rate 0
Core_0_L1I_rfo_access 0
Core_0_L1I_rfo_hit 0
Core_0_L1I_rfo_miss 0
Core_0_L1I_rfo_MPKI 0
Core_0_L1I_rfo_miss_rate 0
Core_0_L1I_prefetch_access 0
Core_0_L1I_prefetch_hit 0
Core_0_L1I_prefetch_miss 0
Core_0_L1I_prefetch_MPKI 0
Core_0_L1I_prefetch_miss_rate 0
Core_0_L1I_writeback_access 0
Core_0_L1I_writeback_hit 0
Core_0_L1I_writeback_miss 0
Core_0_L1I_writeback_MPKI 0
Core_0_L1I_writeback_miss_rate 0
Core_0_L1I_prefetch_requested 0
Core_0_L1I_prefetch_issued 0
Core_0_L1I_prefetch_useful 0
Core_0_L1I_prefetch_useless 0
Core_0_L1I_prefetch_late 0
Core_0_L1I_prefetch_accuracy 0
Core_0_L1I_prefetch_coverage 0
Core_0_L1I_total_eviction 0

Core_0_L1D_total_access 6140503
Core_0_L1D_total_hit 2647203
Core_0_L1D_total_miss 3493300
Core_0_L1D_total_MPKI 69.866
Core_0_L1D_total_miss_rate 0.568895
Core_0_L1D_demand_access 4780769
Core_0_L1D_demand_hit 1752490
Core_0_L1D_demand_miss 3028279
Core_0_L1D_demand_MPKI 60.5656
Core_0_L1D_demand_miss_rate 0.633429
Core_0_L1D_load_access 4780769
Core_0_L1D_load_hit 1752490
Core_0_L1D_load_miss 3028279
Core_0_L1D_load_MPKI 60.5656
Core_0_L1D_load_miss_rate 0.633429
Core_0_L1D_rfo_access 0
Core_0_L1D_rfo_hit 0
Core_0_L1D_rfo_miss 0
Core_0_L1D_rfo_MPKI 0
Core_0_L1D_rfo_miss_rate 0
Core_0_L1D_prefetch_access 454263
Core_0_L1D_prefetch_hit 19215
Core_0_L1D_prefetch_miss 435048
Core_0_L1D_prefetch_MPKI 8.70096
Core_0_L1D_prefetch_miss_rate 0.957701
Core_0_L1D_writeback_access 905471
Core_0_L1D_writeback_hit 875498
Core_0_L1D_writeback_miss 29973
Core_0_L1D_writeback_MPKI 0.59946
Core_0_L1D_writeback_miss_rate 0.0331021
Core_0_L1D_prefetch_requested 454266
Core_0_L1D_prefetch_issued 454263
Core_0_L1D_prefetch_useful 32039
Core_0_L1D_prefetch_useless 396069
Core_0_L1D_prefetch_late 2041
Core_0_L1D_prefetch_accuracy 0.0705296
Core_0_L1D_prefetch_coverage 0.0104692
Core_0_L1D_total_eviction 5077189

Core_0_L2C_total_access 3550191
Core_0_L2C_total_hit 157282
Core_0_L2C_total_miss 3392909
Core_0_L2C_total_MPKI 67.8582
Core_0_L2C_total_miss_rate 0.955698
Core_0_L2C_demand_access 2985071
Core_0_L2C_demand_hit 94449
Core_0_L2C_demand_miss 2890622
Core_0_L2C_demand_MPKI 57.8124
Core_0_L2C_demand_miss_rate 0.96836
Core_0_L2C_load_access 2977557
Core_0_L2C_load_hit 87508
Core_0_L2C_load_miss 2890049
Core_0_L2C_load_MPKI 57.801
Core_0_L2C_load_miss_rate 0.970611
Core_0_L2C_rfo_access 7514
Core_0_L2C_rfo_hit 6941
Core_0_L2C_rfo_miss 573
Core_0_L2C_rfo_MPKI 0.01146
Core_0_L2C_rfo_miss_rate 0.0762577
Core_0_L2C_prefetch_access 554462
Core_0_L2C_prefetch_hit 52199
Core_0_L2C_prefetch_miss 502263
Core_0_L2C_prefetch_MPKI 10.0453
Core_0_L2C_prefetch_miss_rate 0.905856
Core_0_L2C_writeback_access 10658
Core_0_L2C_writeback_hit 10634
Core_0_L2C_writeback_miss 24
Core_0_L2C_writeback_MPKI 0.00048
Core_0_L2C_writeback_miss_rate 0.00225183
Core_0_L2C_prefetch_requested 126305
Core_0_L2C_prefetch_issued 126305
Core_0_L2C_prefetch_useful 7834
Core_0_L2C_prefetch_useless 69667
Core_0_L2C_prefetch_late 1
Core_0_L2C_prefetch_accuracy 0.0620245
Core_0_L2C_prefetch_coverage 0.00270282
Core_0_L2C_total_eviction 4984535

Core_0_LLC_total_access 3392052
Core_0_LLC_total_hit 666439
Core_0_LLC_total_miss 2725613
Core_0_LLC_total_MPKI 54.5123
Core_0_LLC_total_miss_rate 0.803529
Core_0_LLC_demand_access 2890621
Core_0_LLC_demand_hit 644037
Core_0_LLC_demand_miss 2246584
Core_0_LLC_demand_MPKI 44.9317
Core_0_LLC_demand_miss_rate 0.777198
Core_0_LLC_load_access 2890048
Core_0_LLC_load_hit 643465
Core_0_LLC_load_miss 2246583
Core_0_LLC_load_MPKI 44.9317
Core_0_LLC_load_miss_rate 0.777351
Core_0_LLC_rfo_access 573
Core_0_LLC_rfo_hit 572
Core_0_LLC_rfo_miss 1
Core_0_LLC_rfo_MPKI 2e-05
Core_0_LLC_rfo_miss_rate 0.0017452
Core_0_LLC_prefetch_access 499420
Core_0_LLC_prefetch_hit 20392
Core_0_LLC_prefetch_miss 479028
Core_0_LLC_prefetch_MPKI 9.58056
Core_0_LLC_prefetch_miss_rate 0.959169
Core_0_LLC_writeback_access 2011
Core_0_LLC_writeback_hit 2010
Core_0_LLC_writeback_miss 1
Core_0_LLC_writeback_MPKI 2e-05
Core_0_LLC_writeback_miss_rate 0.000497265
Core_0_LLC_prefetch_requested 0
Core_0_LLC_prefetch_issued 0
Core_0_LLC_prefetch_useful 0
Core_0_LLC_prefetch_useless 0
Core_0_LLC_prefetch_late 0
Core_0_LLC_prefetch_accuracy 0
Core_0_LLC_prefetch_coverage 0
Core_0_LLC_total_eviction 3507413

[DRAM Statistics]
Channel_0_RQ_row_buffer_hit 24003
Channel_0_RQ_row_buffer_miss 3483409
Channel_0_WQ_row_buffer_hit 0
Channel_0_WQ_row_buffer_miss 1
Channel_0_WQ_full 0
Channel_0_dbus_congested 4283386
DRAM_total_RQ_row_buffer_hit 24003
DRAM_total_RQ_row_buffer_miss 3483409
DRAM_total_WQ_row_buffer_hit 0
DRAM_total_WQ_row_buffer_miss 1
DRAM_total_WQ_full 0
DRAM_total_dbus_congested 4283386
DRAM_avg_congested_cycle 2.95262

======STLB miss causes ========
Core_0_STLB_miss_cause_breakdown
Core_0_STLB_cause_Demand_Data_miss 1922025
Core_0_STLB_cause_Demand_Data_miss_rate 0.929097
Core_0_STLB_cause_Demand_Instruction_miss 0
Core_0_STLB_cause_Demand_Instruction_miss_rate 0
Core_0_STLB_cause_L1D_Prefetch_miss 0
Core_0_STLB_cause_L1D_Prefetch_miss_rate 0
Core_0_STLB_cause_L1I_Prefetch_miss 0
Core_0_STLB_cause_L1I_Prefetch_miss_rate 0
Core_0_STLB_cause_Other_miss 0
Core_0_STLB_cause_Other_miss_rate 0
Core_0_STLB_Demand_miss 1922025
Core_0_STLB_Demand_miss_rate 0.929097
Core_0_STLB_L1D_Prefetch_miss 0
Core_0_STLB_L1D_Prefetch_miss_rate 0
Core_0_STLB_Other_miss 0
Core_0_STLB_Other_miss_rate 0
