[VMEM] WARNING: physical memory size is smaller than virtual memory size.

*** ChampSim Multicore Out-of-Order Simulator ***
Warmup Instructions: 20000000
Simulation Instructions: 50000000
Number of CPUs: 1
Page size: 4096
STLB ideal mode: l1pref
STLB ideal fill: on
Core 0: /data2/zcq/champsim_traces_xsbench/xs.XXL100hash-563B.champsimtrace.xz
 L1D Berti prefetcher
Off-chip DRAM Size: 16 GiB Channels: 1 Width: 64-bit Data Rate: 3205 MT/s
Warmup halting CPU 0 at instruction 20000004 cycle 13900278 for remainder of phase
Warmup finished CPU 0 instructions: 20000004 cycles: 13900278 cumulative IPC: 1.439 (Simulation time: 00 hr 02 min 05 sec)
Warmup complete CPU 0 instructions: 20000004 cycles: 13900278 cumulative IPC: 1.439 (Simulation time: 00 hr 02 min 05 sec)
Simulation finished CPU 0 instructions: 50000000 cycles: 261963217 cumulative IPC: 0.1909 (Simulation time: 00 hr 18 min 46 sec)
Simulation complete CPU 0 instructions: 50000000 cycles: 261963217 cumulative IPC: 0.1909 (Simulation time: 00 hr 18 min 46 sec)

ChampSim completed all CPUs

=== Simulation ===
CPU 0 runs /data2/zcq/champsim_traces_xsbench/xs.XXL100hash-563B.champsimtrace.xz

Region of Interest Statistics

CPU 0 cumulative IPC: 0.1909 instructions: 50000000 cycles: 261963217
CPU 0 Branch Prediction Accuracy: 92.96% MPKI: 10.17 Average ROB Occupancy at Mispredict: 64.78
Branch type MPKI
BRANCH_DIRECT_JUMP: 2e-05
BRANCH_INDIRECT: 0
BRANCH_CONDITIONAL: 10.17
BRANCH_DIRECT_CALL: 0
BRANCH_INDIRECT_CALL: 0
BRANCH_RETURN: 0

cpu0->cpu0_STLB TOTAL        ACCESS:     481028 HIT:      14437 MISS:     466591 MSHR_MERGE:          0
cpu0->cpu0_STLB LOAD         ACCESS:     481028 HIT:      14437 MISS:     466591 MSHR_MERGE:          0
cpu0->cpu0_STLB RFO          ACCESS:          0 HIT:          0 MISS:          0 MSHR_MERGE:          0
cpu0->cpu0_STLB PREFETCH     ACCESS:          0 HIT:          0 MISS:          0 MSHR_MERGE:          0
cpu0->cpu0_STLB WRITE        ACCESS:          0 HIT:          0 MISS:          0 MSHR_MERGE:          0
cpu0->cpu0_STLB TRANSLATION  ACCESS:          0 HIT:          0 MISS:          0 MSHR_MERGE:          0
cpu0->cpu0_STLB PREFETCH REQUESTED:          0 ISSUED:          0 USEFUL:          0 USELESS:          0 LATE:          0
cpu0->cpu0_STLB AVERAGE MISS LATENCY: 410.8 cycles
cpu0->cpu0_L2C TOTAL        ACCESS:    3815684 HIT:     309318 MISS:    3506366 MSHR_MERGE:      28222
cpu0->cpu0_L2C LOAD         ACCESS:    2134515 HIT:      27782 MISS:    2106733 MSHR_MERGE:        898
cpu0->cpu0_L2C RFO          ACCESS:       7706 HIT:       7630 MISS:         76 MSHR_MERGE:          0
cpu0->cpu0_L2C PREFETCH     ACCESS:    1085365 HIT:      84535 MISS:    1000830 MSHR_MERGE:      27324
cpu0->cpu0_L2C WRITE        ACCESS:       9946 HIT:       9857 MISS:         89 MSHR_MERGE:          0
cpu0->cpu0_L2C TRANSLATION  ACCESS:     578152 HIT:     179514 MISS:     398638 MSHR_MERGE:          0
cpu0->cpu0_L2C PREFETCH REQUESTED:     208755 ISSUED:     208755 USEFUL:      12741 USELESS:     123008 LATE:        898
cpu0->cpu0_L2C AVERAGE MISS LATENCY: 223.3 cycles
cpu0->cpu0_L1I TOTAL        ACCESS:     168792 HIT:     168792 MISS:          0 MSHR_MERGE:          0
cpu0->cpu0_L1I LOAD         ACCESS:     168792 HIT:     168792 MISS:          0 MSHR_MERGE:          0
cpu0->cpu0_L1I RFO          ACCESS:          0 HIT:          0 MISS:          0 MSHR_MERGE:          0
cpu0->cpu0_L1I PREFETCH     ACCESS:          0 HIT:          0 MISS:          0 MSHR_MERGE:          0
cpu0->cpu0_L1I WRITE        ACCESS:          0 HIT:          0 MISS:          0 MSHR_MERGE:          0
cpu0->cpu0_L1I TRANSLATION  ACCESS:          0 HIT:          0 MISS:          0 MSHR_MERGE:          0
cpu0->cpu0_L1I PREFETCH REQUESTED:          0 ISSUED:          0 USEFUL:          0 USELESS:          0 LATE:          0
cpu0->cpu0_L1I AVERAGE MISS LATENCY: - cycles
cpu0->cpu0_L1D TOTAL        ACCESS:   10650948 HIT:    6345499 MISS:    4305449 MSHR_MERGE:     708455
cpu0->cpu0_L1D LOAD         ACCESS:    6934266 HIT:    4328206 MISS:    2606060 MSHR_MERGE:     471545
cpu0->cpu0_L1D RFO          ACCESS:          0 HIT:          0 MISS:          0 MSHR_MERGE:          0
cpu0->cpu0_L1D PREFETCH     ACCESS:     985648 HIT:      48521 MISS:     937127 MSHR_MERGE:      60517
cpu0->cpu0_L1D WRITE        ACCESS:    1628408 HIT:    1608683 MISS:      19725 MSHR_MERGE:      12008
cpu0->cpu0_L1D TRANSLATION  ACCESS:    1102626 HIT:     360089 MISS:     742537 MSHR_MERGE:     164385
cpu0->cpu0_L1D PREFETCH REQUESTED:     985672 ISSUED:     985648 USEFUL:     138024 USELESS:     738428 LATE:      17687
cpu0->cpu0_L1D AVERAGE MISS LATENCY: 214.7 cycles
cpu0->cpu0_ITLB TOTAL        ACCESS:     140675 HIT:     140675 MISS:          0 MSHR_MERGE:          0
cpu0->cpu0_ITLB LOAD         ACCESS:     140675 HIT:     140675 MISS:          0 MSHR_MERGE:          0
cpu0->cpu0_ITLB RFO          ACCESS:          0 HIT:          0 MISS:          0 MSHR_MERGE:          0
cpu0->cpu0_ITLB PREFETCH     ACCESS:          0 HIT:          0 MISS:          0 MSHR_MERGE:          0
cpu0->cpu0_ITLB WRITE        ACCESS:          0 HIT:          0 MISS:          0 MSHR_MERGE:          0
cpu0->cpu0_ITLB TRANSLATION  ACCESS:          0 HIT:          0 MISS:          0 MSHR_MERGE:          0
cpu0->cpu0_ITLB PREFETCH REQUESTED:          0 ISSUED:          0 USEFUL:          0 USELESS:          0 LATE:          0
cpu0->cpu0_ITLB AVERAGE MISS LATENCY: - cycles
cpu0->cpu0_DTLB TOTAL        ACCESS:    9150733 HIT:    7433494 MISS:    1717239 MSHR_MERGE:    1236211
cpu0->cpu0_DTLB LOAD         ACCESS:    9150733 HIT:    7433494 MISS:    1717239 MSHR_MERGE:    1236211
cpu0->cpu0_DTLB RFO          ACCESS:          0 HIT:          0 MISS:          0 MSHR_MERGE:          0
cpu0->cpu0_DTLB PREFETCH     ACCESS:          0 HIT:          0 MISS:          0 MSHR_MERGE:          0
cpu0->cpu0_DTLB WRITE        ACCESS:          0 HIT:          0 MISS:          0 MSHR_MERGE:          0
cpu0->cpu0_DTLB TRANSLATION  ACCESS:          0 HIT:          0 MISS:          0 MSHR_MERGE:          0
cpu0->cpu0_DTLB PREFETCH REQUESTED:          0 ISSUED:          0 USEFUL:          0 USELESS:          0 LATE:          0
cpu0->cpu0_DTLB AVERAGE MISS LATENCY: 404.4 cycles
cpu0->LLC TOTAL        ACCESS:    3478639 HIT:     113284 MISS:    3365355 MSHR_MERGE:         72
cpu0->LLC LOAD         ACCESS:    2105835 HIT:       7512 MISS:    2098323 MSHR_MERGE:         14
cpu0->LLC RFO          ACCESS:         76 HIT:         76 MISS:          0 MSHR_MERGE:          0
cpu0->LLC PREFETCH     ACCESS:     973506 HIT:      12840 MISS:     960666 MSHR_MERGE:         58
cpu0->LLC WRITE        ACCESS:        584 HIT:        575 MISS:          9 MSHR_MERGE:          0
cpu0->LLC TRANSLATION  ACCESS:     398638 HIT:      92281 MISS:     306357 MSHR_MERGE:          0
cpu0->LLC PREFETCH REQUESTED:          0 ISSUED:          0 USEFUL:          0 USELESS:          0 LATE:          0
cpu0->LLC AVERAGE MISS LATENCY: 216 cycles

DRAM Statistics

Channel 0 RQ ROW_BUFFER_HIT:      77008
  ROW_BUFFER_MISS:    3288265
  AVG DBUS CONGESTED CYCLE: 3.031
Channel 0 WQ ROW_BUFFER_HIT:          3
  ROW_BUFFER_MISS:          4
  FULL:          0
Channel 0 REFRESHES ISSUED:      21830

[ROI Statistics]
[System Configuration]
num_cpus 1
cpu_freq 4000
fetch_width 6
decode_width 6
dispatch_width 6
execute_width 6
lq_width 2
sq_width 2
retire_width 6
scheduler_size 128
branch_mispredict_penalty 15
rob_size 352
lq_size 128
sq_size 72
ifetch_buffer_size 64
decode_buffer_size 32
dispatch_buffer_size 32
register_file_size 288
decode_latency 1
dispatch_latency 1
schedule_latency 1
execute_latency 1
page_size 4096
block_size 64
core_0_itlb_set 16
core_0_itlb_way 4
core_0_itlb_rq_size 16
core_0_itlb_wq_size 16
core_0_itlb_pq_size 0
core_0_itlb_mshr_size 8
core_0_itlb_hit_latency 1
core_0_itlb_fill_latency 1
core_0_itlb_max_tag_check 2
core_0_itlb_max_fill 2
core_0_dtlb_set 16
core_0_dtlb_way 4
core_0_dtlb_rq_size 16
core_0_dtlb_wq_size 16
core_0_dtlb_pq_size 0
core_0_dtlb_mshr_size 8
core_0_dtlb_hit_latency 1
core_0_dtlb_fill_latency 1
core_0_dtlb_max_tag_check 2
core_0_dtlb_max_fill 2
core_0_stlb_set 128
core_0_stlb_way 12
core_0_stlb_rq_size 32
core_0_stlb_wq_size 32
core_0_stlb_pq_size 0
core_0_stlb_mshr_size 16
core_0_stlb_hit_latency 4
core_0_stlb_fill_latency 4
core_0_stlb_max_tag_check 1
core_0_stlb_max_fill 1
core_0_l1i_set 64
core_0_l1i_way 8
core_0_l1i_rq_size 64
core_0_l1i_wq_size 64
core_0_l1i_pq_size 32
core_0_l1i_mshr_size 8
core_0_l1i_hit_latency 2
core_0_l1i_fill_latency 2
core_0_l1i_max_tag_check 2
core_0_l1i_max_fill 2
core_0_l1d_set 64
core_0_l1d_way 12
core_0_l1d_rq_size 64
core_0_l1d_wq_size 64
core_0_l1d_pq_size 8
core_0_l1d_mshr_size 16
core_0_l1d_hit_latency 2
core_0_l1d_fill_latency 3
core_0_l1d_max_tag_check 2
core_0_l1d_max_fill 2
core_0_l2c_set 1024
core_0_l2c_way 8
core_0_l2c_rq_size 32
core_0_l2c_wq_size 32
core_0_l2c_pq_size 16
core_0_l2c_mshr_size 32
core_0_l2c_hit_latency 5
core_0_l2c_fill_latency 5
core_0_l2c_max_tag_check 1
core_0_l2c_max_fill 1
llc_set 2048
llc_way 16
llc_rq_size 32
llc_wq_size 32
llc_pq_size 32
llc_mshr_size 64
llc_hit_latency 10
llc_fill_latency 10
llc_max_tag_check 1
llc_max_fill 1
dram_channels 1
dram_ranks 1
dram_bankgroups 8
dram_banks 4
dram_rows 65536
dram_columns 1024
dram_channel_width 8
dram_rq_size 64
dram_wq_size 64
dram_size 17179869184
core_0_itlb_prefetcher no
core_0_dtlb_prefetcher no
core_0_stlb_prefetcher no
core_0_l1i_prefetcher next_line
core_0_l1d_prefetcher berti
core_0_l2c_prefetcher ip_stride
llc_prefetcher no
llc_replacement drrip

Core_0_instructions 50000000
Core_0_cycles 261963217
Core_0_IPC 0.190866
Core_0_branch_prediction_accuracy 92.9578
Core_0_branch_MPKI 10.1736
Core_0_average_ROB_occupancy_at_mispredict 64.7754

Core_0_ITLB_total_access 140675
Core_0_ITLB_total_hit 140675
Core_0_ITLB_total_miss 0
Core_0_ITLB_total_MPKI 0
Core_0_ITLB_total_miss_rate 0
Core_0_ITLB_demand_access 140675
Core_0_ITLB_demand_hit 140675
Core_0_ITLB_demand_miss 0
Core_0_ITLB_demand_MPKI 0
Core_0_ITLB_demand_miss_rate 0
Core_0_ITLB_load_access 140675
Core_0_ITLB_load_hit 140675
Core_0_ITLB_load_miss 0
Core_0_ITLB_load_MPKI 0
Core_0_ITLB_load_miss_rate 0
Core_0_ITLB_rfo_access 0
Core_0_ITLB_rfo_hit 0
Core_0_ITLB_rfo_miss 0
Core_0_ITLB_rfo_MPKI 0
Core_0_ITLB_rfo_miss_rate 0
Core_0_ITLB_prefetch_access 0
Core_0_ITLB_prefetch_hit 0
Core_0_ITLB_prefetch_miss 0
Core_0_ITLB_prefetch_MPKI 0
Core_0_ITLB_prefetch_miss_rate 0
Core_0_ITLB_writeback_access 0
Core_0_ITLB_writeback_hit 0
Core_0_ITLB_writeback_miss 0
Core_0_ITLB_writeback_MPKI 0
Core_0_ITLB_writeback_miss_rate 0
Core_0_ITLB_prefetch_requested 0
Core_0_ITLB_prefetch_issued 0
Core_0_ITLB_prefetch_useful 0
Core_0_ITLB_prefetch_useless 0
Core_0_ITLB_prefetch_late 0
Core_0_ITLB_prefetch_accuracy 0
Core_0_ITLB_prefetch_coverage 0
Core_0_ITLB_total_eviction 0

Core_0_DTLB_total_access 9150733
Core_0_DTLB_total_hit 7433494
Core_0_DTLB_total_miss 1717239
Core_0_DTLB_total_MPKI 34.3448
Core_0_DTLB_total_miss_rate 0.187661
Core_0_DTLB_demand_access 9150733
Core_0_DTLB_demand_hit 7433494
Core_0_DTLB_demand_miss 1717239
Core_0_DTLB_demand_MPKI 34.3448
Core_0_DTLB_demand_miss_rate 0.187661
Core_0_DTLB_load_access 9150733
Core_0_DTLB_load_hit 7433494
Core_0_DTLB_load_miss 1717239
Core_0_DTLB_load_MPKI 34.3448
Core_0_DTLB_load_miss_rate 0.187661
Core_0_DTLB_rfo_access 0
Core_0_DTLB_rfo_hit 0
Core_0_DTLB_rfo_miss 0
Core_0_DTLB_rfo_MPKI 0
Core_0_DTLB_rfo_miss_rate 0
Core_0_DTLB_prefetch_access 0
Core_0_DTLB_prefetch_hit 0
Core_0_DTLB_prefetch_miss 0
Core_0_DTLB_prefetch_MPKI 0
Core_0_DTLB_prefetch_miss_rate 0
Core_0_DTLB_writeback_access 0
Core_0_DTLB_writeback_hit 0
Core_0_DTLB_writeback_miss 0
Core_0_DTLB_writeback_MPKI 0
Core_0_DTLB_writeback_miss_rate 0
Core_0_DTLB_prefetch_requested 0
Core_0_DTLB_prefetch_issued 0
Core_0_DTLB_prefetch_useful 0
Core_0_DTLB_prefetch_useless 0
Core_0_DTLB_prefetch_late 0
Core_0_DTLB_prefetch_accuracy 0
Core_0_DTLB_prefetch_coverage 0
Core_0_DTLB_total_eviction 481032

Core_0_STLB_total_access 481028
Core_0_STLB_total_hit 14437
Core_0_STLB_total_miss 466591
Core_0_STLB_total_MPKI 9.33182
Core_0_STLB_total_miss_rate 0.969987
Core_0_STLB_demand_access 481028
Core_0_STLB_demand_hit 14437
Core_0_STLB_demand_miss 466591
Core_0_STLB_demand_MPKI 9.33182
Core_0_STLB_demand_miss_rate 0.969987
Core_0_STLB_load_access 481028
Core_0_STLB_load_hit 14437
Core_0_STLB_load_miss 466591
Core_0_STLB_load_MPKI 9.33182
Core_0_STLB_load_miss_rate 0.969987
Core_0_STLB_rfo_access 0
Core_0_STLB_rfo_hit 0
Core_0_STLB_rfo_miss 0
Core_0_STLB_rfo_MPKI 0
Core_0_STLB_rfo_miss_rate 0
Core_0_STLB_prefetch_access 0
Core_0_STLB_prefetch_hit 0
Core_0_STLB_prefetch_miss 0
Core_0_STLB_prefetch_MPKI 0
Core_0_STLB_prefetch_miss_rate 0
Core_0_STLB_writeback_access 0
Core_0_STLB_writeback_hit 0
Core_0_STLB_writeback_miss 0
Core_0_STLB_writeback_MPKI 0
Core_0_STLB_writeback_miss_rate 0
Core_0_STLB_prefetch_requested 0
Core_0_STLB_prefetch_issued 0
Core_0_STLB_prefetch_useful 0
Core_0_STLB_prefetch_useless 0
Core_0_STLB_prefetch_late 0
Core_0_STLB_prefetch_accuracy 0
Core_0_STLB_prefetch_coverage 0
Core_0_STLB_total_eviction 473253

Core_0_L1I_total_access 168792
Core_0_L1I_total_hit 168792
Core_0_L1I_total_miss 0
Core_0_L1I_total_MPKI 0
Core_0_L1I_total_miss_rate 0
Core_0_L1I_demand_access 168792
Core_0_L1I_demand_hit 168792
Core_0_L1I_demand_miss 0
Core_0_L1I_demand_MPKI 0
Core_0_L1I_demand_miss_rate 0
Core_0_L1I_load_access 168792
Core_0_L1I_load_hit 168792
Core_0_L1I_load_miss 0
Core_0_L1I_load_MPKI 0
Core_0_L1I_load_miss_rate 0
Core_0_L1I_rfo_access 0
Core_0_L1I_rfo_hit 0
Core_0_L1I_rfo_miss 0
Core_0_L1I_rfo_MPKI 0
Core_0_L1I_rfo_miss_rate 0
Core_0_L1I_prefetch_access 0
Core_0_L1I_prefetch_hit 0
Core_0_L1I_prefetch_miss 0
Core_0_L1I_prefetch_MPKI 0
Core_0_L1I_prefetch_miss_rate 0
Core_0_L1I_writeback_access 0
Core_0_L1I_writeback_hit 0
Core_0_L1I_writeback_miss 0
Core_0_L1I_writeback_MPKI 0
Core_0_L1I_writeback_miss_rate 0
Core_0_L1I_prefetch_requested 0
Core_0_L1I_prefetch_issued 0
Core_0_L1I_prefetch_useful 0
Core_0_L1I_prefetch_useless 0
Core_0_L1I_prefetch_late 0
Core_0_L1I_prefetch_accuracy 0
Core_0_L1I_prefetch_coverage 0
Core_0_L1I_total_eviction 0

Core_0_L1D_total_access 9548322
Core_0_L1D_total_hit 5985410
Core_0_L1D_total_miss 3562912
Core_0_L1D_total_MPKI 71.2582
Core_0_L1D_total_miss_rate 0.373145
Core_0_L1D_demand_access 6934266
Core_0_L1D_demand_hit 4328206
Core_0_L1D_demand_miss 2606060
Core_0_L1D_demand_MPKI 52.1212
Core_0_L1D_demand_miss_rate 0.375823
Core_0_L1D_load_access 6934266
Core_0_L1D_load_hit 4328206
Core_0_L1D_load_miss 2606060
Core_0_L1D_load_MPKI 52.1212
Core_0_L1D_load_miss_rate 0.375823
Core_0_L1D_rfo_access 0
Core_0_L1D_rfo_hit 0
Core_0_L1D_rfo_miss 0
Core_0_L1D_rfo_MPKI 0
Core_0_L1D_rfo_miss_rate 0
Core_0_L1D_prefetch_access 985648
Core_0_L1D_prefetch_hit 48521
Core_0_L1D_prefetch_miss 937127
Core_0_L1D_prefetch_MPKI 18.7425
Core_0_L1D_prefetch_miss_rate 0.950772
Core_0_L1D_writeback_access 1628408
Core_0_L1D_writeback_hit 1608683
Core_0_L1D_writeback_miss 19725
Core_0_L1D_writeback_MPKI 0.3945
Core_0_L1D_writeback_miss_rate 0.0121131
Core_0_L1D_prefetch_requested 985672
Core_0_L1D_prefetch_issued 985648
Core_0_L1D_prefetch_useful 138024
Core_0_L1D_prefetch_useless 738428
Core_0_L1D_prefetch_late 17687
Core_0_L1D_prefetch_accuracy 0.140034
Core_0_L1D_prefetch_coverage 0.0502988
Core_0_L1D_total_eviction 3596993

Core_0_L2C_total_access 3237532
Core_0_L2C_total_hit 129804
Core_0_L2C_total_miss 3107728
Core_0_L2C_total_MPKI 62.1546
Core_0_L2C_total_miss_rate 0.959906
Core_0_L2C_demand_access 2142221
Core_0_L2C_demand_hit 35412
Core_0_L2C_demand_miss 2106809
Core_0_L2C_demand_MPKI 42.1362
Core_0_L2C_demand_miss_rate 0.983469
Core_0_L2C_load_access 2134515
Core_0_L2C_load_hit 27782
Core_0_L2C_load_miss 2106733
Core_0_L2C_load_MPKI 42.1347
Core_0_L2C_load_miss_rate 0.986984
Core_0_L2C_rfo_access 7706
Core_0_L2C_rfo_hit 7630
Core_0_L2C_rfo_miss 76
Core_0_L2C_rfo_MPKI 0.00152
Core_0_L2C_rfo_miss_rate 0.00986244
Core_0_L2C_prefetch_access 1085365
Core_0_L2C_prefetch_hit 84535
Core_0_L2C_prefetch_miss 1000830
Core_0_L2C_prefetch_MPKI 20.0166
Core_0_L2C_prefetch_miss_rate 0.922114
Core_0_L2C_writeback_access 9946
Core_0_L2C_writeback_hit 9857
Core_0_L2C_writeback_miss 89
Core_0_L2C_writeback_MPKI 0.00178
Core_0_L2C_writeback_miss_rate 0.00894832
Core_0_L2C_prefetch_requested 208755
Core_0_L2C_prefetch_issued 208755
Core_0_L2C_prefetch_useful 12741
Core_0_L2C_prefetch_useless 123008
Core_0_L2C_prefetch_late 898
Core_0_L2C_prefetch_accuracy 0.0610333
Core_0_L2C_prefetch_coverage 0.00601118
Core_0_L2C_total_eviction 3476973

Core_0_LLC_total_access 3080001
Core_0_LLC_total_hit 21003
Core_0_LLC_total_miss 3058998
Core_0_LLC_total_MPKI 61.18
Core_0_LLC_total_miss_rate 0.993181
Core_0_LLC_demand_access 2105911
Core_0_LLC_demand_hit 7588
Core_0_LLC_demand_miss 2098323
Core_0_LLC_demand_MPKI 41.9665
Core_0_LLC_demand_miss_rate 0.996397
Core_0_LLC_load_access 2105835
Core_0_LLC_load_hit 7512
Core_0_LLC_load_miss 2098323
Core_0_LLC_load_MPKI 41.9665
Core_0_LLC_load_miss_rate 0.996433
Core_0_LLC_rfo_access 76
Core_0_LLC_rfo_hit 76
Core_0_LLC_rfo_miss 0
Core_0_LLC_rfo_MPKI 0
Core_0_LLC_rfo_miss_rate 0
Core_0_LLC_prefetch_access 973506
Core_0_LLC_prefetch_hit 12840
Core_0_LLC_prefetch_miss 960666
Core_0_LLC_prefetch_MPKI 19.2133
Core_0_LLC_prefetch_miss_rate 0.986811
Core_0_LLC_writeback_access 584
Core_0_LLC_writeback_hit 575
Core_0_LLC_writeback_miss 9
Core_0_LLC_writeback_MPKI 0.00018
Core_0_LLC_writeback_miss_rate 0.015411
Core_0_LLC_prefetch_requested 0
Core_0_LLC_prefetch_issued 0
Core_0_LLC_prefetch_useful 0
Core_0_LLC_prefetch_useless 0
Core_0_LLC_prefetch_late 0
Core_0_LLC_prefetch_accuracy 0
Core_0_LLC_prefetch_coverage 0
Core_0_LLC_total_eviction 3365282

[DRAM Statistics]
Channel_0_RQ_row_buffer_hit 77008
Channel_0_RQ_row_buffer_miss 3288265
Channel_0_WQ_row_buffer_hit 3
Channel_0_WQ_row_buffer_miss 4
Channel_0_WQ_full 0
Channel_0_dbus_congested 6326209
DRAM_total_RQ_row_buffer_hit 77008
DRAM_total_RQ_row_buffer_miss 3288265
DRAM_total_WQ_row_buffer_hit 3
DRAM_total_WQ_row_buffer_miss 4
DRAM_total_WQ_full 0
DRAM_total_dbus_congested 6326209
DRAM_avg_congested_cycle 3.03096

======STLB miss causes ========
Core_0_STLB_miss_cause_breakdown
Core_0_STLB_cause_Demand_Data_miss 466591
Core_0_STLB_cause_Demand_Data_miss_rate 0.969987
Core_0_STLB_cause_Demand_Instruction_miss 0
Core_0_STLB_cause_Demand_Instruction_miss_rate 0
Core_0_STLB_cause_L1D_Prefetch_miss 0
Core_0_STLB_cause_L1D_Prefetch_miss_rate 0
Core_0_STLB_cause_L1I_Prefetch_miss 0
Core_0_STLB_cause_L1I_Prefetch_miss_rate 0
Core_0_STLB_cause_Other_miss 0
Core_0_STLB_cause_Other_miss_rate 0
Core_0_STLB_Demand_miss 466591
Core_0_STLB_Demand_miss_rate 0.969987
Core_0_STLB_L1D_Prefetch_miss 0
Core_0_STLB_L1D_Prefetch_miss_rate 0
Core_0_STLB_Other_miss 0
Core_0_STLB_Other_miss_rate 0
