[VMEM] WARNING: physical memory size is smaller than virtual memory size.

*** ChampSim Multicore Out-of-Order Simulator ***
Warmup Instructions: 20000000
Simulation Instructions: 50000000
Number of CPUs: 1
Page size: 4096
Core 0: /data0/tzh/champsim_traces/SPEC06/433.milc-274B.champsimtrace.xz
 L1D Berti prefetcher
Off-chip DRAM Size: 16 GiB Channels: 1 Width: 64-bit Data Rate: 3205 MT/s
Warmup halting CPU 0 at instruction 20000002 cycle 6917714 for remainder of phase
Warmup finished CPU 0 instructions: 20000002 cycles: 6917714 cumulative IPC: 2.891 (Simulation time: 00 hr 01 min 13 sec)
Warmup complete CPU 0 instructions: 20000002 cycles: 6917714 cumulative IPC: 2.891 (Simulation time: 00 hr 01 min 13 sec)
Simulation finished CPU 0 instructions: 50000003 cycles: 54858007 cumulative IPC: 0.9114 (Simulation time: 00 hr 08 min 32 sec)
Simulation complete CPU 0 instructions: 50000003 cycles: 54858007 cumulative IPC: 0.9114 (Simulation time: 00 hr 08 min 32 sec)

ChampSim completed all CPUs

=== Simulation ===
CPU 0 runs /data0/tzh/champsim_traces/SPEC06/433.milc-274B.champsimtrace.xz

Region of Interest Statistics

CPU 0 cumulative IPC: 0.9114 instructions: 50000003 cycles: 54858007
CPU 0 Branch Prediction Accuracy: 96.62% MPKI: 1.53 Average ROB Occupancy at Mispredict: 213.6
Branch type MPKI
BRANCH_DIRECT_JUMP: 0.00014
BRANCH_INDIRECT: 0
BRANCH_CONDITIONAL: 0.7652
BRANCH_DIRECT_CALL: 0.00018
BRANCH_INDIRECT_CALL: 0
BRANCH_RETURN: 0.7646

cpu0->cpu0_STLB TOTAL        ACCESS:      74229 HIT:      18313 MISS:      55916 MSHR_MERGE:          0
cpu0->cpu0_STLB LOAD         ACCESS:      74229 HIT:      18313 MISS:      55916 MSHR_MERGE:          0
cpu0->cpu0_STLB RFO          ACCESS:          0 HIT:          0 MISS:          0 MSHR_MERGE:          0
cpu0->cpu0_STLB PREFETCH     ACCESS:          0 HIT:          0 MISS:          0 MSHR_MERGE:          0
cpu0->cpu0_STLB WRITE        ACCESS:          0 HIT:          0 MISS:          0 MSHR_MERGE:          0
cpu0->cpu0_STLB TRANSLATION  ACCESS:          0 HIT:          0 MISS:          0 MSHR_MERGE:          0
cpu0->cpu0_STLB PREFETCH REQUESTED:          0 ISSUED:          0 USEFUL:          0 USELESS:          0 LATE:          0
cpu0->cpu0_STLB AVERAGE MISS LATENCY: 241.7 cycles
cpu0->cpu0_L2C TOTAL        ACCESS:    1431321 HIT:     506132 MISS:     925189 MSHR_MERGE:          0
cpu0->cpu0_L2C LOAD         ACCESS:     164887 HIT:          1 MISS:     164886 MSHR_MERGE:          0
cpu0->cpu0_L2C RFO          ACCESS:     391183 HIT:          0 MISS:     391183 MSHR_MERGE:          0
cpu0->cpu0_L2C PREFETCH     ACCESS:     362080 HIT:         32 MISS:     362048 MSHR_MERGE:          0
cpu0->cpu0_L2C WRITE        ACCESS:     505840 HIT:     505834 MISS:          6 MSHR_MERGE:          0
cpu0->cpu0_L2C TRANSLATION  ACCESS:       7331 HIT:        265 MISS:       7066 MSHR_MERGE:          0
cpu0->cpu0_L2C PREFETCH REQUESTED:          0 ISSUED:          0 USEFUL:          0 USELESS:          0 LATE:          0
cpu0->cpu0_L2C AVERAGE MISS LATENCY: 523.8 cycles
cpu0->cpu0_L1I TOTAL        ACCESS:    6666548 HIT:    6666480 MISS:         68 MSHR_MERGE:         18
cpu0->cpu0_L1I LOAD         ACCESS:    6666548 HIT:    6666480 MISS:         68 MSHR_MERGE:         18
cpu0->cpu0_L1I RFO          ACCESS:          0 HIT:          0 MISS:          0 MSHR_MERGE:          0
cpu0->cpu0_L1I PREFETCH     ACCESS:          0 HIT:          0 MISS:          0 MSHR_MERGE:          0
cpu0->cpu0_L1I WRITE        ACCESS:          0 HIT:          0 MISS:          0 MSHR_MERGE:          0
cpu0->cpu0_L1I TRANSLATION  ACCESS:          0 HIT:          0 MISS:          0 MSHR_MERGE:          0
cpu0->cpu0_L1I PREFETCH REQUESTED:          0 ISSUED:          0 USEFUL:          0 USELESS:          0 LATE:          0
cpu0->cpu0_L1I AVERAGE MISS LATENCY: 267.6 cycles
cpu0->cpu0_L1D TOTAL        ACCESS:   12331056 HIT:    7796755 MISS:    4534301 MSHR_MERGE:    3608869
cpu0->cpu0_L1D LOAD         ACCESS:    6373713 HIT:    5380963 MISS:     992750 MSHR_MERGE:     827913
cpu0->cpu0_L1D RFO          ACCESS:          0 HIT:          0 MISS:          0 MSHR_MERGE:          0
cpu0->cpu0_L1D PREFETCH     ACCESS:     438070 HIT:      17912 MISS:     420158 MSHR_MERGE:      58077
cpu0->cpu0_L1D WRITE        ACCESS:    5407322 HIT:    2293260 MISS:    3114062 MSHR_MERGE:    2722879
cpu0->cpu0_L1D TRANSLATION  ACCESS:     111951 HIT:     104620 MISS:       7331 MSHR_MERGE:          0
cpu0->cpu0_L1D PREFETCH REQUESTED:     438219 ISSUED:     438075 USEFUL:     358705 USELESS:       3386 LATE:      15210
cpu0->cpu0_L1D AVERAGE MISS LATENCY: 523.7 cycles
cpu0->cpu0_ITLB TOTAL        ACCESS:    5705787 HIT:    5705780 MISS:          7 MSHR_MERGE:          2
cpu0->cpu0_ITLB LOAD         ACCESS:    5705787 HIT:    5705780 MISS:          7 MSHR_MERGE:          2
cpu0->cpu0_ITLB RFO          ACCESS:          0 HIT:          0 MISS:          0 MSHR_MERGE:          0
cpu0->cpu0_ITLB PREFETCH     ACCESS:          0 HIT:          0 MISS:          0 MSHR_MERGE:          0
cpu0->cpu0_ITLB WRITE        ACCESS:          0 HIT:          0 MISS:          0 MSHR_MERGE:          0
cpu0->cpu0_ITLB TRANSLATION  ACCESS:          0 HIT:          0 MISS:          0 MSHR_MERGE:          0
cpu0->cpu0_ITLB PREFETCH REQUESTED:          0 ISSUED:          0 USEFUL:          0 USELESS:          0 LATE:          0
cpu0->cpu0_ITLB AVERAGE MISS LATENCY: 388 cycles
cpu0->cpu0_DTLB TOTAL        ACCESS:   11521098 HIT:   10855490 MISS:     665608 MSHR_MERGE:     591384
cpu0->cpu0_DTLB LOAD         ACCESS:   11521098 HIT:   10855490 MISS:     665608 MSHR_MERGE:     591384
cpu0->cpu0_DTLB RFO          ACCESS:          0 HIT:          0 MISS:          0 MSHR_MERGE:          0
cpu0->cpu0_DTLB PREFETCH     ACCESS:          0 HIT:          0 MISS:          0 MSHR_MERGE:          0
cpu0->cpu0_DTLB WRITE        ACCESS:          0 HIT:          0 MISS:          0 MSHR_MERGE:          0
cpu0->cpu0_DTLB TRANSLATION  ACCESS:          0 HIT:          0 MISS:          0 MSHR_MERGE:          0
cpu0->cpu0_DTLB PREFETCH REQUESTED:          0 ISSUED:          0 USEFUL:          0 USELESS:          0 LATE:          0
cpu0->cpu0_DTLB AVERAGE MISS LATENCY: 187.8 cycles
cpu0->LLC TOTAL        ACCESS:    1430971 HIT:     444598 MISS:     986373 MSHR_MERGE:          0
cpu0->LLC LOAD         ACCESS:     164885 HIT:         65 MISS:     164820 MSHR_MERGE:          0
cpu0->LLC RFO          ACCESS:     391182 HIT:          0 MISS:     391182 MSHR_MERGE:          0
cpu0->LLC PREFETCH     ACCESS:     362047 HIT:        216 MISS:     361831 MSHR_MERGE:          0
cpu0->LLC WRITE        ACCESS:     505791 HIT:     444209 MISS:      61582 MSHR_MERGE:          0
cpu0->LLC TRANSLATION  ACCESS:       7066 HIT:        108 MISS:       6958 MSHR_MERGE:          0
cpu0->LLC PREFETCH REQUESTED:          0 ISSUED:          0 USEFUL:          0 USELESS:          0 LATE:          0
cpu0->LLC AVERAGE MISS LATENCY: 458.3 cycles

DRAM Statistics

Channel 0 RQ ROW_BUFFER_HIT:     184806
  ROW_BUFFER_MISS:     739984
  AVG DBUS CONGESTED CYCLE: 9.178
Channel 0 WQ ROW_BUFFER_HIT:      64258
  ROW_BUFFER_MISS:     443042
  FULL:          0
Channel 0 REFRESHES ISSUED:       4571

[ROI Statistics]
[System Configuration]
num_cpus 1
cpu_freq 4000
fetch_width 6
decode_width 6
dispatch_width 6
execute_width 6
lq_width 2
sq_width 2
retire_width 6
scheduler_size 128
branch_mispredict_penalty 15
rob_size 352
lq_size 128
sq_size 72
ifetch_buffer_size 64
decode_buffer_size 32
dispatch_buffer_size 32
register_file_size 288
decode_latency 1
dispatch_latency 1
schedule_latency 1
execute_latency 1
page_size 4096
block_size 64
core_0_itlb_set 16
core_0_itlb_way 4
core_0_itlb_rq_size 16
core_0_itlb_wq_size 16
core_0_itlb_pq_size 0
core_0_itlb_mshr_size 8
core_0_itlb_hit_latency 1
core_0_itlb_fill_latency 1
core_0_itlb_max_tag_check 2
core_0_itlb_max_fill 2
core_0_dtlb_set 16
core_0_dtlb_way 4
core_0_dtlb_rq_size 16
core_0_dtlb_wq_size 16
core_0_dtlb_pq_size 0
core_0_dtlb_mshr_size 8
core_0_dtlb_hit_latency 1
core_0_dtlb_fill_latency 1
core_0_dtlb_max_tag_check 2
core_0_dtlb_max_fill 2
core_0_stlb_set 128
core_0_stlb_way 12
core_0_stlb_rq_size 32
core_0_stlb_wq_size 32
core_0_stlb_pq_size 0
core_0_stlb_mshr_size 16
core_0_stlb_hit_latency 4
core_0_stlb_fill_latency 4
core_0_stlb_max_tag_check 1
core_0_stlb_max_fill 1
core_0_l1i_set 64
core_0_l1i_way 8
core_0_l1i_rq_size 64
core_0_l1i_wq_size 64
core_0_l1i_pq_size 32
core_0_l1i_mshr_size 8
core_0_l1i_hit_latency 2
core_0_l1i_fill_latency 2
core_0_l1i_max_tag_check 2
core_0_l1i_max_fill 2
core_0_l1d_set 64
core_0_l1d_way 12
core_0_l1d_rq_size 64
core_0_l1d_wq_size 64
core_0_l1d_pq_size 8
core_0_l1d_mshr_size 16
core_0_l1d_hit_latency 2
core_0_l1d_fill_latency 3
core_0_l1d_max_tag_check 2
core_0_l1d_max_fill 2
core_0_l2c_set 1024
core_0_l2c_way 8
core_0_l2c_rq_size 32
core_0_l2c_wq_size 32
core_0_l2c_pq_size 16
core_0_l2c_mshr_size 32
core_0_l2c_hit_latency 5
core_0_l2c_fill_latency 5
core_0_l2c_max_tag_check 1
core_0_l2c_max_fill 1
llc_set 2048
llc_way 16
llc_rq_size 32
llc_wq_size 32
llc_pq_size 32
llc_mshr_size 64
llc_hit_latency 10
llc_fill_latency 10
llc_max_tag_check 1
llc_max_fill 1
dram_channels 1
dram_ranks 1
dram_bankgroups 8
dram_banks 4
dram_rows 65536
dram_columns 1024
dram_channel_width 8
dram_rq_size 64
dram_wq_size 64
dram_size 17179869184
core_0_itlb_prefetcher no
core_0_dtlb_prefetcher no
core_0_stlb_prefetcher no
core_0_l1i_prefetcher next_line
core_0_l1d_prefetcher berti
core_0_l2c_prefetcher no
llc_prefetcher no
llc_replacement drrip

Core_0_instructions 50000003
Core_0_cycles 54858007
Core_0_IPC 0.911444
Core_0_branch_prediction_accuracy 96.6191
Core_0_branch_MPKI 1.53012
Core_0_average_ROB_occupancy_at_mispredict 213.561

Core_0_ITLB_total_access 5705787
Core_0_ITLB_total_hit 5705780
Core_0_ITLB_total_miss 7
Core_0_ITLB_total_MPKI 0.00014
Core_0_ITLB_total_miss_rate 1.22682e-06
Core_0_ITLB_demand_access 5705787
Core_0_ITLB_demand_hit 5705780
Core_0_ITLB_demand_miss 7
Core_0_ITLB_demand_MPKI 0.00014
Core_0_ITLB_demand_miss_rate 1.22682e-06
Core_0_ITLB_load_access 5705787
Core_0_ITLB_load_hit 5705780
Core_0_ITLB_load_miss 7
Core_0_ITLB_load_MPKI 0.00014
Core_0_ITLB_load_miss_rate 1.22682e-06
Core_0_ITLB_rfo_access 0
Core_0_ITLB_rfo_hit 0
Core_0_ITLB_rfo_miss 0
Core_0_ITLB_rfo_MPKI 0
Core_0_ITLB_rfo_miss_rate 0
Core_0_ITLB_prefetch_access 0
Core_0_ITLB_prefetch_hit 0
Core_0_ITLB_prefetch_miss 0
Core_0_ITLB_prefetch_MPKI 0
Core_0_ITLB_prefetch_miss_rate 0
Core_0_ITLB_writeback_access 0
Core_0_ITLB_writeback_hit 0
Core_0_ITLB_writeback_miss 0
Core_0_ITLB_writeback_MPKI 0
Core_0_ITLB_writeback_miss_rate 0
Core_0_ITLB_prefetch_requested 0
Core_0_ITLB_prefetch_issued 0
Core_0_ITLB_prefetch_useful 0
Core_0_ITLB_prefetch_useless 0
Core_0_ITLB_prefetch_late 0
Core_0_ITLB_prefetch_accuracy 0
Core_0_ITLB_prefetch_coverage 0

Core_0_DTLB_total_access 11521098
Core_0_DTLB_total_hit 10855490
Core_0_DTLB_total_miss 665608
Core_0_DTLB_total_MPKI 13.3122
Core_0_DTLB_total_miss_rate 0.057773
Core_0_DTLB_demand_access 11521098
Core_0_DTLB_demand_hit 10855490
Core_0_DTLB_demand_miss 665608
Core_0_DTLB_demand_MPKI 13.3122
Core_0_DTLB_demand_miss_rate 0.057773
Core_0_DTLB_load_access 11521098
Core_0_DTLB_load_hit 10855490
Core_0_DTLB_load_miss 665608
Core_0_DTLB_load_MPKI 13.3122
Core_0_DTLB_load_miss_rate 0.057773
Core_0_DTLB_rfo_access 0
Core_0_DTLB_rfo_hit 0
Core_0_DTLB_rfo_miss 0
Core_0_DTLB_rfo_MPKI 0
Core_0_DTLB_rfo_miss_rate 0
Core_0_DTLB_prefetch_access 0
Core_0_DTLB_prefetch_hit 0
Core_0_DTLB_prefetch_miss 0
Core_0_DTLB_prefetch_MPKI 0
Core_0_DTLB_prefetch_miss_rate 0
Core_0_DTLB_writeback_access 0
Core_0_DTLB_writeback_hit 0
Core_0_DTLB_writeback_miss 0
Core_0_DTLB_writeback_MPKI 0
Core_0_DTLB_writeback_miss_rate 0
Core_0_DTLB_prefetch_requested 0
Core_0_DTLB_prefetch_issued 0
Core_0_DTLB_prefetch_useful 0
Core_0_DTLB_prefetch_useless 0
Core_0_DTLB_prefetch_late 0
Core_0_DTLB_prefetch_accuracy 0
Core_0_DTLB_prefetch_coverage 0

Core_0_STLB_total_access 74229
Core_0_STLB_total_hit 18313
Core_0_STLB_total_miss 55916
Core_0_STLB_total_MPKI 1.11832
Core_0_STLB_total_miss_rate 0.75329
Core_0_STLB_demand_access 74229
Core_0_STLB_demand_hit 18313
Core_0_STLB_demand_miss 55916
Core_0_STLB_demand_MPKI 1.11832
Core_0_STLB_demand_miss_rate 0.75329
Core_0_STLB_load_access 74229
Core_0_STLB_load_hit 18313
Core_0_STLB_load_miss 55916
Core_0_STLB_load_MPKI 1.11832
Core_0_STLB_load_miss_rate 0.75329
Core_0_STLB_rfo_access 0
Core_0_STLB_rfo_hit 0
Core_0_STLB_rfo_miss 0
Core_0_STLB_rfo_MPKI 0
Core_0_STLB_rfo_miss_rate 0
Core_0_STLB_prefetch_access 0
Core_0_STLB_prefetch_hit 0
Core_0_STLB_prefetch_miss 0
Core_0_STLB_prefetch_MPKI 0
Core_0_STLB_prefetch_miss_rate 0
Core_0_STLB_writeback_access 0
Core_0_STLB_writeback_hit 0
Core_0_STLB_writeback_miss 0
Core_0_STLB_writeback_MPKI 0
Core_0_STLB_writeback_miss_rate 0
Core_0_STLB_prefetch_requested 0
Core_0_STLB_prefetch_issued 0
Core_0_STLB_prefetch_useful 0
Core_0_STLB_prefetch_useless 0
Core_0_STLB_prefetch_late 0
Core_0_STLB_prefetch_accuracy 0
Core_0_STLB_prefetch_coverage 0

Core_0_L1I_total_access 6666548
Core_0_L1I_total_hit 6666480
Core_0_L1I_total_miss 68
Core_0_L1I_total_MPKI 0.00136
Core_0_L1I_total_miss_rate 1.02002e-05
Core_0_L1I_demand_access 6666548
Core_0_L1I_demand_hit 6666480
Core_0_L1I_demand_miss 68
Core_0_L1I_demand_MPKI 0.00136
Core_0_L1I_demand_miss_rate 1.02002e-05
Core_0_L1I_load_access 6666548
Core_0_L1I_load_hit 6666480
Core_0_L1I_load_miss 68
Core_0_L1I_load_MPKI 0.00136
Core_0_L1I_load_miss_rate 1.02002e-05
Core_0_L1I_rfo_access 0
Core_0_L1I_rfo_hit 0
Core_0_L1I_rfo_miss 0
Core_0_L1I_rfo_MPKI 0
Core_0_L1I_rfo_miss_rate 0
Core_0_L1I_prefetch_access 0
Core_0_L1I_prefetch_hit 0
Core_0_L1I_prefetch_miss 0
Core_0_L1I_prefetch_MPKI 0
Core_0_L1I_prefetch_miss_rate 0
Core_0_L1I_writeback_access 0
Core_0_L1I_writeback_hit 0
Core_0_L1I_writeback_miss 0
Core_0_L1I_writeback_MPKI 0
Core_0_L1I_writeback_miss_rate 0
Core_0_L1I_prefetch_requested 0
Core_0_L1I_prefetch_issued 0
Core_0_L1I_prefetch_useful 0
Core_0_L1I_prefetch_useless 0
Core_0_L1I_prefetch_late 0
Core_0_L1I_prefetch_accuracy 0
Core_0_L1I_prefetch_coverage 0

Core_0_L1D_total_access 12219105
Core_0_L1D_total_hit 7692135
Core_0_L1D_total_miss 4526970
Core_0_L1D_total_MPKI 90.5394
Core_0_L1D_total_miss_rate 0.370483
Core_0_L1D_demand_access 6373713
Core_0_L1D_demand_hit 5380963
Core_0_L1D_demand_miss 992750
Core_0_L1D_demand_MPKI 19.855
Core_0_L1D_demand_miss_rate 0.155757
Core_0_L1D_load_access 6373713
Core_0_L1D_load_hit 5380963
Core_0_L1D_load_miss 992750
Core_0_L1D_load_MPKI 19.855
Core_0_L1D_load_miss_rate 0.155757
Core_0_L1D_rfo_access 0
Core_0_L1D_rfo_hit 0
Core_0_L1D_rfo_miss 0
Core_0_L1D_rfo_MPKI 0
Core_0_L1D_rfo_miss_rate 0
Core_0_L1D_prefetch_access 438070
Core_0_L1D_prefetch_hit 17912
Core_0_L1D_prefetch_miss 420158
Core_0_L1D_prefetch_MPKI 8.40316
Core_0_L1D_prefetch_miss_rate 0.959112
Core_0_L1D_writeback_access 5407322
Core_0_L1D_writeback_hit 2293260
Core_0_L1D_writeback_miss 3114062
Core_0_L1D_writeback_MPKI 62.2812
Core_0_L1D_writeback_miss_rate 0.575897
Core_0_L1D_prefetch_requested 438219
Core_0_L1D_prefetch_issued 438075
Core_0_L1D_prefetch_useful 358705
Core_0_L1D_prefetch_useless 3386
Core_0_L1D_prefetch_late 15210
Core_0_L1D_prefetch_accuracy 0.818821
Core_0_L1D_prefetch_coverage 0.265421

Core_0_L2C_total_access 1423990
Core_0_L2C_total_hit 505867
Core_0_L2C_total_miss 918123
Core_0_L2C_total_MPKI 18.3625
Core_0_L2C_total_miss_rate 0.644754
Core_0_L2C_demand_access 556070
Core_0_L2C_demand_hit 1
Core_0_L2C_demand_miss 556069
Core_0_L2C_demand_MPKI 11.1214
Core_0_L2C_demand_miss_rate 0.999998
Core_0_L2C_load_access 164887
Core_0_L2C_load_hit 1
Core_0_L2C_load_miss 164886
Core_0_L2C_load_MPKI 3.29772
Core_0_L2C_load_miss_rate 0.999994
Core_0_L2C_rfo_access 391183
Core_0_L2C_rfo_hit 0
Core_0_L2C_rfo_miss 391183
Core_0_L2C_rfo_MPKI 7.82366
Core_0_L2C_rfo_miss_rate 1
Core_0_L2C_prefetch_access 362080
Core_0_L2C_prefetch_hit 32
Core_0_L2C_prefetch_miss 362048
Core_0_L2C_prefetch_MPKI 7.24096
Core_0_L2C_prefetch_miss_rate 0.999912
Core_0_L2C_writeback_access 505840
Core_0_L2C_writeback_hit 505834
Core_0_L2C_writeback_miss 6
Core_0_L2C_writeback_MPKI 0.00012
Core_0_L2C_writeback_miss_rate 1.18615e-05
Core_0_L2C_prefetch_requested 0
Core_0_L2C_prefetch_issued 0
Core_0_L2C_prefetch_useful 0
Core_0_L2C_prefetch_useless 0
Core_0_L2C_prefetch_late 0
Core_0_L2C_prefetch_accuracy 0
Core_0_L2C_prefetch_coverage 0

Core_0_LLC_total_access 1423905
Core_0_LLC_total_hit 444490
Core_0_LLC_total_miss 979415
Core_0_LLC_total_MPKI 19.5883
Core_0_LLC_total_miss_rate 0.687837
Core_0_LLC_demand_access 556067
Core_0_LLC_demand_hit 65
Core_0_LLC_demand_miss 556002
Core_0_LLC_demand_MPKI 11.12
Core_0_LLC_demand_miss_rate 0.999883
Core_0_LLC_load_access 164885
Core_0_LLC_load_hit 65
Core_0_LLC_load_miss 164820
Core_0_LLC_load_MPKI 3.2964
Core_0_LLC_load_miss_rate 0.999606
Core_0_LLC_rfo_access 391182
Core_0_LLC_rfo_hit 0
Core_0_LLC_rfo_miss 391182
Core_0_LLC_rfo_MPKI 7.82364
Core_0_LLC_rfo_miss_rate 1
Core_0_LLC_prefetch_access 362047
Core_0_LLC_prefetch_hit 216
Core_0_LLC_prefetch_miss 361831
Core_0_LLC_prefetch_MPKI 7.23662
Core_0_LLC_prefetch_miss_rate 0.999403
Core_0_LLC_writeback_access 505791
Core_0_LLC_writeback_hit 444209
Core_0_LLC_writeback_miss 61582
Core_0_LLC_writeback_MPKI 1.23164
Core_0_LLC_writeback_miss_rate 0.121754
Core_0_LLC_prefetch_requested 0
Core_0_LLC_prefetch_issued 0
Core_0_LLC_prefetch_useful 0
Core_0_LLC_prefetch_useless 0
Core_0_LLC_prefetch_late 0
Core_0_LLC_prefetch_accuracy 0
Core_0_LLC_prefetch_coverage 0

[DRAM Statistics]
Channel_0_RQ_row_buffer_hit 184806
Channel_0_RQ_row_buffer_miss 739984
Channel_0_WQ_row_buffer_hit 64258
Channel_0_WQ_row_buffer_miss 443042
Channel_0_WQ_full 0
Channel_0_dbus_congested 4726411
DRAM_total_RQ_row_buffer_hit 184806
DRAM_total_RQ_row_buffer_miss 739984
DRAM_total_WQ_row_buffer_hit 64258
DRAM_total_WQ_row_buffer_miss 443042
DRAM_total_WQ_full 0
DRAM_total_dbus_congested 4726411
DRAM_avg_congested_cycle 9.1777

====== DRAM_RQ_TRAFFIC ========
DRAM_RQ_READ_TRAFFIC_BREAKDOWN:
data_demand_read.count = 555952
data_demand_read.share = 60.12%

inst_demand_read.count = 50
inst_demand_read.share = 0.01%

cache_inst_prefetch.count = 0
cache_inst_prefetch.share = 0.00%

cache_data_prefetch.count = 361831
cache_data_prefetch.share = 39.13%

stlb_data_demand.count = 6317
stlb_data_demand.share = 0.68%

stlb_inst_demand.count = 4
stlb_inst_demand.share = 0.00%

stlb_l1i_pref.count = 0
stlb_l1i_pref.share = 0.00%

stlb_l1d_pref.count = 637
stlb_l1d_pref.share = 0.07%

DRAM_RQ_READ_TRAFFIC_SUMMARY:
cache_demand.count = 556002
cache_demand.share = 60.12%

cache_prefetch.count = 361831
cache_prefetch.share = 39.13%

stlb_demand.count = 6321
stlb_demand.share = 0.68%

stlb_prefetch.count = 637
stlb_prefetch.share = 0.07%

DRAM_RQ_READ_TRAFFIC_DEBUG:
total_classified_read.count = 924791
unclassified_read.count = 0
total_read_with_other.count = 924791

classified_plus_unclassified_check.count = 924791
dram_rq_read_total_observed.count = 924791
dram_rq_read_total_observed.per_1K_instructions = 18.4958

STLB_MISS_PTW_DRAM_TOUCH_BREAKDOWN:
stlb_miss_total.count = 55916

stlb_miss_touch_dram.count = 6927
stlb_miss_touch_dram.share = 12.39%

stlb_miss_no_dram_touch.count = 48989
stlb_miss_no_dram_touch.share = 87.61%

STLB_MISS_PTW_DRAM_TOUCH_DEBUG:
stlb_miss_touch_plus_no_touch.count = 55916
stlb_miss_total_check.count = 55916

======STLB miss causes ========
Core_0_STLB_miss_cause_breakdown
Core_0_STLB_cause_Demand_Data_miss 50908
Core_0_STLB_cause_Demand_Data_miss_rate 0.685824
Core_0_STLB_cause_Demand_Instruction_miss 5
Core_0_STLB_cause_Demand_Instruction_miss_rate 6.73591e-05
Core_0_STLB_cause_L1D_Prefetch_miss 5003
Core_0_STLB_cause_L1D_Prefetch_miss_rate 0.0673995
Core_0_STLB_cause_L1I_Prefetch_miss 0
Core_0_STLB_cause_L1I_Prefetch_miss_rate 0
Core_0_STLB_cause_Other_miss 0
Core_0_STLB_cause_Other_miss_rate 0
Core_0_STLB_Demand_miss 50913
Core_0_STLB_Demand_miss_rate 0.685891
Core_0_STLB_L1D_Prefetch_miss 5003
Core_0_STLB_L1D_Prefetch_miss_rate 0.0673995
Core_0_STLB_Other_miss 0
Core_0_STLB_Other_miss_rate 0
