[VMEM] WARNING: physical memory size is smaller than virtual memory size.

*** ChampSim Multicore Out-of-Order Simulator ***
Warmup Instructions: 20000000
Simulation Instructions: 50000000
Number of CPUs: 1
Page size: 4096
Core 0: /data0/tzh/champsim_traces/SPEC06/450.soplex-92B.champsimtrace.xz
 L1D Berti prefetcher
Off-chip DRAM Size: 16 GiB Channels: 1 Width: 64-bit Data Rate: 3205 MT/s
Warmup halting CPU 0 at instruction 20000004 cycle 4868800 for remainder of phase
Warmup finished CPU 0 instructions: 20000004 cycles: 4868800 cumulative IPC: 4.108 (Simulation time: 00 hr 01 min 01 sec)
Warmup complete CPU 0 instructions: 20000004 cycles: 4868800 cumulative IPC: 4.108 (Simulation time: 00 hr 01 min 01 sec)
Simulation finished CPU 0 instructions: 50000000 cycles: 90994605 cumulative IPC: 0.5495 (Simulation time: 00 hr 09 min 33 sec)
Simulation complete CPU 0 instructions: 50000000 cycles: 90994605 cumulative IPC: 0.5495 (Simulation time: 00 hr 09 min 33 sec)

ChampSim completed all CPUs

=== Simulation ===
CPU 0 runs /data0/tzh/champsim_traces/SPEC06/450.soplex-92B.champsimtrace.xz

Region of Interest Statistics

CPU 0 cumulative IPC: 0.5495 instructions: 50000000 cycles: 90994605
CPU 0 Branch Prediction Accuracy: 94.51% MPKI: 10.68 Average ROB Occupancy at Mispredict: 45.81
Branch type MPKI
BRANCH_DIRECT_JUMP: 0.0005
BRANCH_INDIRECT: 2e-05
BRANCH_CONDITIONAL: 10.68
BRANCH_DIRECT_CALL: 0.0004
BRANCH_INDIRECT_CALL: 6e-05
BRANCH_RETURN: 0.00102

cpu0->cpu0_STLB TOTAL        ACCESS:     265890 HIT:     210005 MISS:      55885 MSHR_MERGE:          0
cpu0->cpu0_STLB LOAD         ACCESS:     265890 HIT:     210005 MISS:      55885 MSHR_MERGE:          0
cpu0->cpu0_STLB RFO          ACCESS:          0 HIT:          0 MISS:          0 MSHR_MERGE:          0
cpu0->cpu0_STLB PREFETCH     ACCESS:          0 HIT:          0 MISS:          0 MSHR_MERGE:          0
cpu0->cpu0_STLB WRITE        ACCESS:          0 HIT:          0 MISS:          0 MSHR_MERGE:          0
cpu0->cpu0_STLB TRANSLATION  ACCESS:          0 HIT:          0 MISS:          0 MSHR_MERGE:          0
cpu0->cpu0_STLB PREFETCH REQUESTED:          0 ISSUED:          0 USEFUL:          0 USELESS:          0 LATE:          0
cpu0->cpu0_STLB AVERAGE MISS LATENCY: 89.18 cycles
cpu0->cpu0_L2C TOTAL        ACCESS:    3013910 HIT:    1232887 MISS:    1781023 MSHR_MERGE:          0
cpu0->cpu0_L2C LOAD         ACCESS:     903749 HIT:     257418 MISS:     646331 MSHR_MERGE:          0
cpu0->cpu0_L2C RFO          ACCESS:     321289 HIT:      30486 MISS:     290803 MSHR_MERGE:          0
cpu0->cpu0_L2C PREFETCH     ACCESS:    1009882 HIT:     181672 MISS:     828210 MSHR_MERGE:          0
cpu0->cpu0_L2C WRITE        ACCESS:     754973 HIT:     754681 MISS:        292 MSHR_MERGE:          0
cpu0->cpu0_L2C TRANSLATION  ACCESS:      24017 HIT:       8630 MISS:      15387 MSHR_MERGE:          0
cpu0->cpu0_L2C PREFETCH REQUESTED:          0 ISSUED:          0 USEFUL:          0 USELESS:          0 LATE:          0
cpu0->cpu0_L2C AVERAGE MISS LATENCY: 203.3 cycles
cpu0->cpu0_L1I TOTAL        ACCESS:    2584551 HIT:    2584382 MISS:        169 MSHR_MERGE:         32
cpu0->cpu0_L1I LOAD         ACCESS:    2584551 HIT:    2584382 MISS:        169 MSHR_MERGE:         32
cpu0->cpu0_L1I RFO          ACCESS:          0 HIT:          0 MISS:          0 MSHR_MERGE:          0
cpu0->cpu0_L1I PREFETCH     ACCESS:          0 HIT:          0 MISS:          0 MSHR_MERGE:          0
cpu0->cpu0_L1I WRITE        ACCESS:          0 HIT:          0 MISS:          0 MSHR_MERGE:          0
cpu0->cpu0_L1I TRANSLATION  ACCESS:          0 HIT:          0 MISS:          0 MSHR_MERGE:          0
cpu0->cpu0_L1I PREFETCH REQUESTED:          0 ISSUED:          0 USEFUL:          0 USELESS:          0 LATE:          0
cpu0->cpu0_L1I AVERAGE MISS LATENCY: 257.4 cycles
cpu0->cpu0_L1D TOTAL        ACCESS:   15075409 HIT:   11028036 MISS:    4047373 MSHR_MERGE:    1788551
cpu0->cpu0_L1D LOAD         ACCESS:    9687180 HIT:    8170638 MISS:    1516542 MSHR_MERGE:     612916
cpu0->cpu0_L1D RFO          ACCESS:          0 HIT:          0 MISS:          0 MSHR_MERGE:          0
cpu0->cpu0_L1D PREFETCH     ACCESS:    1257399 HIT:     213592 MISS:    1043807 MSHR_MERGE:      33923
cpu0->cpu0_L1D WRITE        ACCESS:    4019564 HIT:    2557144 MISS:    1462420 MSHR_MERGE:    1141125
cpu0->cpu0_L1D TRANSLATION  ACCESS:     111266 HIT:      86662 MISS:      24604 MSHR_MERGE:        587
cpu0->cpu0_L1D PREFETCH REQUESTED:    1273204 ISSUED:    1257391 USEFUL:     620333 USELESS:     389454 LATE:      90553
cpu0->cpu0_L1D AVERAGE MISS LATENCY: 161.8 cycles
cpu0->cpu0_ITLB TOTAL        ACCESS:    2222760 HIT:    2222744 MISS:         16 MSHR_MERGE:          7
cpu0->cpu0_ITLB LOAD         ACCESS:    2222760 HIT:    2222744 MISS:         16 MSHR_MERGE:          7
cpu0->cpu0_ITLB RFO          ACCESS:          0 HIT:          0 MISS:          0 MSHR_MERGE:          0
cpu0->cpu0_ITLB PREFETCH     ACCESS:          0 HIT:          0 MISS:          0 MSHR_MERGE:          0
cpu0->cpu0_ITLB WRITE        ACCESS:          0 HIT:          0 MISS:          0 MSHR_MERGE:          0
cpu0->cpu0_ITLB TRANSLATION  ACCESS:          0 HIT:          0 MISS:          0 MSHR_MERGE:          0
cpu0->cpu0_ITLB PREFETCH REQUESTED:          0 ISSUED:          0 USEFUL:          0 USELESS:          0 LATE:          0
cpu0->cpu0_ITLB AVERAGE MISS LATENCY: 438 cycles
cpu0->cpu0_DTLB TOTAL        ACCESS:   14310611 HIT:   13840812 MISS:     469799 MSHR_MERGE:     203918
cpu0->cpu0_DTLB LOAD         ACCESS:   14310611 HIT:   13840812 MISS:     469799 MSHR_MERGE:     203918
cpu0->cpu0_DTLB RFO          ACCESS:          0 HIT:          0 MISS:          0 MSHR_MERGE:          0
cpu0->cpu0_DTLB PREFETCH     ACCESS:          0 HIT:          0 MISS:          0 MSHR_MERGE:          0
cpu0->cpu0_DTLB WRITE        ACCESS:          0 HIT:          0 MISS:          0 MSHR_MERGE:          0
cpu0->cpu0_DTLB TRANSLATION  ACCESS:          0 HIT:          0 MISS:          0 MSHR_MERGE:          0
cpu0->cpu0_DTLB PREFETCH REQUESTED:          0 ISSUED:          0 USEFUL:          0 USELESS:          0 LATE:          0
cpu0->cpu0_DTLB AVERAGE MISS LATENCY: 23.94 cycles
cpu0->LLC TOTAL        ACCESS:    2350605 HIT:     973180 MISS:    1377425 MSHR_MERGE:          0
cpu0->LLC LOAD         ACCESS:     646331 HIT:     201632 MISS:     444699 MSHR_MERGE:          0
cpu0->LLC RFO          ACCESS:     290803 HIT:      78726 MISS:     212077 MSHR_MERGE:          0
cpu0->LLC PREFETCH     ACCESS:     828210 HIT:     271518 MISS:     556692 MSHR_MERGE:          0
cpu0->LLC WRITE        ACCESS:     569874 HIT:     416200 MISS:     153674 MSHR_MERGE:          0
cpu0->LLC TRANSLATION  ACCESS:      15387 HIT:       5104 MISS:      10283 MSHR_MERGE:          0
cpu0->LLC PREFETCH REQUESTED:          0 ISSUED:          0 USEFUL:          0 USELESS:          0 LATE:          0
cpu0->LLC AVERAGE MISS LATENCY: 219.4 cycles

DRAM Statistics

Channel 0 RQ ROW_BUFFER_HIT:      58077
  ROW_BUFFER_MISS:    1164577
  AVG DBUS CONGESTED CYCLE: 8.292
Channel 0 WQ ROW_BUFFER_HIT:      74625
  ROW_BUFFER_MISS:     256482
  FULL:        122
Channel 0 REFRESHES ISSUED:       7583

[ROI Statistics]
[System Configuration]
num_cpus 1
cpu_freq 4000
fetch_width 6
decode_width 6
dispatch_width 6
execute_width 6
lq_width 2
sq_width 2
retire_width 6
scheduler_size 128
branch_mispredict_penalty 15
rob_size 352
lq_size 128
sq_size 72
ifetch_buffer_size 64
decode_buffer_size 32
dispatch_buffer_size 32
register_file_size 288
decode_latency 1
dispatch_latency 1
schedule_latency 1
execute_latency 1
page_size 4096
block_size 64
core_0_itlb_set 16
core_0_itlb_way 4
core_0_itlb_rq_size 16
core_0_itlb_wq_size 16
core_0_itlb_pq_size 0
core_0_itlb_mshr_size 8
core_0_itlb_hit_latency 1
core_0_itlb_fill_latency 1
core_0_itlb_max_tag_check 2
core_0_itlb_max_fill 2
core_0_dtlb_set 16
core_0_dtlb_way 4
core_0_dtlb_rq_size 16
core_0_dtlb_wq_size 16
core_0_dtlb_pq_size 0
core_0_dtlb_mshr_size 8
core_0_dtlb_hit_latency 1
core_0_dtlb_fill_latency 1
core_0_dtlb_max_tag_check 2
core_0_dtlb_max_fill 2
core_0_stlb_set 128
core_0_stlb_way 12
core_0_stlb_rq_size 32
core_0_stlb_wq_size 32
core_0_stlb_pq_size 0
core_0_stlb_mshr_size 16
core_0_stlb_hit_latency 4
core_0_stlb_fill_latency 4
core_0_stlb_max_tag_check 1
core_0_stlb_max_fill 1
core_0_l1i_set 64
core_0_l1i_way 8
core_0_l1i_rq_size 64
core_0_l1i_wq_size 64
core_0_l1i_pq_size 32
core_0_l1i_mshr_size 8
core_0_l1i_hit_latency 2
core_0_l1i_fill_latency 2
core_0_l1i_max_tag_check 2
core_0_l1i_max_fill 2
core_0_l1d_set 64
core_0_l1d_way 12
core_0_l1d_rq_size 64
core_0_l1d_wq_size 64
core_0_l1d_pq_size 8
core_0_l1d_mshr_size 16
core_0_l1d_hit_latency 2
core_0_l1d_fill_latency 3
core_0_l1d_max_tag_check 2
core_0_l1d_max_fill 2
core_0_l2c_set 1024
core_0_l2c_way 8
core_0_l2c_rq_size 32
core_0_l2c_wq_size 32
core_0_l2c_pq_size 16
core_0_l2c_mshr_size 32
core_0_l2c_hit_latency 5
core_0_l2c_fill_latency 5
core_0_l2c_max_tag_check 1
core_0_l2c_max_fill 1
llc_set 2048
llc_way 16
llc_rq_size 32
llc_wq_size 32
llc_pq_size 32
llc_mshr_size 64
llc_hit_latency 10
llc_fill_latency 10
llc_max_tag_check 1
llc_max_fill 1
dram_channels 1
dram_ranks 1
dram_bankgroups 8
dram_banks 4
dram_rows 65536
dram_columns 1024
dram_channel_width 8
dram_rq_size 64
dram_wq_size 64
dram_size 17179869184
core_0_itlb_prefetcher no
core_0_dtlb_prefetcher no
core_0_stlb_prefetcher no
core_0_l1i_prefetcher next_line
core_0_l1d_prefetcher berti
core_0_l2c_prefetcher no
llc_prefetcher no
llc_replacement drrip

Core_0_instructions 50000000
Core_0_cycles 90994605
Core_0_IPC 0.549483
Core_0_branch_prediction_accuracy 94.5075
Core_0_branch_MPKI 10.6826
Core_0_average_ROB_occupancy_at_mispredict 45.8086

Core_0_ITLB_total_access 2222760
Core_0_ITLB_total_hit 2222744
Core_0_ITLB_total_miss 16
Core_0_ITLB_total_MPKI 0.00032
Core_0_ITLB_total_miss_rate 7.19826e-06
Core_0_ITLB_demand_access 2222760
Core_0_ITLB_demand_hit 2222744
Core_0_ITLB_demand_miss 16
Core_0_ITLB_demand_MPKI 0.00032
Core_0_ITLB_demand_miss_rate 7.19826e-06
Core_0_ITLB_load_access 2222760
Core_0_ITLB_load_hit 2222744
Core_0_ITLB_load_miss 16
Core_0_ITLB_load_MPKI 0.00032
Core_0_ITLB_load_miss_rate 7.19826e-06
Core_0_ITLB_rfo_access 0
Core_0_ITLB_rfo_hit 0
Core_0_ITLB_rfo_miss 0
Core_0_ITLB_rfo_MPKI 0
Core_0_ITLB_rfo_miss_rate 0
Core_0_ITLB_prefetch_access 0
Core_0_ITLB_prefetch_hit 0
Core_0_ITLB_prefetch_miss 0
Core_0_ITLB_prefetch_MPKI 0
Core_0_ITLB_prefetch_miss_rate 0
Core_0_ITLB_writeback_access 0
Core_0_ITLB_writeback_hit 0
Core_0_ITLB_writeback_miss 0
Core_0_ITLB_writeback_MPKI 0
Core_0_ITLB_writeback_miss_rate 0
Core_0_ITLB_prefetch_requested 0
Core_0_ITLB_prefetch_issued 0
Core_0_ITLB_prefetch_useful 0
Core_0_ITLB_prefetch_useless 0
Core_0_ITLB_prefetch_late 0
Core_0_ITLB_prefetch_accuracy 0
Core_0_ITLB_prefetch_coverage 0

Core_0_DTLB_total_access 14310611
Core_0_DTLB_total_hit 13840812
Core_0_DTLB_total_miss 469799
Core_0_DTLB_total_MPKI 9.39598
Core_0_DTLB_total_miss_rate 0.0328287
Core_0_DTLB_demand_access 14310611
Core_0_DTLB_demand_hit 13840812
Core_0_DTLB_demand_miss 469799
Core_0_DTLB_demand_MPKI 9.39598
Core_0_DTLB_demand_miss_rate 0.0328287
Core_0_DTLB_load_access 14310611
Core_0_DTLB_load_hit 13840812
Core_0_DTLB_load_miss 469799
Core_0_DTLB_load_MPKI 9.39598
Core_0_DTLB_load_miss_rate 0.0328287
Core_0_DTLB_rfo_access 0
Core_0_DTLB_rfo_hit 0
Core_0_DTLB_rfo_miss 0
Core_0_DTLB_rfo_MPKI 0
Core_0_DTLB_rfo_miss_rate 0
Core_0_DTLB_prefetch_access 0
Core_0_DTLB_prefetch_hit 0
Core_0_DTLB_prefetch_miss 0
Core_0_DTLB_prefetch_MPKI 0
Core_0_DTLB_prefetch_miss_rate 0
Core_0_DTLB_writeback_access 0
Core_0_DTLB_writeback_hit 0
Core_0_DTLB_writeback_miss 0
Core_0_DTLB_writeback_MPKI 0
Core_0_DTLB_writeback_miss_rate 0
Core_0_DTLB_prefetch_requested 0
Core_0_DTLB_prefetch_issued 0
Core_0_DTLB_prefetch_useful 0
Core_0_DTLB_prefetch_useless 0
Core_0_DTLB_prefetch_late 0
Core_0_DTLB_prefetch_accuracy 0
Core_0_DTLB_prefetch_coverage 0

Core_0_STLB_total_access 265890
Core_0_STLB_total_hit 210005
Core_0_STLB_total_miss 55885
Core_0_STLB_total_MPKI 1.1177
Core_0_STLB_total_miss_rate 0.210181
Core_0_STLB_demand_access 265890
Core_0_STLB_demand_hit 210005
Core_0_STLB_demand_miss 55885
Core_0_STLB_demand_MPKI 1.1177
Core_0_STLB_demand_miss_rate 0.210181
Core_0_STLB_load_access 265890
Core_0_STLB_load_hit 210005
Core_0_STLB_load_miss 55885
Core_0_STLB_load_MPKI 1.1177
Core_0_STLB_load_miss_rate 0.210181
Core_0_STLB_rfo_access 0
Core_0_STLB_rfo_hit 0
Core_0_STLB_rfo_miss 0
Core_0_STLB_rfo_MPKI 0
Core_0_STLB_rfo_miss_rate 0
Core_0_STLB_prefetch_access 0
Core_0_STLB_prefetch_hit 0
Core_0_STLB_prefetch_miss 0
Core_0_STLB_prefetch_MPKI 0
Core_0_STLB_prefetch_miss_rate 0
Core_0_STLB_writeback_access 0
Core_0_STLB_writeback_hit 0
Core_0_STLB_writeback_miss 0
Core_0_STLB_writeback_MPKI 0
Core_0_STLB_writeback_miss_rate 0
Core_0_STLB_prefetch_requested 0
Core_0_STLB_prefetch_issued 0
Core_0_STLB_prefetch_useful 0
Core_0_STLB_prefetch_useless 0
Core_0_STLB_prefetch_late 0
Core_0_STLB_prefetch_accuracy 0
Core_0_STLB_prefetch_coverage 0

Core_0_L1I_total_access 2584551
Core_0_L1I_total_hit 2584382
Core_0_L1I_total_miss 169
Core_0_L1I_total_MPKI 0.00338
Core_0_L1I_total_miss_rate 6.53885e-05
Core_0_L1I_demand_access 2584551
Core_0_L1I_demand_hit 2584382
Core_0_L1I_demand_miss 169
Core_0_L1I_demand_MPKI 0.00338
Core_0_L1I_demand_miss_rate 6.53885e-05
Core_0_L1I_load_access 2584551
Core_0_L1I_load_hit 2584382
Core_0_L1I_load_miss 169
Core_0_L1I_load_MPKI 0.00338
Core_0_L1I_load_miss_rate 6.53885e-05
Core_0_L1I_rfo_access 0
Core_0_L1I_rfo_hit 0
Core_0_L1I_rfo_miss 0
Core_0_L1I_rfo_MPKI 0
Core_0_L1I_rfo_miss_rate 0
Core_0_L1I_prefetch_access 0
Core_0_L1I_prefetch_hit 0
Core_0_L1I_prefetch_miss 0
Core_0_L1I_prefetch_MPKI 0
Core_0_L1I_prefetch_miss_rate 0
Core_0_L1I_writeback_access 0
Core_0_L1I_writeback_hit 0
Core_0_L1I_writeback_miss 0
Core_0_L1I_writeback_MPKI 0
Core_0_L1I_writeback_miss_rate 0
Core_0_L1I_prefetch_requested 0
Core_0_L1I_prefetch_issued 0
Core_0_L1I_prefetch_useful 0
Core_0_L1I_prefetch_useless 0
Core_0_L1I_prefetch_late 0
Core_0_L1I_prefetch_accuracy 0
Core_0_L1I_prefetch_coverage 0

Core_0_L1D_total_access 14964143
Core_0_L1D_total_hit 10941374
Core_0_L1D_total_miss 4022769
Core_0_L1D_total_MPKI 80.4554
Core_0_L1D_total_miss_rate 0.268827
Core_0_L1D_demand_access 9687180
Core_0_L1D_demand_hit 8170638
Core_0_L1D_demand_miss 1516542
Core_0_L1D_demand_MPKI 30.3308
Core_0_L1D_demand_miss_rate 0.156551
Core_0_L1D_load_access 9687180
Core_0_L1D_load_hit 8170638
Core_0_L1D_load_miss 1516542
Core_0_L1D_load_MPKI 30.3308
Core_0_L1D_load_miss_rate 0.156551
Core_0_L1D_rfo_access 0
Core_0_L1D_rfo_hit 0
Core_0_L1D_rfo_miss 0
Core_0_L1D_rfo_MPKI 0
Core_0_L1D_rfo_miss_rate 0
Core_0_L1D_prefetch_access 1257399
Core_0_L1D_prefetch_hit 213592
Core_0_L1D_prefetch_miss 1043807
Core_0_L1D_prefetch_MPKI 20.8761
Core_0_L1D_prefetch_miss_rate 0.830132
Core_0_L1D_writeback_access 4019564
Core_0_L1D_writeback_hit 2557144
Core_0_L1D_writeback_miss 1462420
Core_0_L1D_writeback_MPKI 29.2484
Core_0_L1D_writeback_miss_rate 0.363826
Core_0_L1D_prefetch_requested 1273204
Core_0_L1D_prefetch_issued 1257391
Core_0_L1D_prefetch_useful 620333
Core_0_L1D_prefetch_useless 389454
Core_0_L1D_prefetch_late 90553
Core_0_L1D_prefetch_accuracy 0.493349
Core_0_L1D_prefetch_coverage 0.290299

Core_0_L2C_total_access 2989893
Core_0_L2C_total_hit 1224257
Core_0_L2C_total_miss 1765636
Core_0_L2C_total_MPKI 35.3127
Core_0_L2C_total_miss_rate 0.590535
Core_0_L2C_demand_access 1225038
Core_0_L2C_demand_hit 287904
Core_0_L2C_demand_miss 937134
Core_0_L2C_demand_MPKI 18.7427
Core_0_L2C_demand_miss_rate 0.764984
Core_0_L2C_load_access 903749
Core_0_L2C_load_hit 257418
Core_0_L2C_load_miss 646331
Core_0_L2C_load_MPKI 12.9266
Core_0_L2C_load_miss_rate 0.715166
Core_0_L2C_rfo_access 321289
Core_0_L2C_rfo_hit 30486
Core_0_L2C_rfo_miss 290803
Core_0_L2C_rfo_MPKI 5.81606
Core_0_L2C_rfo_miss_rate 0.905113
Core_0_L2C_prefetch_access 1009882
Core_0_L2C_prefetch_hit 181672
Core_0_L2C_prefetch_miss 828210
Core_0_L2C_prefetch_MPKI 16.5642
Core_0_L2C_prefetch_miss_rate 0.820106
Core_0_L2C_writeback_access 754973
Core_0_L2C_writeback_hit 754681
Core_0_L2C_writeback_miss 292
Core_0_L2C_writeback_MPKI 0.00584
Core_0_L2C_writeback_miss_rate 0.000386769
Core_0_L2C_prefetch_requested 0
Core_0_L2C_prefetch_issued 0
Core_0_L2C_prefetch_useful 0
Core_0_L2C_prefetch_useless 0
Core_0_L2C_prefetch_late 0
Core_0_L2C_prefetch_accuracy 0
Core_0_L2C_prefetch_coverage 0

Core_0_LLC_total_access 2335218
Core_0_LLC_total_hit 968076
Core_0_LLC_total_miss 1367142
Core_0_LLC_total_MPKI 27.3428
Core_0_LLC_total_miss_rate 0.585445
Core_0_LLC_demand_access 937134
Core_0_LLC_demand_hit 280358
Core_0_LLC_demand_miss 656776
Core_0_LLC_demand_MPKI 13.1355
Core_0_LLC_demand_miss_rate 0.700835
Core_0_LLC_load_access 646331
Core_0_LLC_load_hit 201632
Core_0_LLC_load_miss 444699
Core_0_LLC_load_MPKI 8.89398
Core_0_LLC_load_miss_rate 0.688036
Core_0_LLC_rfo_access 290803
Core_0_LLC_rfo_hit 78726
Core_0_LLC_rfo_miss 212077
Core_0_LLC_rfo_MPKI 4.24154
Core_0_LLC_rfo_miss_rate 0.729281
Core_0_LLC_prefetch_access 828210
Core_0_LLC_prefetch_hit 271518
Core_0_LLC_prefetch_miss 556692
Core_0_LLC_prefetch_MPKI 11.1338
Core_0_LLC_prefetch_miss_rate 0.672163
Core_0_LLC_writeback_access 569874
Core_0_LLC_writeback_hit 416200
Core_0_LLC_writeback_miss 153674
Core_0_LLC_writeback_MPKI 3.07348
Core_0_LLC_writeback_miss_rate 0.269663
Core_0_LLC_prefetch_requested 0
Core_0_LLC_prefetch_issued 0
Core_0_LLC_prefetch_useful 0
Core_0_LLC_prefetch_useless 0
Core_0_LLC_prefetch_late 0
Core_0_LLC_prefetch_accuracy 0
Core_0_LLC_prefetch_coverage 0

[DRAM Statistics]
Channel_0_RQ_row_buffer_hit 58077
Channel_0_RQ_row_buffer_miss 1164577
Channel_0_WQ_row_buffer_hit 74625
Channel_0_WQ_row_buffer_miss 256482
Channel_0_WQ_full 122
Channel_0_dbus_congested 4033504
DRAM_total_RQ_row_buffer_hit 58077
DRAM_total_RQ_row_buffer_miss 1164577
DRAM_total_WQ_row_buffer_hit 74625
DRAM_total_WQ_row_buffer_miss 256482
DRAM_total_WQ_full 122
DRAM_total_dbus_congested 4033504
DRAM_avg_congested_cycle 8.29201

====== DRAM_RQ_TRAFFIC ========
DRAM_RQ_READ_TRAFFIC_BREAKDOWN:
data_demand_read.count = 656639
data_demand_read.share = 53.66%

inst_demand_read.count = 137
inst_demand_read.share = 0.01%

cache_inst_prefetch.count = 0
cache_inst_prefetch.share = 0.00%

cache_data_prefetch.count = 556692
cache_data_prefetch.share = 45.49%

stlb_data_demand.count = 9107
stlb_data_demand.share = 0.74%

stlb_inst_demand.count = 8
stlb_inst_demand.share = 0.00%

stlb_l1i_pref.count = 0
stlb_l1i_pref.share = 0.00%

stlb_l1d_pref.count = 1168
stlb_l1d_pref.share = 0.10%

DRAM_RQ_READ_TRAFFIC_SUMMARY:
cache_demand.count = 656776
cache_demand.share = 53.67%

cache_prefetch.count = 556692
cache_prefetch.share = 45.49%

stlb_demand.count = 9115
stlb_demand.share = 0.74%

stlb_prefetch.count = 1168
stlb_prefetch.share = 0.10%

DRAM_RQ_READ_TRAFFIC_DEBUG:
total_classified_read.count = 1223751
unclassified_read.count = 0
total_read_with_other.count = 1223751

classified_plus_unclassified_check.count = 1223751
dram_rq_read_total_observed.count = 1223751
dram_rq_read_total_observed.per_1K_instructions = 24.475

STLB_MISS_PTW_DRAM_TOUCH_BREAKDOWN:
stlb_miss_total.count = 55885

stlb_miss_touch_dram.count = 10226
stlb_miss_touch_dram.share = 18.30%

stlb_miss_no_dram_touch.count = 45659
stlb_miss_no_dram_touch.share = 81.70%

STLB_MISS_PTW_DRAM_TOUCH_DEBUG:
stlb_miss_touch_plus_no_touch.count = 55885
stlb_miss_total_check.count = 55885

======STLB miss causes ========
Core_0_STLB_miss_cause_breakdown
Core_0_STLB_cause_Demand_Data_miss 45255
Core_0_STLB_cause_Demand_Data_miss_rate 0.170202
Core_0_STLB_cause_Demand_Instruction_miss 9
Core_0_STLB_cause_Demand_Instruction_miss_rate 3.38486e-05
Core_0_STLB_cause_L1D_Prefetch_miss 10621
Core_0_STLB_cause_L1D_Prefetch_miss_rate 0.0399451
Core_0_STLB_cause_L1I_Prefetch_miss 0
Core_0_STLB_cause_L1I_Prefetch_miss_rate 0
Core_0_STLB_cause_Other_miss 0
Core_0_STLB_cause_Other_miss_rate 0
Core_0_STLB_Demand_miss 45264
Core_0_STLB_Demand_miss_rate 0.170236
Core_0_STLB_L1D_Prefetch_miss 10621
Core_0_STLB_L1D_Prefetch_miss_rate 0.0399451
Core_0_STLB_Other_miss 0
Core_0_STLB_Other_miss_rate 0
