[VMEM] WARNING: physical memory size is smaller than virtual memory size.

*** ChampSim Multicore Out-of-Order Simulator ***
Warmup Instructions: 20000000
Simulation Instructions: 50000000
Number of CPUs: 1
Page size: 4096
Core 0: /data0/tzh/champsim_traces/SPEC17/623.xalancbmk_s-700B.champsimtrace.xz
 L1D Berti prefetcher
Off-chip DRAM Size: 16 GiB Channels: 1 Width: 64-bit Data Rate: 3205 MT/s
Warmup halting CPU 0 at instruction 20000003 cycle 4805213 for remainder of phase
Warmup finished CPU 0 instructions: 20000003 cycles: 4805213 cumulative IPC: 4.162 (Simulation time: 00 hr 01 min 16 sec)
Warmup complete CPU 0 instructions: 20000003 cycles: 4805213 cumulative IPC: 4.162 (Simulation time: 00 hr 01 min 16 sec)
Simulation finished CPU 0 instructions: 50000000 cycles: 47188415 cumulative IPC: 1.06 (Simulation time: 00 hr 08 min 12 sec)
Simulation complete CPU 0 instructions: 50000000 cycles: 47188415 cumulative IPC: 1.06 (Simulation time: 00 hr 08 min 12 sec)

ChampSim completed all CPUs

=== Simulation ===
CPU 0 runs /data0/tzh/champsim_traces/SPEC17/623.xalancbmk_s-700B.champsimtrace.xz

Region of Interest Statistics

CPU 0 cumulative IPC: 1.06 instructions: 50000000 cycles: 47188415
CPU 0 Branch Prediction Accuracy: 98.13% MPKI: 5.357 Average ROB Occupancy at Mispredict: 52.93
Branch type MPKI
BRANCH_DIRECT_JUMP: 0.1065
BRANCH_INDIRECT: 0.3358
BRANCH_CONDITIONAL: 3.177
BRANCH_DIRECT_CALL: 0.0036
BRANCH_INDIRECT_CALL: 0.3613
BRANCH_RETURN: 1.372

cpu0->cpu0_STLB TOTAL        ACCESS:    1469199 HIT:    1384796 MISS:      84403 MSHR_MERGE:          0
cpu0->cpu0_STLB LOAD         ACCESS:    1469199 HIT:    1384796 MISS:      84403 MSHR_MERGE:          0
cpu0->cpu0_STLB RFO          ACCESS:          0 HIT:          0 MISS:          0 MSHR_MERGE:          0
cpu0->cpu0_STLB PREFETCH     ACCESS:          0 HIT:          0 MISS:          0 MSHR_MERGE:          0
cpu0->cpu0_STLB WRITE        ACCESS:          0 HIT:          0 MISS:          0 MSHR_MERGE:          0
cpu0->cpu0_STLB TRANSLATION  ACCESS:          0 HIT:          0 MISS:          0 MSHR_MERGE:          0
cpu0->cpu0_STLB PREFETCH REQUESTED:          0 ISSUED:          0 USEFUL:          0 USELESS:          0 LATE:          0
cpu0->cpu0_STLB AVERAGE MISS LATENCY: 24.67 cycles
cpu0->cpu0_L2C TOTAL        ACCESS:    3276205 HIT:    2916663 MISS:     359542 MSHR_MERGE:          0
cpu0->cpu0_L2C LOAD         ACCESS:    2223593 HIT:    2047553 MISS:     176040 MSHR_MERGE:          0
cpu0->cpu0_L2C RFO          ACCESS:      69004 HIT:      11215 MISS:      57789 MSHR_MERGE:          0
cpu0->cpu0_L2C PREFETCH     ACCESS:     787909 HIT:     670372 MISS:     117537 MSHR_MERGE:          0
cpu0->cpu0_L2C WRITE        ACCESS:     115250 HIT:     115245 MISS:          5 MSHR_MERGE:          0
cpu0->cpu0_L2C TRANSLATION  ACCESS:      80449 HIT:      72278 MISS:       8171 MSHR_MERGE:          0
cpu0->cpu0_L2C PREFETCH REQUESTED:          0 ISSUED:          0 USEFUL:          0 USELESS:          0 LATE:          0
cpu0->cpu0_L2C AVERAGE MISS LATENCY: 67.75 cycles
cpu0->cpu0_L1I TOTAL        ACCESS:    9139888 HIT:    8966774 MISS:     173114 MSHR_MERGE:      52331
cpu0->cpu0_L1I LOAD         ACCESS:    9139888 HIT:    8966774 MISS:     173114 MSHR_MERGE:      52331
cpu0->cpu0_L1I RFO          ACCESS:          0 HIT:          0 MISS:          0 MSHR_MERGE:          0
cpu0->cpu0_L1I PREFETCH     ACCESS:          0 HIT:          0 MISS:          0 MSHR_MERGE:          0
cpu0->cpu0_L1I WRITE        ACCESS:          0 HIT:          0 MISS:          0 MSHR_MERGE:          0
cpu0->cpu0_L1I TRANSLATION  ACCESS:          0 HIT:          0 MISS:          0 MSHR_MERGE:          0
cpu0->cpu0_L1I PREFETCH REQUESTED:          0 ISSUED:          0 USEFUL:          0 USELESS:          0 LATE:          0
cpu0->cpu0_L1I AVERAGE MISS LATENCY: 9.02 cycles
cpu0->cpu0_L1D TOTAL        ACCESS:   14011232 HIT:   10278618 MISS:    3732614 MSHR_MERGE:     692438
cpu0->cpu0_L1D LOAD         ACCESS:    9087433 HIT:    6553892 MISS:    2533541 MSHR_MERGE:     430731
cpu0->cpu0_L1D RFO          ACCESS:          0 HIT:          0 MISS:          0 MSHR_MERGE:          0
cpu0->cpu0_L1D PREFETCH     ACCESS:    1394297 HIT:     540164 MISS:     854133 MSHR_MERGE:      66224
cpu0->cpu0_L1D WRITE        ACCESS:    3360698 HIT:    3096454 MISS:     264244 MSHR_MERGE:     195236
cpu0->cpu0_L1D TRANSLATION  ACCESS:     168804 HIT:      88108 MISS:      80696 MSHR_MERGE:        247
cpu0->cpu0_L1D PREFETCH REQUESTED:    1430390 ISSUED:    1394297 USEFUL:     206748 USELESS:     581155 LATE:      16289
cpu0->cpu0_L1D AVERAGE MISS LATENCY: 15.42 cycles
cpu0->cpu0_ITLB TOTAL        ACCESS:    8510440 HIT:    8469060 MISS:      41380 MSHR_MERGE:      24054
cpu0->cpu0_ITLB LOAD         ACCESS:    8510440 HIT:    8469060 MISS:      41380 MSHR_MERGE:      24054
cpu0->cpu0_ITLB RFO          ACCESS:          0 HIT:          0 MISS:          0 MSHR_MERGE:          0
cpu0->cpu0_ITLB PREFETCH     ACCESS:          0 HIT:          0 MISS:          0 MSHR_MERGE:          0
cpu0->cpu0_ITLB WRITE        ACCESS:          0 HIT:          0 MISS:          0 MSHR_MERGE:          0
cpu0->cpu0_ITLB TRANSLATION  ACCESS:          0 HIT:          0 MISS:          0 MSHR_MERGE:          0
cpu0->cpu0_ITLB PREFETCH REQUESTED:          0 ISSUED:          0 USEFUL:          0 USELESS:          0 LATE:          0
cpu0->cpu0_ITLB AVERAGE MISS LATENCY: 7.543 cycles
cpu0->cpu0_DTLB TOTAL        ACCESS:   13228446 HIT:   11066205 MISS:    2162241 MSHR_MERGE:     710368
cpu0->cpu0_DTLB LOAD         ACCESS:   13228446 HIT:   11066205 MISS:    2162241 MSHR_MERGE:     710368
cpu0->cpu0_DTLB RFO          ACCESS:          0 HIT:          0 MISS:          0 MSHR_MERGE:          0
cpu0->cpu0_DTLB PREFETCH     ACCESS:          0 HIT:          0 MISS:          0 MSHR_MERGE:          0
cpu0->cpu0_DTLB WRITE        ACCESS:          0 HIT:          0 MISS:          0 MSHR_MERGE:          0
cpu0->cpu0_DTLB TRANSLATION  ACCESS:          0 HIT:          0 MISS:          0 MSHR_MERGE:          0
cpu0->cpu0_DTLB PREFETCH REQUESTED:          0 ISSUED:          0 USEFUL:          0 USELESS:          0 LATE:          0
cpu0->cpu0_DTLB AVERAGE MISS LATENCY: 6.463 cycles
cpu0->LLC TOTAL        ACCESS:     435674 HIT:     344289 MISS:      91385 MSHR_MERGE:          0
cpu0->LLC LOAD         ACCESS:     176040 HIT:     162726 MISS:      13314 MSHR_MERGE:          0
cpu0->LLC RFO          ACCESS:      57789 HIT:       4689 MISS:      53100 MSHR_MERGE:          0
cpu0->LLC PREFETCH     ACCESS:     117537 HIT:      99289 MISS:      18248 MSHR_MERGE:          0
cpu0->LLC WRITE        ACCESS:      76137 HIT:      70160 MISS:       5977 MSHR_MERGE:          0
cpu0->LLC TRANSLATION  ACCESS:       8171 HIT:       7425 MISS:        746 MSHR_MERGE:          0
cpu0->LLC PREFETCH REQUESTED:          0 ISSUED:          0 USEFUL:          0 USELESS:          0 LATE:          0
cpu0->LLC AVERAGE MISS LATENCY: 174.3 cycles

DRAM Statistics

Channel 0 RQ ROW_BUFFER_HIT:       2575
  ROW_BUFFER_MISS:      82833
  AVG DBUS CONGESTED CYCLE: 9.772
Channel 0 WQ ROW_BUFFER_HIT:       6177
  ROW_BUFFER_MISS:      56423
  FULL:          0
Channel 0 REFRESHES ISSUED:       3932

[ROI Statistics]
[System Configuration]
num_cpus 1
cpu_freq 4000
fetch_width 6
decode_width 6
dispatch_width 6
execute_width 6
lq_width 2
sq_width 2
retire_width 6
scheduler_size 128
branch_mispredict_penalty 15
rob_size 352
lq_size 128
sq_size 72
ifetch_buffer_size 64
decode_buffer_size 32
dispatch_buffer_size 32
register_file_size 288
decode_latency 1
dispatch_latency 1
schedule_latency 1
execute_latency 1
page_size 4096
block_size 64
core_0_itlb_set 16
core_0_itlb_way 4
core_0_itlb_rq_size 16
core_0_itlb_wq_size 16
core_0_itlb_pq_size 0
core_0_itlb_mshr_size 8
core_0_itlb_hit_latency 1
core_0_itlb_fill_latency 1
core_0_itlb_max_tag_check 2
core_0_itlb_max_fill 2
core_0_dtlb_set 16
core_0_dtlb_way 4
core_0_dtlb_rq_size 16
core_0_dtlb_wq_size 16
core_0_dtlb_pq_size 0
core_0_dtlb_mshr_size 8
core_0_dtlb_hit_latency 1
core_0_dtlb_fill_latency 1
core_0_dtlb_max_tag_check 2
core_0_dtlb_max_fill 2
core_0_stlb_set 128
core_0_stlb_way 12
core_0_stlb_rq_size 32
core_0_stlb_wq_size 32
core_0_stlb_pq_size 0
core_0_stlb_mshr_size 16
core_0_stlb_hit_latency 4
core_0_stlb_fill_latency 4
core_0_stlb_max_tag_check 1
core_0_stlb_max_fill 1
core_0_l1i_set 64
core_0_l1i_way 8
core_0_l1i_rq_size 64
core_0_l1i_wq_size 64
core_0_l1i_pq_size 32
core_0_l1i_mshr_size 8
core_0_l1i_hit_latency 2
core_0_l1i_fill_latency 2
core_0_l1i_max_tag_check 2
core_0_l1i_max_fill 2
core_0_l1d_set 64
core_0_l1d_way 12
core_0_l1d_rq_size 64
core_0_l1d_wq_size 64
core_0_l1d_pq_size 8
core_0_l1d_mshr_size 16
core_0_l1d_hit_latency 2
core_0_l1d_fill_latency 3
core_0_l1d_max_tag_check 2
core_0_l1d_max_fill 2
core_0_l2c_set 1024
core_0_l2c_way 8
core_0_l2c_rq_size 32
core_0_l2c_wq_size 32
core_0_l2c_pq_size 16
core_0_l2c_mshr_size 32
core_0_l2c_hit_latency 5
core_0_l2c_fill_latency 5
core_0_l2c_max_tag_check 1
core_0_l2c_max_fill 1
llc_set 2048
llc_way 16
llc_rq_size 32
llc_wq_size 32
llc_pq_size 32
llc_mshr_size 64
llc_hit_latency 10
llc_fill_latency 10
llc_max_tag_check 1
llc_max_fill 1
dram_channels 1
dram_ranks 1
dram_bankgroups 8
dram_banks 4
dram_rows 65536
dram_columns 1024
dram_channel_width 8
dram_rq_size 64
dram_wq_size 64
dram_size 17179869184
core_0_itlb_prefetcher no
core_0_dtlb_prefetcher no
core_0_stlb_prefetcher no
core_0_l1i_prefetcher next_line
core_0_l1d_prefetcher berti
core_0_l2c_prefetcher no
llc_prefetcher no
llc_replacement drrip

Core_0_instructions 50000000
Core_0_cycles 47188415
Core_0_IPC 1.05958
Core_0_branch_prediction_accuracy 98.1291
Core_0_branch_MPKI 5.35658
Core_0_average_ROB_occupancy_at_mispredict 52.9254

Core_0_ITLB_total_access 8510440
Core_0_ITLB_total_hit 8469060
Core_0_ITLB_total_miss 41380
Core_0_ITLB_total_MPKI 0.8276
Core_0_ITLB_total_miss_rate 0.00486226
Core_0_ITLB_demand_access 8510440
Core_0_ITLB_demand_hit 8469060
Core_0_ITLB_demand_miss 41380
Core_0_ITLB_demand_MPKI 0.8276
Core_0_ITLB_demand_miss_rate 0.00486226
Core_0_ITLB_load_access 8510440
Core_0_ITLB_load_hit 8469060
Core_0_ITLB_load_miss 41380
Core_0_ITLB_load_MPKI 0.8276
Core_0_ITLB_load_miss_rate 0.00486226
Core_0_ITLB_rfo_access 0
Core_0_ITLB_rfo_hit 0
Core_0_ITLB_rfo_miss 0
Core_0_ITLB_rfo_MPKI 0
Core_0_ITLB_rfo_miss_rate 0
Core_0_ITLB_prefetch_access 0
Core_0_ITLB_prefetch_hit 0
Core_0_ITLB_prefetch_miss 0
Core_0_ITLB_prefetch_MPKI 0
Core_0_ITLB_prefetch_miss_rate 0
Core_0_ITLB_writeback_access 0
Core_0_ITLB_writeback_hit 0
Core_0_ITLB_writeback_miss 0
Core_0_ITLB_writeback_MPKI 0
Core_0_ITLB_writeback_miss_rate 0
Core_0_ITLB_prefetch_requested 0
Core_0_ITLB_prefetch_issued 0
Core_0_ITLB_prefetch_useful 0
Core_0_ITLB_prefetch_useless 0
Core_0_ITLB_prefetch_late 0
Core_0_ITLB_prefetch_accuracy 0
Core_0_ITLB_prefetch_coverage 0

Core_0_DTLB_total_access 13228446
Core_0_DTLB_total_hit 11066205
Core_0_DTLB_total_miss 2162241
Core_0_DTLB_total_MPKI 43.2448
Core_0_DTLB_total_miss_rate 0.163454
Core_0_DTLB_demand_access 13228446
Core_0_DTLB_demand_hit 11066205
Core_0_DTLB_demand_miss 2162241
Core_0_DTLB_demand_MPKI 43.2448
Core_0_DTLB_demand_miss_rate 0.163454
Core_0_DTLB_load_access 13228446
Core_0_DTLB_load_hit 11066205
Core_0_DTLB_load_miss 2162241
Core_0_DTLB_load_MPKI 43.2448
Core_0_DTLB_load_miss_rate 0.163454
Core_0_DTLB_rfo_access 0
Core_0_DTLB_rfo_hit 0
Core_0_DTLB_rfo_miss 0
Core_0_DTLB_rfo_MPKI 0
Core_0_DTLB_rfo_miss_rate 0
Core_0_DTLB_prefetch_access 0
Core_0_DTLB_prefetch_hit 0
Core_0_DTLB_prefetch_miss 0
Core_0_DTLB_prefetch_MPKI 0
Core_0_DTLB_prefetch_miss_rate 0
Core_0_DTLB_writeback_access 0
Core_0_DTLB_writeback_hit 0
Core_0_DTLB_writeback_miss 0
Core_0_DTLB_writeback_MPKI 0
Core_0_DTLB_writeback_miss_rate 0
Core_0_DTLB_prefetch_requested 0
Core_0_DTLB_prefetch_issued 0
Core_0_DTLB_prefetch_useful 0
Core_0_DTLB_prefetch_useless 0
Core_0_DTLB_prefetch_late 0
Core_0_DTLB_prefetch_accuracy 0
Core_0_DTLB_prefetch_coverage 0

Core_0_STLB_total_access 1469199
Core_0_STLB_total_hit 1384796
Core_0_STLB_total_miss 84403
Core_0_STLB_total_MPKI 1.68806
Core_0_STLB_total_miss_rate 0.0574483
Core_0_STLB_demand_access 1469199
Core_0_STLB_demand_hit 1384796
Core_0_STLB_demand_miss 84403
Core_0_STLB_demand_MPKI 1.68806
Core_0_STLB_demand_miss_rate 0.0574483
Core_0_STLB_load_access 1469199
Core_0_STLB_load_hit 1384796
Core_0_STLB_load_miss 84403
Core_0_STLB_load_MPKI 1.68806
Core_0_STLB_load_miss_rate 0.0574483
Core_0_STLB_rfo_access 0
Core_0_STLB_rfo_hit 0
Core_0_STLB_rfo_miss 0
Core_0_STLB_rfo_MPKI 0
Core_0_STLB_rfo_miss_rate 0
Core_0_STLB_prefetch_access 0
Core_0_STLB_prefetch_hit 0
Core_0_STLB_prefetch_miss 0
Core_0_STLB_prefetch_MPKI 0
Core_0_STLB_prefetch_miss_rate 0
Core_0_STLB_writeback_access 0
Core_0_STLB_writeback_hit 0
Core_0_STLB_writeback_miss 0
Core_0_STLB_writeback_MPKI 0
Core_0_STLB_writeback_miss_rate 0
Core_0_STLB_prefetch_requested 0
Core_0_STLB_prefetch_issued 0
Core_0_STLB_prefetch_useful 0
Core_0_STLB_prefetch_useless 0
Core_0_STLB_prefetch_late 0
Core_0_STLB_prefetch_accuracy 0
Core_0_STLB_prefetch_coverage 0

Core_0_L1I_total_access 9139888
Core_0_L1I_total_hit 8966774
Core_0_L1I_total_miss 173114
Core_0_L1I_total_MPKI 3.46228
Core_0_L1I_total_miss_rate 0.0189405
Core_0_L1I_demand_access 9139888
Core_0_L1I_demand_hit 8966774
Core_0_L1I_demand_miss 173114
Core_0_L1I_demand_MPKI 3.46228
Core_0_L1I_demand_miss_rate 0.0189405
Core_0_L1I_load_access 9139888
Core_0_L1I_load_hit 8966774
Core_0_L1I_load_miss 173114
Core_0_L1I_load_MPKI 3.46228
Core_0_L1I_load_miss_rate 0.0189405
Core_0_L1I_rfo_access 0
Core_0_L1I_rfo_hit 0
Core_0_L1I_rfo_miss 0
Core_0_L1I_rfo_MPKI 0
Core_0_L1I_rfo_miss_rate 0
Core_0_L1I_prefetch_access 0
Core_0_L1I_prefetch_hit 0
Core_0_L1I_prefetch_miss 0
Core_0_L1I_prefetch_MPKI 0
Core_0_L1I_prefetch_miss_rate 0
Core_0_L1I_writeback_access 0
Core_0_L1I_writeback_hit 0
Core_0_L1I_writeback_miss 0
Core_0_L1I_writeback_MPKI 0
Core_0_L1I_writeback_miss_rate 0
Core_0_L1I_prefetch_requested 0
Core_0_L1I_prefetch_issued 0
Core_0_L1I_prefetch_useful 0
Core_0_L1I_prefetch_useless 0
Core_0_L1I_prefetch_late 0
Core_0_L1I_prefetch_accuracy 0
Core_0_L1I_prefetch_coverage 0

Core_0_L1D_total_access 13842428
Core_0_L1D_total_hit 10190510
Core_0_L1D_total_miss 3651918
Core_0_L1D_total_MPKI 73.0384
Core_0_L1D_total_miss_rate 0.263821
Core_0_L1D_demand_access 9087433
Core_0_L1D_demand_hit 6553892
Core_0_L1D_demand_miss 2533541
Core_0_L1D_demand_MPKI 50.6708
Core_0_L1D_demand_miss_rate 0.278796
Core_0_L1D_load_access 9087433
Core_0_L1D_load_hit 6553892
Core_0_L1D_load_miss 2533541
Core_0_L1D_load_MPKI 50.6708
Core_0_L1D_load_miss_rate 0.278796
Core_0_L1D_rfo_access 0
Core_0_L1D_rfo_hit 0
Core_0_L1D_rfo_miss 0
Core_0_L1D_rfo_MPKI 0
Core_0_L1D_rfo_miss_rate 0
Core_0_L1D_prefetch_access 1394297
Core_0_L1D_prefetch_hit 540164
Core_0_L1D_prefetch_miss 854133
Core_0_L1D_prefetch_MPKI 17.0827
Core_0_L1D_prefetch_miss_rate 0.61259
Core_0_L1D_writeback_access 3360698
Core_0_L1D_writeback_hit 3096454
Core_0_L1D_writeback_miss 264244
Core_0_L1D_writeback_MPKI 5.28488
Core_0_L1D_writeback_miss_rate 0.0786277
Core_0_L1D_prefetch_requested 1430390
Core_0_L1D_prefetch_issued 1394297
Core_0_L1D_prefetch_useful 206748
Core_0_L1D_prefetch_useless 581155
Core_0_L1D_prefetch_late 16289
Core_0_L1D_prefetch_accuracy 0.148281
Core_0_L1D_prefetch_coverage 0.0754475

Core_0_L2C_total_access 3195756
Core_0_L2C_total_hit 2844385
Core_0_L2C_total_miss 351371
Core_0_L2C_total_MPKI 7.02742
Core_0_L2C_total_miss_rate 0.109949
Core_0_L2C_demand_access 2292597
Core_0_L2C_demand_hit 2058768
Core_0_L2C_demand_miss 233829
Core_0_L2C_demand_MPKI 4.67658
Core_0_L2C_demand_miss_rate 0.101993
Core_0_L2C_load_access 2223593
Core_0_L2C_load_hit 2047553
Core_0_L2C_load_miss 176040
Core_0_L2C_load_MPKI 3.5208
Core_0_L2C_load_miss_rate 0.0791692
Core_0_L2C_rfo_access 69004
Core_0_L2C_rfo_hit 11215
Core_0_L2C_rfo_miss 57789
Core_0_L2C_rfo_MPKI 1.15578
Core_0_L2C_rfo_miss_rate 0.837473
Core_0_L2C_prefetch_access 787909
Core_0_L2C_prefetch_hit 670372
Core_0_L2C_prefetch_miss 117537
Core_0_L2C_prefetch_MPKI 2.35074
Core_0_L2C_prefetch_miss_rate 0.149176
Core_0_L2C_writeback_access 115250
Core_0_L2C_writeback_hit 115245
Core_0_L2C_writeback_miss 5
Core_0_L2C_writeback_MPKI 0.0001
Core_0_L2C_writeback_miss_rate 4.33839e-05
Core_0_L2C_prefetch_requested 0
Core_0_L2C_prefetch_issued 0
Core_0_L2C_prefetch_useful 0
Core_0_L2C_prefetch_useless 0
Core_0_L2C_prefetch_late 0
Core_0_L2C_prefetch_accuracy 0
Core_0_L2C_prefetch_coverage 0

Core_0_LLC_total_access 427503
Core_0_LLC_total_hit 336864
Core_0_LLC_total_miss 90639
Core_0_LLC_total_MPKI 1.81278
Core_0_LLC_total_miss_rate 0.21202
Core_0_LLC_demand_access 233829
Core_0_LLC_demand_hit 167415
Core_0_LLC_demand_miss 66414
Core_0_LLC_demand_MPKI 1.32828
Core_0_LLC_demand_miss_rate 0.284028
Core_0_LLC_load_access 176040
Core_0_LLC_load_hit 162726
Core_0_LLC_load_miss 13314
Core_0_LLC_load_MPKI 0.26628
Core_0_LLC_load_miss_rate 0.0756305
Core_0_LLC_rfo_access 57789
Core_0_LLC_rfo_hit 4689
Core_0_LLC_rfo_miss 53100
Core_0_LLC_rfo_MPKI 1.062
Core_0_LLC_rfo_miss_rate 0.91886
Core_0_LLC_prefetch_access 117537
Core_0_LLC_prefetch_hit 99289
Core_0_LLC_prefetch_miss 18248
Core_0_LLC_prefetch_MPKI 0.36496
Core_0_LLC_prefetch_miss_rate 0.155253
Core_0_LLC_writeback_access 76137
Core_0_LLC_writeback_hit 70160
Core_0_LLC_writeback_miss 5977
Core_0_LLC_writeback_MPKI 0.11954
Core_0_LLC_writeback_miss_rate 0.0785032
Core_0_LLC_prefetch_requested 0
Core_0_LLC_prefetch_issued 0
Core_0_LLC_prefetch_useful 0
Core_0_LLC_prefetch_useless 0
Core_0_LLC_prefetch_late 0
Core_0_LLC_prefetch_accuracy 0
Core_0_LLC_prefetch_coverage 0

[DRAM Statistics]
Channel_0_RQ_row_buffer_hit 2575
Channel_0_RQ_row_buffer_miss 82833
Channel_0_WQ_row_buffer_hit 6177
Channel_0_WQ_row_buffer_miss 56423
Channel_0_WQ_full 0
Channel_0_dbus_congested 356917
DRAM_total_RQ_row_buffer_hit 2575
DRAM_total_RQ_row_buffer_miss 82833
DRAM_total_WQ_row_buffer_hit 6177
DRAM_total_WQ_row_buffer_miss 56423
DRAM_total_WQ_full 0
DRAM_total_dbus_congested 356917
DRAM_avg_congested_cycle 9.7721

====== DRAM_RQ_TRAFFIC ========
DRAM_RQ_READ_TRAFFIC_BREAKDOWN:
data_demand_read.count = 65392
data_demand_read.share = 76.56%

inst_demand_read.count = 1022
inst_demand_read.share = 1.20%

cache_inst_prefetch.count = 0
cache_inst_prefetch.share = 0.00%

cache_data_prefetch.count = 18248
cache_data_prefetch.share = 21.37%

stlb_data_demand.count = 671
stlb_data_demand.share = 0.79%

stlb_inst_demand.count = 43
stlb_inst_demand.share = 0.05%

stlb_l1i_pref.count = 0
stlb_l1i_pref.share = 0.00%

stlb_l1d_pref.count = 32
stlb_l1d_pref.share = 0.04%

DRAM_RQ_READ_TRAFFIC_SUMMARY:
cache_demand.count = 66414
cache_demand.share = 77.76%

cache_prefetch.count = 18248
cache_prefetch.share = 21.37%

stlb_demand.count = 714
stlb_demand.share = 0.84%

stlb_prefetch.count = 32
stlb_prefetch.share = 0.04%

DRAM_RQ_READ_TRAFFIC_DEBUG:
total_classified_read.count = 85408
unclassified_read.count = 0
total_read_with_other.count = 85408

classified_plus_unclassified_check.count = 85408
dram_rq_read_total_observed.count = 85408
dram_rq_read_total_observed.per_1K_instructions = 1.70816

STLB_MISS_PTW_DRAM_TOUCH_BREAKDOWN:
stlb_miss_total.count = 84403

stlb_miss_touch_dram.count = 745
stlb_miss_touch_dram.share = 0.88%

stlb_miss_no_dram_touch.count = 83658
stlb_miss_no_dram_touch.share = 99.12%

STLB_MISS_PTW_DRAM_TOUCH_DEBUG:
stlb_miss_touch_plus_no_touch.count = 84403
stlb_miss_total_check.count = 84403

======STLB miss causes ========
Core_0_STLB_miss_cause_breakdown
Core_0_STLB_cause_Demand_Data_miss 80434
Core_0_STLB_cause_Demand_Data_miss_rate 0.0547468
Core_0_STLB_cause_Demand_Instruction_miss 992
Core_0_STLB_cause_Demand_Instruction_miss_rate 0.000675198
Core_0_STLB_cause_L1D_Prefetch_miss 2977
Core_0_STLB_cause_L1D_Prefetch_miss_rate 0.00202627
Core_0_STLB_cause_L1I_Prefetch_miss 0
Core_0_STLB_cause_L1I_Prefetch_miss_rate 0
Core_0_STLB_cause_Other_miss 0
Core_0_STLB_cause_Other_miss_rate 0
Core_0_STLB_Demand_miss 81426
Core_0_STLB_Demand_miss_rate 0.055422
Core_0_STLB_L1D_Prefetch_miss 2977
Core_0_STLB_L1D_Prefetch_miss_rate 0.00202627
Core_0_STLB_Other_miss 0
Core_0_STLB_Other_miss_rate 0
