[VMEM] WARNING: physical memory size is smaller than virtual memory size.

*** ChampSim Multicore Out-of-Order Simulator ***
Warmup Instructions: 20000000
Simulation Instructions: 50000000
Number of CPUs: 1
Page size: 4096
Core 0: /data0/tzh/champsim_traces/GAP/gap.bc.twitter-10B.champsimtrace.xz
 L1D Berti prefetcher
Off-chip DRAM Size: 16 GiB Channels: 1 Width: 64-bit Data Rate: 3205 MT/s
Warmup halting CPU 0 at instruction 20000000 cycle 11983345 for remainder of phase
Warmup finished CPU 0 instructions: 20000000 cycles: 11983345 cumulative IPC: 1.669 (Simulation time: 00 hr 02 min 27 sec)
Warmup complete CPU 0 instructions: 20000000 cycles: 11983345 cumulative IPC: 1.669 (Simulation time: 00 hr 02 min 27 sec)
Simulation finished CPU 0 instructions: 50000000 cycles: 303018298 cumulative IPC: 0.165 (Simulation time: 00 hr 32 min 55 sec)
Simulation complete CPU 0 instructions: 50000000 cycles: 303018298 cumulative IPC: 0.165 (Simulation time: 00 hr 32 min 55 sec)

ChampSim completed all CPUs

=== Simulation ===
CPU 0 runs /data0/tzh/champsim_traces/GAP/gap.bc.twitter-10B.champsimtrace.xz

Region of Interest Statistics

CPU 0 cumulative IPC: 0.165 instructions: 50000000 cycles: 303018298
CPU 0 Branch Prediction Accuracy: 91.12% MPKI: 13.13 Average ROB Occupancy at Mispredict: 68.05
Branch type MPKI
BRANCH_DIRECT_JUMP: 0
BRANCH_INDIRECT: 0
BRANCH_CONDITIONAL: 13.13
BRANCH_DIRECT_CALL: 0
BRANCH_INDIRECT_CALL: 0
BRANCH_RETURN: 0

cpu0->cpu0_STLB TOTAL        ACCESS:    1848640 HIT:      60995 MISS:    1787645 MSHR_MERGE:          0
cpu0->cpu0_STLB LOAD         ACCESS:    1848640 HIT:      60995 MISS:    1787645 MSHR_MERGE:          0
cpu0->cpu0_STLB RFO          ACCESS:          0 HIT:          0 MISS:          0 MSHR_MERGE:          0
cpu0->cpu0_STLB PREFETCH     ACCESS:          0 HIT:          0 MISS:          0 MSHR_MERGE:          0
cpu0->cpu0_STLB WRITE        ACCESS:          0 HIT:          0 MISS:          0 MSHR_MERGE:          0
cpu0->cpu0_STLB TRANSLATION  ACCESS:          0 HIT:          0 MISS:          0 MSHR_MERGE:          0
cpu0->cpu0_STLB PREFETCH REQUESTED:          0 ISSUED:          0 USEFUL:          0 USELESS:          0 LATE:          0
cpu0->cpu0_STLB AVERAGE MISS LATENCY: 99.48 cycles
cpu0->cpu0_L2C TOTAL        ACCESS:    8126898 HIT:    1958880 MISS:    6168018 MSHR_MERGE:          0
cpu0->cpu0_L2C LOAD         ACCESS:    3476651 HIT:      29245 MISS:    3447406 MSHR_MERGE:          0
cpu0->cpu0_L2C RFO          ACCESS:      12780 HIT:       4960 MISS:       7820 MSHR_MERGE:          0
cpu0->cpu0_L2C PREFETCH     ACCESS:    1764300 HIT:       1819 MISS:    1762481 MSHR_MERGE:          0
cpu0->cpu0_L2C WRITE        ACCESS:    1533069 HIT:    1532953 MISS:        116 MSHR_MERGE:          0
cpu0->cpu0_L2C TRANSLATION  ACCESS:    1340098 HIT:     389903 MISS:     950195 MSHR_MERGE:          0
cpu0->cpu0_L2C PREFETCH REQUESTED:          0 ISSUED:          0 USEFUL:          0 USELESS:          0 LATE:          0
cpu0->cpu0_L2C AVERAGE MISS LATENCY: 251 cycles
cpu0->cpu0_L1I TOTAL        ACCESS:     401533 HIT:     401533 MISS:          0 MSHR_MERGE:          0
cpu0->cpu0_L1I LOAD         ACCESS:     401533 HIT:     401533 MISS:          0 MSHR_MERGE:          0
cpu0->cpu0_L1I RFO          ACCESS:          0 HIT:          0 MISS:          0 MSHR_MERGE:          0
cpu0->cpu0_L1I PREFETCH     ACCESS:          0 HIT:          0 MISS:          0 MSHR_MERGE:          0
cpu0->cpu0_L1I WRITE        ACCESS:          0 HIT:          0 MISS:          0 MSHR_MERGE:          0
cpu0->cpu0_L1I TRANSLATION  ACCESS:          0 HIT:          0 MISS:          0 MSHR_MERGE:          0
cpu0->cpu0_L1I PREFETCH REQUESTED:          0 ISSUED:          0 USEFUL:          0 USELESS:          0 LATE:          0
cpu0->cpu0_L1I AVERAGE MISS LATENCY: - cycles
cpu0->cpu0_L1D TOTAL        ACCESS:   20110526 HIT:   12846370 MISS:    7264156 MSHR_MERGE:     670329
cpu0->cpu0_L1D LOAD         ACCESS:   10913786 HIT:    7090870 MISS:    3822916 MSHR_MERGE:     346266
cpu0->cpu0_L1D RFO          ACCESS:          0 HIT:          0 MISS:          0 MSHR_MERGE:          0
cpu0->cpu0_L1D PREFETCH     ACCESS:    1918907 HIT:      99847 MISS:    1819060 MSHR_MERGE:      54760
cpu0->cpu0_L1D WRITE        ACCESS:    3366606 HIT:    3213057 MISS:     153549 MSHR_MERGE:     140769
cpu0->cpu0_L1D TRANSLATION  ACCESS:    3911227 HIT:    2442596 MISS:    1468631 MSHR_MERGE:     128534
cpu0->cpu0_L1D PREFETCH REQUESTED:    1929262 ISSUED:    1918899 USEFUL:     410851 USELESS:    1353154 LATE:     100290
cpu0->cpu0_L1D AVERAGE MISS LATENCY: 238.1 cycles
cpu0->cpu0_ITLB TOTAL        ACCESS:     401145 HIT:     401145 MISS:          0 MSHR_MERGE:          0
cpu0->cpu0_ITLB LOAD         ACCESS:     401145 HIT:     401145 MISS:          0 MSHR_MERGE:          0
cpu0->cpu0_ITLB RFO          ACCESS:          0 HIT:          0 MISS:          0 MSHR_MERGE:          0
cpu0->cpu0_ITLB PREFETCH     ACCESS:          0 HIT:          0 MISS:          0 MSHR_MERGE:          0
cpu0->cpu0_ITLB WRITE        ACCESS:          0 HIT:          0 MISS:          0 MSHR_MERGE:          0
cpu0->cpu0_ITLB TRANSLATION  ACCESS:          0 HIT:          0 MISS:          0 MSHR_MERGE:          0
cpu0->cpu0_ITLB PREFETCH REQUESTED:          0 ISSUED:          0 USEFUL:          0 USELESS:          0 LATE:          0
cpu0->cpu0_ITLB AVERAGE MISS LATENCY: - cycles
cpu0->cpu0_DTLB TOTAL        ACCESS:   15897159 HIT:   13624308 MISS:    2272851 MSHR_MERGE:     424211
cpu0->cpu0_DTLB LOAD         ACCESS:   15897159 HIT:   13624308 MISS:    2272851 MSHR_MERGE:     424211
cpu0->cpu0_DTLB RFO          ACCESS:          0 HIT:          0 MISS:          0 MSHR_MERGE:          0
cpu0->cpu0_DTLB PREFETCH     ACCESS:          0 HIT:          0 MISS:          0 MSHR_MERGE:          0
cpu0->cpu0_DTLB WRITE        ACCESS:          0 HIT:          0 MISS:          0 MSHR_MERGE:          0
cpu0->cpu0_DTLB TRANSLATION  ACCESS:          0 HIT:          0 MISS:          0 MSHR_MERGE:          0
cpu0->cpu0_DTLB PREFETCH REQUESTED:          0 ISSUED:          0 USEFUL:          0 USELESS:          0 LATE:          0
cpu0->cpu0_DTLB AVERAGE MISS LATENCY: 102.2 cycles
cpu0->LLC TOTAL        ACCESS:    7694035 HIT:    1883795 MISS:    5810240 MSHR_MERGE:          0
cpu0->LLC LOAD         ACCESS:    3447406 HIT:      41602 MISS:    3405804 MSHR_MERGE:          0
cpu0->LLC RFO          ACCESS:       7820 HIT:        131 MISS:       7689 MSHR_MERGE:          0
cpu0->LLC PREFETCH     ACCESS:    1762481 HIT:       1350 MISS:    1761131 MSHR_MERGE:          0
cpu0->LLC WRITE        ACCESS:    1526133 HIT:    1284198 MISS:     241935 MSHR_MERGE:          0
cpu0->LLC TRANSLATION  ACCESS:     950195 HIT:     556514 MISS:     393681 MSHR_MERGE:          0
cpu0->LLC PREFETCH REQUESTED:          0 ISSUED:          0 USEFUL:          0 USELESS:          0 LATE:          0
cpu0->LLC AVERAGE MISS LATENCY: 256.4 cycles

DRAM Statistics

Channel 0 RQ ROW_BUFFER_HIT:     205067
  ROW_BUFFER_MISS:    5363214
  AVG DBUS CONGESTED CYCLE: 6.187
Channel 0 WQ ROW_BUFFER_HIT:     337436
  ROW_BUFFER_MISS:    1166311
  FULL:          0
Channel 0 REFRESHES ISSUED:      25252

[ROI Statistics]
[System Configuration]
num_cpus 1
cpu_freq 4000
fetch_width 6
decode_width 6
dispatch_width 6
execute_width 6
lq_width 2
sq_width 2
retire_width 6
scheduler_size 128
branch_mispredict_penalty 15
rob_size 352
lq_size 128
sq_size 72
ifetch_buffer_size 64
decode_buffer_size 32
dispatch_buffer_size 32
register_file_size 288
decode_latency 1
dispatch_latency 1
schedule_latency 1
execute_latency 1
page_size 4096
block_size 64
core_0_itlb_set 16
core_0_itlb_way 4
core_0_itlb_rq_size 16
core_0_itlb_wq_size 16
core_0_itlb_pq_size 0
core_0_itlb_mshr_size 8
core_0_itlb_hit_latency 1
core_0_itlb_fill_latency 1
core_0_itlb_max_tag_check 2
core_0_itlb_max_fill 2
core_0_dtlb_set 16
core_0_dtlb_way 4
core_0_dtlb_rq_size 16
core_0_dtlb_wq_size 16
core_0_dtlb_pq_size 0
core_0_dtlb_mshr_size 8
core_0_dtlb_hit_latency 1
core_0_dtlb_fill_latency 1
core_0_dtlb_max_tag_check 2
core_0_dtlb_max_fill 2
core_0_stlb_set 128
core_0_stlb_way 12
core_0_stlb_rq_size 32
core_0_stlb_wq_size 32
core_0_stlb_pq_size 0
core_0_stlb_mshr_size 16
core_0_stlb_hit_latency 4
core_0_stlb_fill_latency 4
core_0_stlb_max_tag_check 1
core_0_stlb_max_fill 1
core_0_l1i_set 64
core_0_l1i_way 8
core_0_l1i_rq_size 64
core_0_l1i_wq_size 64
core_0_l1i_pq_size 32
core_0_l1i_mshr_size 8
core_0_l1i_hit_latency 2
core_0_l1i_fill_latency 2
core_0_l1i_max_tag_check 2
core_0_l1i_max_fill 2
core_0_l1d_set 64
core_0_l1d_way 12
core_0_l1d_rq_size 64
core_0_l1d_wq_size 64
core_0_l1d_pq_size 8
core_0_l1d_mshr_size 16
core_0_l1d_hit_latency 2
core_0_l1d_fill_latency 3
core_0_l1d_max_tag_check 2
core_0_l1d_max_fill 2
core_0_l2c_set 1024
core_0_l2c_way 8
core_0_l2c_rq_size 32
core_0_l2c_wq_size 32
core_0_l2c_pq_size 16
core_0_l2c_mshr_size 32
core_0_l2c_hit_latency 5
core_0_l2c_fill_latency 5
core_0_l2c_max_tag_check 1
core_0_l2c_max_fill 1
llc_set 2048
llc_way 16
llc_rq_size 32
llc_wq_size 32
llc_pq_size 32
llc_mshr_size 64
llc_hit_latency 10
llc_fill_latency 10
llc_max_tag_check 1
llc_max_fill 1
dram_channels 1
dram_ranks 1
dram_bankgroups 8
dram_banks 4
dram_rows 65536
dram_columns 1024
dram_channel_width 8
dram_rq_size 64
dram_wq_size 64
dram_size 17179869184
core_0_itlb_prefetcher no
core_0_dtlb_prefetcher no
core_0_stlb_prefetcher no
core_0_l1i_prefetcher next_line
core_0_l1d_prefetcher berti
core_0_l2c_prefetcher no
llc_prefetcher no
llc_replacement drrip

Core_0_instructions 50000000
Core_0_cycles 303018298
Core_0_IPC 0.165007
Core_0_branch_prediction_accuracy 91.1191
Core_0_branch_MPKI 13.1255
Core_0_average_ROB_occupancy_at_mispredict 68.0481

Core_0_ITLB_total_access 401145
Core_0_ITLB_total_hit 401145
Core_0_ITLB_total_miss 0
Core_0_ITLB_total_MPKI 0
Core_0_ITLB_total_miss_rate 0
Core_0_ITLB_demand_access 401145
Core_0_ITLB_demand_hit 401145
Core_0_ITLB_demand_miss 0
Core_0_ITLB_demand_MPKI 0
Core_0_ITLB_demand_miss_rate 0
Core_0_ITLB_load_access 401145
Core_0_ITLB_load_hit 401145
Core_0_ITLB_load_miss 0
Core_0_ITLB_load_MPKI 0
Core_0_ITLB_load_miss_rate 0
Core_0_ITLB_rfo_access 0
Core_0_ITLB_rfo_hit 0
Core_0_ITLB_rfo_miss 0
Core_0_ITLB_rfo_MPKI 0
Core_0_ITLB_rfo_miss_rate 0
Core_0_ITLB_prefetch_access 0
Core_0_ITLB_prefetch_hit 0
Core_0_ITLB_prefetch_miss 0
Core_0_ITLB_prefetch_MPKI 0
Core_0_ITLB_prefetch_miss_rate 0
Core_0_ITLB_writeback_access 0
Core_0_ITLB_writeback_hit 0
Core_0_ITLB_writeback_miss 0
Core_0_ITLB_writeback_MPKI 0
Core_0_ITLB_writeback_miss_rate 0
Core_0_ITLB_prefetch_requested 0
Core_0_ITLB_prefetch_issued 0
Core_0_ITLB_prefetch_useful 0
Core_0_ITLB_prefetch_useless 0
Core_0_ITLB_prefetch_late 0
Core_0_ITLB_prefetch_accuracy 0
Core_0_ITLB_prefetch_coverage 0

Core_0_DTLB_total_access 15897159
Core_0_DTLB_total_hit 13624308
Core_0_DTLB_total_miss 2272851
Core_0_DTLB_total_MPKI 45.457
Core_0_DTLB_total_miss_rate 0.142972
Core_0_DTLB_demand_access 15897159
Core_0_DTLB_demand_hit 13624308
Core_0_DTLB_demand_miss 2272851
Core_0_DTLB_demand_MPKI 45.457
Core_0_DTLB_demand_miss_rate 0.142972
Core_0_DTLB_load_access 15897159
Core_0_DTLB_load_hit 13624308
Core_0_DTLB_load_miss 2272851
Core_0_DTLB_load_MPKI 45.457
Core_0_DTLB_load_miss_rate 0.142972
Core_0_DTLB_rfo_access 0
Core_0_DTLB_rfo_hit 0
Core_0_DTLB_rfo_miss 0
Core_0_DTLB_rfo_MPKI 0
Core_0_DTLB_rfo_miss_rate 0
Core_0_DTLB_prefetch_access 0
Core_0_DTLB_prefetch_hit 0
Core_0_DTLB_prefetch_miss 0
Core_0_DTLB_prefetch_MPKI 0
Core_0_DTLB_prefetch_miss_rate 0
Core_0_DTLB_writeback_access 0
Core_0_DTLB_writeback_hit 0
Core_0_DTLB_writeback_miss 0
Core_0_DTLB_writeback_MPKI 0
Core_0_DTLB_writeback_miss_rate 0
Core_0_DTLB_prefetch_requested 0
Core_0_DTLB_prefetch_issued 0
Core_0_DTLB_prefetch_useful 0
Core_0_DTLB_prefetch_useless 0
Core_0_DTLB_prefetch_late 0
Core_0_DTLB_prefetch_accuracy 0
Core_0_DTLB_prefetch_coverage 0

Core_0_STLB_total_access 1848640
Core_0_STLB_total_hit 60995
Core_0_STLB_total_miss 1787645
Core_0_STLB_total_MPKI 35.7529
Core_0_STLB_total_miss_rate 0.967005
Core_0_STLB_demand_access 1848640
Core_0_STLB_demand_hit 60995
Core_0_STLB_demand_miss 1787645
Core_0_STLB_demand_MPKI 35.7529
Core_0_STLB_demand_miss_rate 0.967005
Core_0_STLB_load_access 1848640
Core_0_STLB_load_hit 60995
Core_0_STLB_load_miss 1787645
Core_0_STLB_load_MPKI 35.7529
Core_0_STLB_load_miss_rate 0.967005
Core_0_STLB_rfo_access 0
Core_0_STLB_rfo_hit 0
Core_0_STLB_rfo_miss 0
Core_0_STLB_rfo_MPKI 0
Core_0_STLB_rfo_miss_rate 0
Core_0_STLB_prefetch_access 0
Core_0_STLB_prefetch_hit 0
Core_0_STLB_prefetch_miss 0
Core_0_STLB_prefetch_MPKI 0
Core_0_STLB_prefetch_miss_rate 0
Core_0_STLB_writeback_access 0
Core_0_STLB_writeback_hit 0
Core_0_STLB_writeback_miss 0
Core_0_STLB_writeback_MPKI 0
Core_0_STLB_writeback_miss_rate 0
Core_0_STLB_prefetch_requested 0
Core_0_STLB_prefetch_issued 0
Core_0_STLB_prefetch_useful 0
Core_0_STLB_prefetch_useless 0
Core_0_STLB_prefetch_late 0
Core_0_STLB_prefetch_accuracy 0
Core_0_STLB_prefetch_coverage 0

Core_0_L1I_total_access 401533
Core_0_L1I_total_hit 401533
Core_0_L1I_total_miss 0
Core_0_L1I_total_MPKI 0
Core_0_L1I_total_miss_rate 0
Core_0_L1I_demand_access 401533
Core_0_L1I_demand_hit 401533
Core_0_L1I_demand_miss 0
Core_0_L1I_demand_MPKI 0
Core_0_L1I_demand_miss_rate 0
Core_0_L1I_load_access 401533
Core_0_L1I_load_hit 401533
Core_0_L1I_load_miss 0
Core_0_L1I_load_MPKI 0
Core_0_L1I_load_miss_rate 0
Core_0_L1I_rfo_access 0
Core_0_L1I_rfo_hit 0
Core_0_L1I_rfo_miss 0
Core_0_L1I_rfo_MPKI 0
Core_0_L1I_rfo_miss_rate 0
Core_0_L1I_prefetch_access 0
Core_0_L1I_prefetch_hit 0
Core_0_L1I_prefetch_miss 0
Core_0_L1I_prefetch_MPKI 0
Core_0_L1I_prefetch_miss_rate 0
Core_0_L1I_writeback_access 0
Core_0_L1I_writeback_hit 0
Core_0_L1I_writeback_miss 0
Core_0_L1I_writeback_MPKI 0
Core_0_L1I_writeback_miss_rate 0
Core_0_L1I_prefetch_requested 0
Core_0_L1I_prefetch_issued 0
Core_0_L1I_prefetch_useful 0
Core_0_L1I_prefetch_useless 0
Core_0_L1I_prefetch_late 0
Core_0_L1I_prefetch_accuracy 0
Core_0_L1I_prefetch_coverage 0

Core_0_L1D_total_access 16199299
Core_0_L1D_total_hit 10403774
Core_0_L1D_total_miss 5795525
Core_0_L1D_total_MPKI 115.91
Core_0_L1D_total_miss_rate 0.357764
Core_0_L1D_demand_access 10913786
Core_0_L1D_demand_hit 7090870
Core_0_L1D_demand_miss 3822916
Core_0_L1D_demand_MPKI 76.4583
Core_0_L1D_demand_miss_rate 0.350283
Core_0_L1D_load_access 10913786
Core_0_L1D_load_hit 7090870
Core_0_L1D_load_miss 3822916
Core_0_L1D_load_MPKI 76.4583
Core_0_L1D_load_miss_rate 0.350283
Core_0_L1D_rfo_access 0
Core_0_L1D_rfo_hit 0
Core_0_L1D_rfo_miss 0
Core_0_L1D_rfo_MPKI 0
Core_0_L1D_rfo_miss_rate 0
Core_0_L1D_prefetch_access 1918907
Core_0_L1D_prefetch_hit 99847
Core_0_L1D_prefetch_miss 1819060
Core_0_L1D_prefetch_MPKI 36.3812
Core_0_L1D_prefetch_miss_rate 0.947967
Core_0_L1D_writeback_access 3366606
Core_0_L1D_writeback_hit 3213057
Core_0_L1D_writeback_miss 153549
Core_0_L1D_writeback_MPKI 3.07098
Core_0_L1D_writeback_miss_rate 0.0456094
Core_0_L1D_prefetch_requested 1929262
Core_0_L1D_prefetch_issued 1918899
Core_0_L1D_prefetch_useful 410851
Core_0_L1D_prefetch_useless 1353154
Core_0_L1D_prefetch_late 100290
Core_0_L1D_prefetch_accuracy 0.214108
Core_0_L1D_prefetch_coverage 0.0970415

Core_0_L2C_total_access 6786800
Core_0_L2C_total_hit 1568977
Core_0_L2C_total_miss 5217823
Core_0_L2C_total_MPKI 104.356
Core_0_L2C_total_miss_rate 0.768819
Core_0_L2C_demand_access 3489431
Core_0_L2C_demand_hit 34205
Core_0_L2C_demand_miss 3455226
Core_0_L2C_demand_MPKI 69.1045
Core_0_L2C_demand_miss_rate 0.990198
Core_0_L2C_load_access 3476651
Core_0_L2C_load_hit 29245
Core_0_L2C_load_miss 3447406
Core_0_L2C_load_MPKI 68.9481
Core_0_L2C_load_miss_rate 0.991588
Core_0_L2C_rfo_access 12780
Core_0_L2C_rfo_hit 4960
Core_0_L2C_rfo_miss 7820
Core_0_L2C_rfo_MPKI 0.1564
Core_0_L2C_rfo_miss_rate 0.611894
Core_0_L2C_prefetch_access 1764300
Core_0_L2C_prefetch_hit 1819
Core_0_L2C_prefetch_miss 1762481
Core_0_L2C_prefetch_MPKI 35.2496
Core_0_L2C_prefetch_miss_rate 0.998969
Core_0_L2C_writeback_access 1533069
Core_0_L2C_writeback_hit 1532953
Core_0_L2C_writeback_miss 116
Core_0_L2C_writeback_MPKI 0.00232
Core_0_L2C_writeback_miss_rate 7.56652e-05
Core_0_L2C_prefetch_requested 0
Core_0_L2C_prefetch_issued 0
Core_0_L2C_prefetch_useful 0
Core_0_L2C_prefetch_useless 0
Core_0_L2C_prefetch_late 0
Core_0_L2C_prefetch_accuracy 0
Core_0_L2C_prefetch_coverage 0

Core_0_LLC_total_access 6743840
Core_0_LLC_total_hit 1327281
Core_0_LLC_total_miss 5416559
Core_0_LLC_total_MPKI 108.331
Core_0_LLC_total_miss_rate 0.803186
Core_0_LLC_demand_access 3455226
Core_0_LLC_demand_hit 41733
Core_0_LLC_demand_miss 3413493
Core_0_LLC_demand_MPKI 68.2699
Core_0_LLC_demand_miss_rate 0.987922
Core_0_LLC_load_access 3447406
Core_0_LLC_load_hit 41602
Core_0_LLC_load_miss 3405804
Core_0_LLC_load_MPKI 68.1161
Core_0_LLC_load_miss_rate 0.987932
Core_0_LLC_rfo_access 7820
Core_0_LLC_rfo_hit 131
Core_0_LLC_rfo_miss 7689
Core_0_LLC_rfo_MPKI 0.15378
Core_0_LLC_rfo_miss_rate 0.983248
Core_0_LLC_prefetch_access 1762481
Core_0_LLC_prefetch_hit 1350
Core_0_LLC_prefetch_miss 1761131
Core_0_LLC_prefetch_MPKI 35.2226
Core_0_LLC_prefetch_miss_rate 0.999234
Core_0_LLC_writeback_access 1526133
Core_0_LLC_writeback_hit 1284198
Core_0_LLC_writeback_miss 241935
Core_0_LLC_writeback_MPKI 4.8387
Core_0_LLC_writeback_miss_rate 0.158528
Core_0_LLC_prefetch_requested 0
Core_0_LLC_prefetch_issued 0
Core_0_LLC_prefetch_useful 0
Core_0_LLC_prefetch_useless 0
Core_0_LLC_prefetch_late 0
Core_0_LLC_prefetch_accuracy 0
Core_0_LLC_prefetch_coverage 0

[DRAM Statistics]
Channel_0_RQ_row_buffer_hit 205067
Channel_0_RQ_row_buffer_miss 5363214
Channel_0_WQ_row_buffer_hit 337436
Channel_0_WQ_row_buffer_miss 1166311
Channel_0_WQ_full 0
Channel_0_dbus_congested 19272672
DRAM_total_RQ_row_buffer_hit 205067
DRAM_total_RQ_row_buffer_miss 5363214
DRAM_total_WQ_row_buffer_hit 337436
DRAM_total_WQ_row_buffer_miss 1166311
DRAM_total_WQ_full 0
DRAM_total_dbus_congested 19272672
DRAM_avg_congested_cycle 6.18705

====== DRAM_RQ_TRAFFIC ========
DRAM_RQ_READ_TRAFFIC_BREAKDOWN:
data_demand_read.count = 3413494
data_demand_read.share = 61.30%

inst_demand_read.count = 0
inst_demand_read.share = 0.00%

cache_inst_prefetch.count = 0
cache_inst_prefetch.share = 0.00%

cache_data_prefetch.count = 1761131
cache_data_prefetch.share = 31.63%

stlb_data_demand.count = 378292
stlb_data_demand.share = 6.79%

stlb_inst_demand.count = 0
stlb_inst_demand.share = 0.00%

stlb_l1i_pref.count = 0
stlb_l1i_pref.share = 0.00%

stlb_l1d_pref.count = 15389
stlb_l1d_pref.share = 0.28%

DRAM_RQ_READ_TRAFFIC_SUMMARY:
cache_demand.count = 3413494
cache_demand.share = 61.30%

cache_prefetch.count = 1761131
cache_prefetch.share = 31.63%

stlb_demand.count = 378292
stlb_demand.share = 6.79%

stlb_prefetch.count = 15389
stlb_prefetch.share = 0.28%

DRAM_RQ_READ_TRAFFIC_DEBUG:
total_classified_read.count = 5568306
unclassified_read.count = 0
total_read_with_other.count = 5568306

classified_plus_unclassified_check.count = 5568306
dram_rq_read_total_observed.count = 5568306
dram_rq_read_total_observed.per_1K_instructions = 111.366

STLB_MISS_PTW_DRAM_TOUCH_BREAKDOWN:
stlb_miss_total.count = 1787645

stlb_miss_touch_dram.count = 394557
stlb_miss_touch_dram.share = 22.07%

stlb_miss_no_dram_touch.count = 1393088
stlb_miss_no_dram_touch.share = 77.93%

STLB_MISS_PTW_DRAM_TOUCH_DEBUG:
stlb_miss_touch_plus_no_touch.count = 1787645
stlb_miss_total_check.count = 1787645

======STLB miss causes ========
Core_0_STLB_miss_cause_breakdown
Core_0_STLB_cause_Demand_Data_miss 1658149
Core_0_STLB_cause_Demand_Data_miss_rate 0.896956
Core_0_STLB_cause_Demand_Instruction_miss 0
Core_0_STLB_cause_Demand_Instruction_miss_rate 0
Core_0_STLB_cause_L1D_Prefetch_miss 129496
Core_0_STLB_cause_L1D_Prefetch_miss_rate 0.0700493
Core_0_STLB_cause_L1I_Prefetch_miss 0
Core_0_STLB_cause_L1I_Prefetch_miss_rate 0
Core_0_STLB_cause_Other_miss 0
Core_0_STLB_cause_Other_miss_rate 0
Core_0_STLB_Demand_miss 1658149
Core_0_STLB_Demand_miss_rate 0.896956
Core_0_STLB_L1D_Prefetch_miss 129496
Core_0_STLB_L1D_Prefetch_miss_rate 0.0700493
Core_0_STLB_Other_miss 0
Core_0_STLB_Other_miss_rate 0
