[VMEM] WARNING: physical memory size is smaller than virtual memory size.

*** ChampSim Multicore Out-of-Order Simulator ***
Warmup Instructions: 20000000
Simulation Instructions: 50000000
Number of CPUs: 1
Page size: 4096
Core 0: /data0/tzh/champsim_traces/SPEC06/433.milc-127B.champsimtrace.xz
VBerti Prefetcher
BERTI HASH ENTANGLING
BERTI IP MASK ffff
Off-chip DRAM Size: 16 GiB Channels: 1 Width: 64-bit Data Rate: 3205 MT/s
Warmup halting CPU 0 at instruction 20000001 cycle 9999563 for remainder of phase
Warmup finished CPU 0 instructions: 20000001 cycles: 9999563 cumulative IPC: 2 (Simulation time: 00 hr 01 min 50 sec)
Warmup complete CPU 0 instructions: 20000001 cycles: 9999563 cumulative IPC: 2 (Simulation time: 00 hr 01 min 50 sec)
Simulation finished CPU 0 instructions: 50000000 cycles: 29942576 cumulative IPC: 1.67 (Simulation time: 00 hr 06 min 43 sec)
Simulation complete CPU 0 instructions: 50000000 cycles: 29942576 cumulative IPC: 1.67 (Simulation time: 00 hr 06 min 43 sec)

ChampSim completed all CPUs

=== Simulation ===
CPU 0 runs /data0/tzh/champsim_traces/SPEC06/433.milc-127B.champsimtrace.xz

Region of Interest Statistics

CPU 0 cumulative IPC: 1.67 instructions: 50000000 cycles: 29942576
CPU 0 Branch Prediction Accuracy: 94.52% MPKI: 4.241 Average ROB Occupancy at Mispredict: 137.9
Branch type MPKI
BRANCH_DIRECT_JUMP: 0.00012
BRANCH_INDIRECT: 0
BRANCH_CONDITIONAL: 2.121
BRANCH_DIRECT_CALL: 0.00016
BRANCH_INDIRECT_CALL: 0
BRANCH_RETURN: 2.12

cpu0->cpu0_STLB TOTAL        ACCESS:      59837 HIT:        146 MISS:      59691 MSHR_MERGE:          0
cpu0->cpu0_STLB LOAD         ACCESS:      59837 HIT:        146 MISS:      59691 MSHR_MERGE:          0
cpu0->cpu0_STLB RFO          ACCESS:          0 HIT:          0 MISS:          0 MSHR_MERGE:          0
cpu0->cpu0_STLB PREFETCH     ACCESS:          0 HIT:          0 MISS:          0 MSHR_MERGE:          0
cpu0->cpu0_STLB WRITE        ACCESS:          0 HIT:          0 MISS:          0 MSHR_MERGE:          0
cpu0->cpu0_STLB TRANSLATION  ACCESS:          0 HIT:          0 MISS:          0 MSHR_MERGE:          0
cpu0->cpu0_STLB PREFETCH REQUESTED:          0 ISSUED:          0 USEFUL:          0 USELESS:          0 LATE:          0
cpu0->cpu0_STLB AVERAGE MISS LATENCY: 138.7 cycles
cpu0->cpu0_L2C TOTAL        ACCESS:    2067898 HIT:     924875 MISS:    1143023 MSHR_MERGE:     324965
cpu0->cpu0_L2C LOAD         ACCESS:     140862 HIT:     111574 MISS:      29288 MSHR_MERGE:      17295
cpu0->cpu0_L2C RFO          ACCESS:      57618 HIT:      15020 MISS:      42598 MSHR_MERGE:      19095
cpu0->cpu0_L2C PREFETCH     ACCESS:    1518970 HIT:     455356 MISS:    1063614 MSHR_MERGE:     288575
cpu0->cpu0_L2C WRITE        ACCESS:     342457 HIT:     342457 MISS:          0 MSHR_MERGE:          0
cpu0->cpu0_L2C TRANSLATION  ACCESS:       7991 HIT:        468 MISS:       7523 MSHR_MERGE:          0
cpu0->cpu0_L2C PREFETCH REQUESTED:     217329 ISSUED:     214071 USEFUL:      41905 USELESS:       6120 LATE:       2652
cpu0->cpu0_L2C AVERAGE MISS LATENCY: 450.3 cycles
cpu0->cpu0_L1I TOTAL        ACCESS:     809670 HIT:     809616 MISS:         54 MSHR_MERGE:         12
cpu0->cpu0_L1I LOAD         ACCESS:     809670 HIT:     809616 MISS:         54 MSHR_MERGE:         12
cpu0->cpu0_L1I RFO          ACCESS:          0 HIT:          0 MISS:          0 MSHR_MERGE:          0
cpu0->cpu0_L1I PREFETCH     ACCESS:          0 HIT:          0 MISS:          0 MSHR_MERGE:          0
cpu0->cpu0_L1I WRITE        ACCESS:          0 HIT:          0 MISS:          0 MSHR_MERGE:          0
cpu0->cpu0_L1I TRANSLATION  ACCESS:          0 HIT:          0 MISS:          0 MSHR_MERGE:          0
cpu0->cpu0_L1I PREFETCH REQUESTED:          0 ISSUED:          0 USEFUL:          0 USELESS:          0 LATE:          0
cpu0->cpu0_L1I AVERAGE MISS LATENCY: 260.1 cycles
cpu0->cpu0_L1D TOTAL        ACCESS:   18823651 HIT:   16351681 MISS:    2471970 MSHR_MERGE:     937297
cpu0->cpu0_L1D LOAD         ACCESS:    7194625 HIT:    6799944 MISS:     394681 MSHR_MERGE:     253861
cpu0->cpu0_L1D RFO          ACCESS:          0 HIT:          0 MISS:          0 MSHR_MERGE:          0
cpu0->cpu0_L1D PREFETCH     ACCESS:    3269237 HIT:    1907161 MISS:    1362076 MSHR_MERGE:      33832
cpu0->cpu0_L1D WRITE        ACCESS:    8247925 HIT:    7546064 MISS:     701861 MSHR_MERGE:     644243
cpu0->cpu0_L1D TRANSLATION  ACCESS:     111864 HIT:      98512 MISS:      13352 MSHR_MERGE:       5361
cpu0->cpu0_L1D PREFETCH REQUESTED:   26891542 ISSUED:    3269229 USEFUL:     553573 USELESS:        279 LATE:      56420
cpu0->cpu0_L1D AVERAGE MISS LATENCY: 222.9 cycles
cpu0->cpu0_ITLB TOTAL        ACCESS:     696528 HIT:     696519 MISS:          9 MSHR_MERGE:          5
cpu0->cpu0_ITLB LOAD         ACCESS:     696528 HIT:     696519 MISS:          9 MSHR_MERGE:          5
cpu0->cpu0_ITLB RFO          ACCESS:          0 HIT:          0 MISS:          0 MSHR_MERGE:          0
cpu0->cpu0_ITLB PREFETCH     ACCESS:          0 HIT:          0 MISS:          0 MSHR_MERGE:          0
cpu0->cpu0_ITLB WRITE        ACCESS:          0 HIT:          0 MISS:          0 MSHR_MERGE:          0
cpu0->cpu0_ITLB TRANSLATION  ACCESS:          0 HIT:          0 MISS:          0 MSHR_MERGE:          0
cpu0->cpu0_ITLB PREFETCH REQUESTED:          0 ISSUED:          0 USEFUL:          0 USELESS:          0 LATE:          0
cpu0->cpu0_ITLB AVERAGE MISS LATENCY: 431 cycles
cpu0->cpu0_DTLB TOTAL        ACCESS:   16463440 HIT:   16354169 MISS:     109271 MSHR_MERGE:      49438
cpu0->cpu0_DTLB LOAD         ACCESS:   16463440 HIT:   16354169 MISS:     109271 MSHR_MERGE:      49438
cpu0->cpu0_DTLB RFO          ACCESS:          0 HIT:          0 MISS:          0 MSHR_MERGE:          0
cpu0->cpu0_DTLB PREFETCH     ACCESS:          0 HIT:          0 MISS:          0 MSHR_MERGE:          0
cpu0->cpu0_DTLB WRITE        ACCESS:          0 HIT:          0 MISS:          0 MSHR_MERGE:          0
cpu0->cpu0_DTLB TRANSLATION  ACCESS:          0 HIT:          0 MISS:          0 MSHR_MERGE:          0
cpu0->cpu0_DTLB PREFETCH REQUESTED:          0 ISSUED:          0 USEFUL:          0 USELESS:          0 LATE:          0
cpu0->cpu0_DTLB AVERAGE MISS LATENCY: 144.3 cycles
cpu0->LLC TOTAL        ACCESS:    1165008 HIT:     128117 MISS:    1036891 MSHR_MERGE:      29380
cpu0->LLC LOAD         ACCESS:      11993 HIT:       1466 MISS:      10527 MSHR_MERGE:        375
cpu0->LLC RFO          ACCESS:      23503 HIT:       1893 MISS:      21610 MSHR_MERGE:        669
cpu0->LLC PREFETCH     ACCESS:     774995 HIT:      28390 MISS:     746605 MSHR_MERGE:      28336
cpu0->LLC WRITE        ACCESS:     346994 HIT:      96367 MISS:     250627 MSHR_MERGE:          0
cpu0->LLC TRANSLATION  ACCESS:       7523 HIT:          1 MISS:       7522 MSHR_MERGE:          0
cpu0->LLC PREFETCH REQUESTED:          0 ISSUED:          0 USEFUL:          0 USELESS:          0 LATE:          0
cpu0->LLC AVERAGE MISS LATENCY: 71.21 cycles

DRAM Statistics

Channel 0 RQ ROW_BUFFER_HIT:     145814
  ROW_BUFFER_MISS:     611042
  AVG DBUS CONGESTED CYCLE: 7.454
Channel 0 WQ ROW_BUFFER_HIT:      43452
  ROW_BUFFER_MISS:     306754
  FULL:         11
Channel 0 REFRESHES ISSUED:       2495

[ROI Statistics]
[System Configuration]
num_cpus 1
cpu_freq 4000
fetch_width 6
decode_width 6
dispatch_width 6
execute_width 6
lq_width 2
sq_width 2
retire_width 6
scheduler_size 128
branch_mispredict_penalty 15
rob_size 352
lq_size 128
sq_size 72
ifetch_buffer_size 64
decode_buffer_size 32
dispatch_buffer_size 32
register_file_size 288
decode_latency 1
dispatch_latency 1
schedule_latency 1
execute_latency 1
page_size 4096
block_size 64
core_0_itlb_set 16
core_0_itlb_way 4
core_0_itlb_rq_size 16
core_0_itlb_wq_size 16
core_0_itlb_pq_size 0
core_0_itlb_mshr_size 8
core_0_itlb_hit_latency 1
core_0_itlb_fill_latency 1
core_0_itlb_max_tag_check 2
core_0_itlb_max_fill 2
core_0_dtlb_set 16
core_0_dtlb_way 4
core_0_dtlb_rq_size 16
core_0_dtlb_wq_size 16
core_0_dtlb_pq_size 0
core_0_dtlb_mshr_size 8
core_0_dtlb_hit_latency 1
core_0_dtlb_fill_latency 1
core_0_dtlb_max_tag_check 2
core_0_dtlb_max_fill 2
core_0_stlb_set 128
core_0_stlb_way 12
core_0_stlb_rq_size 32
core_0_stlb_wq_size 32
core_0_stlb_pq_size 0
core_0_stlb_mshr_size 16
core_0_stlb_hit_latency 4
core_0_stlb_fill_latency 4
core_0_stlb_max_tag_check 1
core_0_stlb_max_fill 1
core_0_l1i_set 64
core_0_l1i_way 8
core_0_l1i_rq_size 64
core_0_l1i_wq_size 64
core_0_l1i_pq_size 32
core_0_l1i_mshr_size 8
core_0_l1i_hit_latency 2
core_0_l1i_fill_latency 2
core_0_l1i_max_tag_check 2
core_0_l1i_max_fill 2
core_0_l1d_set 64
core_0_l1d_way 12
core_0_l1d_rq_size 64
core_0_l1d_wq_size 64
core_0_l1d_pq_size 8
core_0_l1d_mshr_size 16
core_0_l1d_hit_latency 2
core_0_l1d_fill_latency 3
core_0_l1d_max_tag_check 2
core_0_l1d_max_fill 2
core_0_l2c_set 1024
core_0_l2c_way 8
core_0_l2c_rq_size 32
core_0_l2c_wq_size 32
core_0_l2c_pq_size 16
core_0_l2c_mshr_size 32
core_0_l2c_hit_latency 5
core_0_l2c_fill_latency 5
core_0_l2c_max_tag_check 1
core_0_l2c_max_fill 1
llc_set 2048
llc_way 16
llc_rq_size 32
llc_wq_size 32
llc_pq_size 32
llc_mshr_size 64
llc_hit_latency 10
llc_fill_latency 10
llc_max_tag_check 1
llc_max_fill 1
dram_channels 1
dram_ranks 1
dram_bankgroups 8
dram_banks 4
dram_rows 65536
dram_columns 1024
dram_channel_width 8
dram_rq_size 64
dram_wq_size 64
dram_size 17179869184
core_0_itlb_prefetcher no
core_0_dtlb_prefetcher no
core_0_stlb_prefetcher no
core_0_l1i_prefetcher next_line
core_0_l1d_prefetcher vberti
core_0_l2c_prefetcher ip_stride
llc_prefetcher no
llc_replacement drrip

Core_0_instructions 50000000
Core_0_cycles 29942576
Core_0_IPC 1.66986
Core_0_branch_prediction_accuracy 94.5205
Core_0_branch_MPKI 4.24098
Core_0_average_ROB_occupancy_at_mispredict 137.854

Core_0_ITLB_total_access 696528
Core_0_ITLB_total_hit 696519
Core_0_ITLB_total_miss 9
Core_0_ITLB_total_MPKI 0.00018
Core_0_ITLB_total_miss_rate 1.29212e-05
Core_0_ITLB_demand_access 696528
Core_0_ITLB_demand_hit 696519
Core_0_ITLB_demand_miss 9
Core_0_ITLB_demand_MPKI 0.00018
Core_0_ITLB_demand_miss_rate 1.29212e-05
Core_0_ITLB_load_access 696528
Core_0_ITLB_load_hit 696519
Core_0_ITLB_load_miss 9
Core_0_ITLB_load_MPKI 0.00018
Core_0_ITLB_load_miss_rate 1.29212e-05
Core_0_ITLB_rfo_access 0
Core_0_ITLB_rfo_hit 0
Core_0_ITLB_rfo_miss 0
Core_0_ITLB_rfo_MPKI 0
Core_0_ITLB_rfo_miss_rate 0
Core_0_ITLB_prefetch_access 0
Core_0_ITLB_prefetch_hit 0
Core_0_ITLB_prefetch_miss 0
Core_0_ITLB_prefetch_MPKI 0
Core_0_ITLB_prefetch_miss_rate 0
Core_0_ITLB_writeback_access 0
Core_0_ITLB_writeback_hit 0
Core_0_ITLB_writeback_miss 0
Core_0_ITLB_writeback_MPKI 0
Core_0_ITLB_writeback_miss_rate 0
Core_0_ITLB_prefetch_requested 0
Core_0_ITLB_prefetch_issued 0
Core_0_ITLB_prefetch_useful 0
Core_0_ITLB_prefetch_useless 0
Core_0_ITLB_prefetch_late 0
Core_0_ITLB_prefetch_accuracy 0
Core_0_ITLB_prefetch_coverage 0

Core_0_DTLB_total_access 16463440
Core_0_DTLB_total_hit 16354169
Core_0_DTLB_total_miss 109271
Core_0_DTLB_total_MPKI 2.18542
Core_0_DTLB_total_miss_rate 0.00663719
Core_0_DTLB_demand_access 16463440
Core_0_DTLB_demand_hit 16354169
Core_0_DTLB_demand_miss 109271
Core_0_DTLB_demand_MPKI 2.18542
Core_0_DTLB_demand_miss_rate 0.00663719
Core_0_DTLB_load_access 16463440
Core_0_DTLB_load_hit 16354169
Core_0_DTLB_load_miss 109271
Core_0_DTLB_load_MPKI 2.18542
Core_0_DTLB_load_miss_rate 0.00663719
Core_0_DTLB_rfo_access 0
Core_0_DTLB_rfo_hit 0
Core_0_DTLB_rfo_miss 0
Core_0_DTLB_rfo_MPKI 0
Core_0_DTLB_rfo_miss_rate 0
Core_0_DTLB_prefetch_access 0
Core_0_DTLB_prefetch_hit 0
Core_0_DTLB_prefetch_miss 0
Core_0_DTLB_prefetch_MPKI 0
Core_0_DTLB_prefetch_miss_rate 0
Core_0_DTLB_writeback_access 0
Core_0_DTLB_writeback_hit 0
Core_0_DTLB_writeback_miss 0
Core_0_DTLB_writeback_MPKI 0
Core_0_DTLB_writeback_miss_rate 0
Core_0_DTLB_prefetch_requested 0
Core_0_DTLB_prefetch_issued 0
Core_0_DTLB_prefetch_useful 0
Core_0_DTLB_prefetch_useless 0
Core_0_DTLB_prefetch_late 0
Core_0_DTLB_prefetch_accuracy 0
Core_0_DTLB_prefetch_coverage 0

Core_0_STLB_total_access 59837
Core_0_STLB_total_hit 146
Core_0_STLB_total_miss 59691
Core_0_STLB_total_MPKI 1.19382
Core_0_STLB_total_miss_rate 0.99756
Core_0_STLB_demand_access 59837
Core_0_STLB_demand_hit 146
Core_0_STLB_demand_miss 59691
Core_0_STLB_demand_MPKI 1.19382
Core_0_STLB_demand_miss_rate 0.99756
Core_0_STLB_load_access 59837
Core_0_STLB_load_hit 146
Core_0_STLB_load_miss 59691
Core_0_STLB_load_MPKI 1.19382
Core_0_STLB_load_miss_rate 0.99756
Core_0_STLB_rfo_access 0
Core_0_STLB_rfo_hit 0
Core_0_STLB_rfo_miss 0
Core_0_STLB_rfo_MPKI 0
Core_0_STLB_rfo_miss_rate 0
Core_0_STLB_prefetch_access 0
Core_0_STLB_prefetch_hit 0
Core_0_STLB_prefetch_miss 0
Core_0_STLB_prefetch_MPKI 0
Core_0_STLB_prefetch_miss_rate 0
Core_0_STLB_writeback_access 0
Core_0_STLB_writeback_hit 0
Core_0_STLB_writeback_miss 0
Core_0_STLB_writeback_MPKI 0
Core_0_STLB_writeback_miss_rate 0
Core_0_STLB_prefetch_requested 0
Core_0_STLB_prefetch_issued 0
Core_0_STLB_prefetch_useful 0
Core_0_STLB_prefetch_useless 0
Core_0_STLB_prefetch_late 0
Core_0_STLB_prefetch_accuracy 0
Core_0_STLB_prefetch_coverage 0

Core_0_L1I_total_access 809670
Core_0_L1I_total_hit 809616
Core_0_L1I_total_miss 54
Core_0_L1I_total_MPKI 0.00108
Core_0_L1I_total_miss_rate 6.66938e-05
Core_0_L1I_demand_access 809670
Core_0_L1I_demand_hit 809616
Core_0_L1I_demand_miss 54
Core_0_L1I_demand_MPKI 0.00108
Core_0_L1I_demand_miss_rate 6.66938e-05
Core_0_L1I_load_access 809670
Core_0_L1I_load_hit 809616
Core_0_L1I_load_miss 54
Core_0_L1I_load_MPKI 0.00108
Core_0_L1I_load_miss_rate 6.66938e-05
Core_0_L1I_rfo_access 0
Core_0_L1I_rfo_hit 0
Core_0_L1I_rfo_miss 0
Core_0_L1I_rfo_MPKI 0
Core_0_L1I_rfo_miss_rate 0
Core_0_L1I_prefetch_access 0
Core_0_L1I_prefetch_hit 0
Core_0_L1I_prefetch_miss 0
Core_0_L1I_prefetch_MPKI 0
Core_0_L1I_prefetch_miss_rate 0
Core_0_L1I_writeback_access 0
Core_0_L1I_writeback_hit 0
Core_0_L1I_writeback_miss 0
Core_0_L1I_writeback_MPKI 0
Core_0_L1I_writeback_miss_rate 0
Core_0_L1I_prefetch_requested 0
Core_0_L1I_prefetch_issued 0
Core_0_L1I_prefetch_useful 0
Core_0_L1I_prefetch_useless 0
Core_0_L1I_prefetch_late 0
Core_0_L1I_prefetch_accuracy 0
Core_0_L1I_prefetch_coverage 0

Core_0_L1D_total_access 18711787
Core_0_L1D_total_hit 16253169
Core_0_L1D_total_miss 2458618
Core_0_L1D_total_MPKI 49.1724
Core_0_L1D_total_miss_rate 0.131394
Core_0_L1D_demand_access 7194625
Core_0_L1D_demand_hit 6799944
Core_0_L1D_demand_miss 394681
Core_0_L1D_demand_MPKI 7.89362
Core_0_L1D_demand_miss_rate 0.0548578
Core_0_L1D_load_access 7194625
Core_0_L1D_load_hit 6799944
Core_0_L1D_load_miss 394681
Core_0_L1D_load_MPKI 7.89362
Core_0_L1D_load_miss_rate 0.0548578
Core_0_L1D_rfo_access 0
Core_0_L1D_rfo_hit 0
Core_0_L1D_rfo_miss 0
Core_0_L1D_rfo_MPKI 0
Core_0_L1D_rfo_miss_rate 0
Core_0_L1D_prefetch_access 3269237
Core_0_L1D_prefetch_hit 1907161
Core_0_L1D_prefetch_miss 1362076
Core_0_L1D_prefetch_MPKI 27.2415
Core_0_L1D_prefetch_miss_rate 0.416634
Core_0_L1D_writeback_access 8247925
Core_0_L1D_writeback_hit 7546064
Core_0_L1D_writeback_miss 701861
Core_0_L1D_writeback_MPKI 14.0372
Core_0_L1D_writeback_miss_rate 0.0850955
Core_0_L1D_prefetch_requested 26891542
Core_0_L1D_prefetch_issued 3269229
Core_0_L1D_prefetch_useful 553573
Core_0_L1D_prefetch_useless 279
Core_0_L1D_prefetch_late 56420
Core_0_L1D_prefetch_accuracy 0.169328
Core_0_L1D_prefetch_coverage 0.583781

Core_0_L2C_total_access 2059907
Core_0_L2C_total_hit 924407
Core_0_L2C_total_miss 1135500
Core_0_L2C_total_MPKI 22.71
Core_0_L2C_total_miss_rate 0.551238
Core_0_L2C_demand_access 198480
Core_0_L2C_demand_hit 126594
Core_0_L2C_demand_miss 71886
Core_0_L2C_demand_MPKI 1.43772
Core_0_L2C_demand_miss_rate 0.362183
Core_0_L2C_load_access 140862
Core_0_L2C_load_hit 111574
Core_0_L2C_load_miss 29288
Core_0_L2C_load_MPKI 0.58576
Core_0_L2C_load_miss_rate 0.20792
Core_0_L2C_rfo_access 57618
Core_0_L2C_rfo_hit 15020
Core_0_L2C_rfo_miss 42598
Core_0_L2C_rfo_MPKI 0.85196
Core_0_L2C_rfo_miss_rate 0.739318
Core_0_L2C_prefetch_access 1518970
Core_0_L2C_prefetch_hit 455356
Core_0_L2C_prefetch_miss 1063614
Core_0_L2C_prefetch_MPKI 21.2723
Core_0_L2C_prefetch_miss_rate 0.700221
Core_0_L2C_writeback_access 342457
Core_0_L2C_writeback_hit 342457
Core_0_L2C_writeback_miss 0
Core_0_L2C_writeback_MPKI 0
Core_0_L2C_writeback_miss_rate 0
Core_0_L2C_prefetch_requested 217329
Core_0_L2C_prefetch_issued 214071
Core_0_L2C_prefetch_useful 41905
Core_0_L2C_prefetch_useless 6120
Core_0_L2C_prefetch_late 2652
Core_0_L2C_prefetch_accuracy 0.195753
Core_0_L2C_prefetch_coverage 0.368263

Core_0_LLC_total_access 1157485
Core_0_LLC_total_hit 128116
Core_0_LLC_total_miss 1029369
Core_0_LLC_total_MPKI 20.5874
Core_0_LLC_total_miss_rate 0.889315
Core_0_LLC_demand_access 35496
Core_0_LLC_demand_hit 3359
Core_0_LLC_demand_miss 32137
Core_0_LLC_demand_MPKI 0.64274
Core_0_LLC_demand_miss_rate 0.90537
Core_0_LLC_load_access 11993
Core_0_LLC_load_hit 1466
Core_0_LLC_load_miss 10527
Core_0_LLC_load_MPKI 0.21054
Core_0_LLC_load_miss_rate 0.877762
Core_0_LLC_rfo_access 23503
Core_0_LLC_rfo_hit 1893
Core_0_LLC_rfo_miss 21610
Core_0_LLC_rfo_MPKI 0.4322
Core_0_LLC_rfo_miss_rate 0.919457
Core_0_LLC_prefetch_access 774995
Core_0_LLC_prefetch_hit 28390
Core_0_LLC_prefetch_miss 746605
Core_0_LLC_prefetch_MPKI 14.9321
Core_0_LLC_prefetch_miss_rate 0.963368
Core_0_LLC_writeback_access 346994
Core_0_LLC_writeback_hit 96367
Core_0_LLC_writeback_miss 250627
Core_0_LLC_writeback_MPKI 5.01254
Core_0_LLC_writeback_miss_rate 0.722281
Core_0_LLC_prefetch_requested 0
Core_0_LLC_prefetch_issued 0
Core_0_LLC_prefetch_useful 0
Core_0_LLC_prefetch_useless 0
Core_0_LLC_prefetch_late 0
Core_0_LLC_prefetch_accuracy 0
Core_0_LLC_prefetch_coverage 0

[DRAM Statistics]
Channel_0_RQ_row_buffer_hit 145814
Channel_0_RQ_row_buffer_miss 611042
Channel_0_WQ_row_buffer_hit 43452
Channel_0_WQ_row_buffer_miss 306754
Channel_0_WQ_full 11
Channel_0_dbus_congested 3394244
DRAM_total_RQ_row_buffer_hit 145814
DRAM_total_RQ_row_buffer_miss 611042
DRAM_total_WQ_row_buffer_hit 43452
DRAM_total_WQ_row_buffer_miss 306754
DRAM_total_WQ_full 11
DRAM_total_dbus_congested 3394244
DRAM_avg_congested_cycle 7.45449

====== DRAM_RQ_TRAFFIC ========
DRAM_RQ_READ_TRAFFIC_BREAKDOWN:
data_demand_read.count = 31051
data_demand_read.share = 4.10%

inst_demand_read.count = 42
inst_demand_read.share = 0.01%

cache_inst_prefetch.count = 0
cache_inst_prefetch.share = 0.00%

cache_data_prefetch.count = 718269
cache_data_prefetch.share = 94.90%

stlb_data_demand.count = 30
stlb_data_demand.share = 0.00%

stlb_inst_demand.count = 4
stlb_inst_demand.share = 0.00%

stlb_l1i_pref.count = 0
stlb_l1i_pref.share = 0.00%

stlb_l1d_pref.count = 7488
stlb_l1d_pref.share = 0.99%

DRAM_RQ_READ_TRAFFIC_SUMMARY:
cache_demand.count = 31093
cache_demand.share = 4.11%

cache_prefetch.count = 718269
cache_prefetch.share = 94.90%

stlb_demand.count = 34
stlb_demand.share = 0.00%

stlb_prefetch.count = 7488
stlb_prefetch.share = 0.99%

DRAM_RQ_READ_TRAFFIC_DEBUG:
total_classified_read.count = 756884
unclassified_read.count = 0
total_read_with_other.count = 756884

classified_plus_unclassified_check.count = 756884
dram_rq_read_total_observed.count = 756884
dram_rq_read_total_observed.per_1K_instructions = 15.1377

STLB_MISS_PTW_DRAM_TOUCH_BREAKDOWN:
stlb_miss_total.count = 59691

stlb_miss_touch_dram.count = 7722
stlb_miss_touch_dram.share = 12.94%

stlb_miss_no_dram_touch.count = 51969
stlb_miss_no_dram_touch.share = 87.06%

STLB_MISS_PTW_DRAM_TOUCH_DEBUG:
stlb_miss_touch_plus_no_touch.count = 59691
stlb_miss_total_check.count = 59691

======STLB miss causes ========
Core_0_STLB_miss_cause_breakdown
Core_0_STLB_cause_Demand_Data_miss 76
Core_0_STLB_cause_Demand_Data_miss_rate 0.00127012
Core_0_STLB_cause_Demand_Instruction_miss 4
Core_0_STLB_cause_Demand_Instruction_miss_rate 6.68483e-05
Core_0_STLB_cause_L1D_Prefetch_miss 59611
Core_0_STLB_cause_L1D_Prefetch_miss_rate 0.996223
Core_0_STLB_cause_L1I_Prefetch_miss 0
Core_0_STLB_cause_L1I_Prefetch_miss_rate 0
Core_0_STLB_cause_Other_miss 0
Core_0_STLB_cause_Other_miss_rate 0
Core_0_STLB_Demand_miss 80
Core_0_STLB_Demand_miss_rate 0.00133697
Core_0_STLB_L1D_Prefetch_miss 59611
Core_0_STLB_L1D_Prefetch_miss_rate 0.996223
Core_0_STLB_Other_miss 0
Core_0_STLB_Other_miss_rate 0
BERTI TO_L1: 22698959 TO_L2: 15604105 TO_L2_BC_MSHR: 3211036
BERTI AVG_LAT: 183.556 NUM_TRACK_LATENCY: 1366094 NUM_CANT_TRACK_LATENCY: 23
BERTI CROSS_PAGE 15107007 NO_CROSS_PAGE: 23196057
BERTI FOUND_BERTI: 7016733 NO_FOUND_BERTI: 11879321
BERTI AVERAGE_ISSUED: 2.2577
