[VMEM] WARNING: physical memory size is smaller than virtual memory size.

*** ChampSim Multicore Out-of-Order Simulator ***
Warmup Instructions: 20000000
Simulation Instructions: 50000000
Number of CPUs: 1
Page size: 4096
Core 0: /data0/tzh/champsim_traces/SPEC06/459.GemsFDTD-765B.champsimtrace.xz
VBerti Prefetcher
BERTI HASH ENTANGLING
BERTI IP MASK ffff
Off-chip DRAM Size: 16 GiB Channels: 1 Width: 64-bit Data Rate: 3205 MT/s
Warmup halting CPU 0 at instruction 20000005 cycle 6521356 for remainder of phase
Warmup finished CPU 0 instructions: 20000005 cycles: 6521356 cumulative IPC: 3.067 (Simulation time: 00 hr 01 min 37 sec)
Warmup complete CPU 0 instructions: 20000005 cycles: 6521356 cumulative IPC: 3.067 (Simulation time: 00 hr 01 min 37 sec)
Simulation finished CPU 0 instructions: 50000002 cycles: 52139917 cumulative IPC: 0.959 (Simulation time: 00 hr 09 min 52 sec)
Simulation complete CPU 0 instructions: 50000002 cycles: 52139917 cumulative IPC: 0.959 (Simulation time: 00 hr 09 min 52 sec)

ChampSim completed all CPUs

=== Simulation ===
CPU 0 runs /data0/tzh/champsim_traces/SPEC06/459.GemsFDTD-765B.champsimtrace.xz

Region of Interest Statistics

CPU 0 cumulative IPC: 0.959 instructions: 50000002 cycles: 52139917
CPU 0 Branch Prediction Accuracy: 99.9% MPKI: 0.00656 Average ROB Occupancy at Mispredict: 319.3
Branch type MPKI
BRANCH_DIRECT_JUMP: 0.00012
BRANCH_INDIRECT: 0
BRANCH_CONDITIONAL: 0.00644
BRANCH_DIRECT_CALL: 0
BRANCH_INDIRECT_CALL: 0
BRANCH_RETURN: 0

cpu0->cpu0_STLB TOTAL        ACCESS:     455508 HIT:     223374 MISS:     232134 MSHR_MERGE:          0
cpu0->cpu0_STLB LOAD         ACCESS:     455508 HIT:     223374 MISS:     232134 MSHR_MERGE:          0
cpu0->cpu0_STLB RFO          ACCESS:          0 HIT:          0 MISS:          0 MSHR_MERGE:          0
cpu0->cpu0_STLB PREFETCH     ACCESS:          0 HIT:          0 MISS:          0 MSHR_MERGE:          0
cpu0->cpu0_STLB WRITE        ACCESS:          0 HIT:          0 MISS:          0 MSHR_MERGE:          0
cpu0->cpu0_STLB TRANSLATION  ACCESS:          0 HIT:          0 MISS:          0 MSHR_MERGE:          0
cpu0->cpu0_STLB PREFETCH REQUESTED:          0 ISSUED:          0 USEFUL:          0 USELESS:          0 LATE:          0
cpu0->cpu0_STLB AVERAGE MISS LATENCY: 233.4 cycles
cpu0->cpu0_L2C TOTAL        ACCESS:    2793274 HIT:    1501470 MISS:    1291804 MSHR_MERGE:     107985
cpu0->cpu0_L2C LOAD         ACCESS:     249453 HIT:     151159 MISS:      98294 MSHR_MERGE:       9852
cpu0->cpu0_L2C RFO          ACCESS:       1512 HIT:       1501 MISS:         11 MSHR_MERGE:          0
cpu0->cpu0_L2C PREFETCH     ACCESS:    2032601 HIT:     870181 MISS:    1162420 MSHR_MERGE:      98133
cpu0->cpu0_L2C WRITE        ACCESS:     477012 HIT:     477001 MISS:         11 MSHR_MERGE:          0
cpu0->cpu0_L2C TRANSLATION  ACCESS:      32696 HIT:       1628 MISS:      31068 MSHR_MERGE:          0
cpu0->cpu0_L2C PREFETCH REQUESTED:     108688 ISSUED:     108671 USEFUL:      15876 USELESS:       9580 LATE:        113
cpu0->cpu0_L2C AVERAGE MISS LATENCY: 419.6 cycles
cpu0->cpu0_L1I TOTAL        ACCESS:   14371639 HIT:   14371455 MISS:        184 MSHR_MERGE:         75
cpu0->cpu0_L1I LOAD         ACCESS:   14371639 HIT:   14371455 MISS:        184 MSHR_MERGE:         75
cpu0->cpu0_L1I RFO          ACCESS:          0 HIT:          0 MISS:          0 MSHR_MERGE:          0
cpu0->cpu0_L1I PREFETCH     ACCESS:          0 HIT:          0 MISS:          0 MSHR_MERGE:          0
cpu0->cpu0_L1I WRITE        ACCESS:          0 HIT:          0 MISS:          0 MSHR_MERGE:          0
cpu0->cpu0_L1I TRANSLATION  ACCESS:          0 HIT:          0 MISS:          0 MSHR_MERGE:          0
cpu0->cpu0_L1I PREFETCH REQUESTED:          0 ISSUED:          0 USEFUL:          0 USELESS:          0 LATE:          0
cpu0->cpu0_L1I AVERAGE MISS LATENCY: 314.5 cycles
cpu0->cpu0_L1D TOTAL        ACCESS:   31077509 HIT:   28789520 MISS:    2287989 MSHR_MERGE:      67563
cpu0->cpu0_L1D LOAD         ACCESS:   21241651 HIT:   20956057 MISS:     285594 MSHR_MERGE:      36250
cpu0->cpu0_L1D RFO          ACCESS:          0 HIT:          0 MISS:          0 MSHR_MERGE:          0
cpu0->cpu0_L1D PREFETCH     ACCESS:    6016891 HIT:    4069853 MISS:    1947038 MSHR_MERGE:      10182
cpu0->cpu0_L1D WRITE        ACCESS:    3396588 HIT:    3393252 MISS:       3336 MSHR_MERGE:       1806
cpu0->cpu0_L1D TRANSLATION  ACCESS:     422379 HIT:     370358 MISS:      52021 MSHR_MERGE:      19325
cpu0->cpu0_L1D PREFETCH REQUESTED:   32496299 ISSUED:    6016880 USEFUL:     820514 USELESS:     176044 LATE:      18071
cpu0->cpu0_L1D AVERAGE MISS LATENCY: 209.4 cycles
cpu0->cpu0_ITLB TOTAL        ACCESS:   12394542 HIT:   12394534 MISS:          8 MSHR_MERGE:          6
cpu0->cpu0_ITLB LOAD         ACCESS:   12394542 HIT:   12394534 MISS:          8 MSHR_MERGE:          6
cpu0->cpu0_ITLB RFO          ACCESS:          0 HIT:          0 MISS:          0 MSHR_MERGE:          0
cpu0->cpu0_ITLB PREFETCH     ACCESS:          0 HIT:          0 MISS:          0 MSHR_MERGE:          0
cpu0->cpu0_ITLB WRITE        ACCESS:          0 HIT:          0 MISS:          0 MSHR_MERGE:          0
cpu0->cpu0_ITLB TRANSLATION  ACCESS:          0 HIT:          0 MISS:          0 MSHR_MERGE:          0
cpu0->cpu0_ITLB PREFETCH REQUESTED:          0 ISSUED:          0 USEFUL:          0 USELESS:          0 LATE:          0
cpu0->cpu0_ITLB AVERAGE MISS LATENCY: 898.5 cycles
cpu0->cpu0_DTLB TOTAL        ACCESS:   28922888 HIT:   28304432 MISS:     618456 MSHR_MERGE:     162950
cpu0->cpu0_DTLB LOAD         ACCESS:   28922888 HIT:   28304432 MISS:     618456 MSHR_MERGE:     162950
cpu0->cpu0_DTLB RFO          ACCESS:          0 HIT:          0 MISS:          0 MSHR_MERGE:          0
cpu0->cpu0_DTLB PREFETCH     ACCESS:          0 HIT:          0 MISS:          0 MSHR_MERGE:          0
cpu0->cpu0_DTLB WRITE        ACCESS:          0 HIT:          0 MISS:          0 MSHR_MERGE:          0
cpu0->cpu0_DTLB TRANSLATION  ACCESS:          0 HIT:          0 MISS:          0 MSHR_MERGE:          0
cpu0->cpu0_DTLB PREFETCH REQUESTED:          0 ISSUED:          0 USEFUL:          0 USELESS:          0 LATE:          0
cpu0->cpu0_DTLB AVERAGE MISS LATENCY: 124.4 cycles
cpu0->LLC TOTAL        ACCESS:    1658957 HIT:     453867 MISS:    1205090 MSHR_MERGE:       1153
cpu0->LLC LOAD         ACCESS:      88442 HIT:       8053 MISS:      80389 MSHR_MERGE:         50
cpu0->LLC RFO          ACCESS:         11 HIT:          0 MISS:         11 MSHR_MERGE:          0
cpu0->LLC PREFETCH     ACCESS:    1064287 HIT:      27409 MISS:    1036878 MSHR_MERGE:       1103
cpu0->LLC WRITE        ACCESS:     475149 HIT:     417997 MISS:      57152 MSHR_MERGE:          0
cpu0->LLC TRANSLATION  ACCESS:      31068 HIT:        408 MISS:      30660 MSHR_MERGE:          0
cpu0->LLC PREFETCH REQUESTED:          0 ISSUED:          0 USEFUL:          0 USELESS:          0 LATE:          0
cpu0->LLC AVERAGE MISS LATENCY: 292.5 cycles

DRAM Statistics

Channel 0 RQ ROW_BUFFER_HIT:      34885
  ROW_BUFFER_MISS:    1111896
  AVG DBUS CONGESTED CYCLE: 6.518
Channel 0 WQ ROW_BUFFER_HIT:      62071
  ROW_BUFFER_MISS:     413878
  FULL:          0
Channel 0 REFRESHES ISSUED:       4345

[ROI Statistics]
[System Configuration]
num_cpus 1
cpu_freq 4000
fetch_width 6
decode_width 6
dispatch_width 6
execute_width 6
lq_width 2
sq_width 2
retire_width 6
scheduler_size 128
branch_mispredict_penalty 15
rob_size 352
lq_size 128
sq_size 72
ifetch_buffer_size 64
decode_buffer_size 32
dispatch_buffer_size 32
register_file_size 288
decode_latency 1
dispatch_latency 1
schedule_latency 1
execute_latency 1
page_size 4096
block_size 64
core_0_itlb_set 16
core_0_itlb_way 4
core_0_itlb_rq_size 16
core_0_itlb_wq_size 16
core_0_itlb_pq_size 0
core_0_itlb_mshr_size 8
core_0_itlb_hit_latency 1
core_0_itlb_fill_latency 1
core_0_itlb_max_tag_check 2
core_0_itlb_max_fill 2
core_0_dtlb_set 16
core_0_dtlb_way 4
core_0_dtlb_rq_size 16
core_0_dtlb_wq_size 16
core_0_dtlb_pq_size 0
core_0_dtlb_mshr_size 8
core_0_dtlb_hit_latency 1
core_0_dtlb_fill_latency 1
core_0_dtlb_max_tag_check 2
core_0_dtlb_max_fill 2
core_0_stlb_set 128
core_0_stlb_way 12
core_0_stlb_rq_size 32
core_0_stlb_wq_size 32
core_0_stlb_pq_size 0
core_0_stlb_mshr_size 16
core_0_stlb_hit_latency 4
core_0_stlb_fill_latency 4
core_0_stlb_max_tag_check 1
core_0_stlb_max_fill 1
core_0_l1i_set 64
core_0_l1i_way 8
core_0_l1i_rq_size 64
core_0_l1i_wq_size 64
core_0_l1i_pq_size 32
core_0_l1i_mshr_size 8
core_0_l1i_hit_latency 2
core_0_l1i_fill_latency 2
core_0_l1i_max_tag_check 2
core_0_l1i_max_fill 2
core_0_l1d_set 64
core_0_l1d_way 12
core_0_l1d_rq_size 64
core_0_l1d_wq_size 64
core_0_l1d_pq_size 8
core_0_l1d_mshr_size 16
core_0_l1d_hit_latency 2
core_0_l1d_fill_latency 3
core_0_l1d_max_tag_check 2
core_0_l1d_max_fill 2
core_0_l2c_set 1024
core_0_l2c_way 8
core_0_l2c_rq_size 32
core_0_l2c_wq_size 32
core_0_l2c_pq_size 16
core_0_l2c_mshr_size 32
core_0_l2c_hit_latency 5
core_0_l2c_fill_latency 5
core_0_l2c_max_tag_check 1
core_0_l2c_max_fill 1
llc_set 2048
llc_way 16
llc_rq_size 32
llc_wq_size 32
llc_pq_size 32
llc_mshr_size 64
llc_hit_latency 10
llc_fill_latency 10
llc_max_tag_check 1
llc_max_fill 1
dram_channels 1
dram_ranks 1
dram_bankgroups 8
dram_banks 4
dram_rows 65536
dram_columns 1024
dram_channel_width 8
dram_rq_size 64
dram_wq_size 64
dram_size 17179869184
core_0_itlb_prefetcher no
core_0_dtlb_prefetcher no
core_0_stlb_prefetcher no
core_0_l1i_prefetcher next_line
core_0_l1d_prefetcher vberti
core_0_l2c_prefetcher ip_stride
llc_prefetcher no
llc_replacement drrip

Core_0_instructions 50000002
Core_0_cycles 52139917
Core_0_IPC 0.958958
Core_0_branch_prediction_accuracy 99.9006
Core_0_branch_MPKI 0.00656
Core_0_average_ROB_occupancy_at_mispredict 319.253

Core_0_ITLB_total_access 12394542
Core_0_ITLB_total_hit 12394534
Core_0_ITLB_total_miss 8
Core_0_ITLB_total_MPKI 0.00016
Core_0_ITLB_total_miss_rate 6.45445e-07
Core_0_ITLB_demand_access 12394542
Core_0_ITLB_demand_hit 12394534
Core_0_ITLB_demand_miss 8
Core_0_ITLB_demand_MPKI 0.00016
Core_0_ITLB_demand_miss_rate 6.45445e-07
Core_0_ITLB_load_access 12394542
Core_0_ITLB_load_hit 12394534
Core_0_ITLB_load_miss 8
Core_0_ITLB_load_MPKI 0.00016
Core_0_ITLB_load_miss_rate 6.45445e-07
Core_0_ITLB_rfo_access 0
Core_0_ITLB_rfo_hit 0
Core_0_ITLB_rfo_miss 0
Core_0_ITLB_rfo_MPKI 0
Core_0_ITLB_rfo_miss_rate 0
Core_0_ITLB_prefetch_access 0
Core_0_ITLB_prefetch_hit 0
Core_0_ITLB_prefetch_miss 0
Core_0_ITLB_prefetch_MPKI 0
Core_0_ITLB_prefetch_miss_rate 0
Core_0_ITLB_writeback_access 0
Core_0_ITLB_writeback_hit 0
Core_0_ITLB_writeback_miss 0
Core_0_ITLB_writeback_MPKI 0
Core_0_ITLB_writeback_miss_rate 0
Core_0_ITLB_prefetch_requested 0
Core_0_ITLB_prefetch_issued 0
Core_0_ITLB_prefetch_useful 0
Core_0_ITLB_prefetch_useless 0
Core_0_ITLB_prefetch_late 0
Core_0_ITLB_prefetch_accuracy 0
Core_0_ITLB_prefetch_coverage 0

Core_0_DTLB_total_access 28922888
Core_0_DTLB_total_hit 28304432
Core_0_DTLB_total_miss 618456
Core_0_DTLB_total_MPKI 12.3691
Core_0_DTLB_total_miss_rate 0.0213829
Core_0_DTLB_demand_access 28922888
Core_0_DTLB_demand_hit 28304432
Core_0_DTLB_demand_miss 618456
Core_0_DTLB_demand_MPKI 12.3691
Core_0_DTLB_demand_miss_rate 0.0213829
Core_0_DTLB_load_access 28922888
Core_0_DTLB_load_hit 28304432
Core_0_DTLB_load_miss 618456
Core_0_DTLB_load_MPKI 12.3691
Core_0_DTLB_load_miss_rate 0.0213829
Core_0_DTLB_rfo_access 0
Core_0_DTLB_rfo_hit 0
Core_0_DTLB_rfo_miss 0
Core_0_DTLB_rfo_MPKI 0
Core_0_DTLB_rfo_miss_rate 0
Core_0_DTLB_prefetch_access 0
Core_0_DTLB_prefetch_hit 0
Core_0_DTLB_prefetch_miss 0
Core_0_DTLB_prefetch_MPKI 0
Core_0_DTLB_prefetch_miss_rate 0
Core_0_DTLB_writeback_access 0
Core_0_DTLB_writeback_hit 0
Core_0_DTLB_writeback_miss 0
Core_0_DTLB_writeback_MPKI 0
Core_0_DTLB_writeback_miss_rate 0
Core_0_DTLB_prefetch_requested 0
Core_0_DTLB_prefetch_issued 0
Core_0_DTLB_prefetch_useful 0
Core_0_DTLB_prefetch_useless 0
Core_0_DTLB_prefetch_late 0
Core_0_DTLB_prefetch_accuracy 0
Core_0_DTLB_prefetch_coverage 0

Core_0_STLB_total_access 455508
Core_0_STLB_total_hit 223374
Core_0_STLB_total_miss 232134
Core_0_STLB_total_MPKI 4.64268
Core_0_STLB_total_miss_rate 0.509616
Core_0_STLB_demand_access 455508
Core_0_STLB_demand_hit 223374
Core_0_STLB_demand_miss 232134
Core_0_STLB_demand_MPKI 4.64268
Core_0_STLB_demand_miss_rate 0.509616
Core_0_STLB_load_access 455508
Core_0_STLB_load_hit 223374
Core_0_STLB_load_miss 232134
Core_0_STLB_load_MPKI 4.64268
Core_0_STLB_load_miss_rate 0.509616
Core_0_STLB_rfo_access 0
Core_0_STLB_rfo_hit 0
Core_0_STLB_rfo_miss 0
Core_0_STLB_rfo_MPKI 0
Core_0_STLB_rfo_miss_rate 0
Core_0_STLB_prefetch_access 0
Core_0_STLB_prefetch_hit 0
Core_0_STLB_prefetch_miss 0
Core_0_STLB_prefetch_MPKI 0
Core_0_STLB_prefetch_miss_rate 0
Core_0_STLB_writeback_access 0
Core_0_STLB_writeback_hit 0
Core_0_STLB_writeback_miss 0
Core_0_STLB_writeback_MPKI 0
Core_0_STLB_writeback_miss_rate 0
Core_0_STLB_prefetch_requested 0
Core_0_STLB_prefetch_issued 0
Core_0_STLB_prefetch_useful 0
Core_0_STLB_prefetch_useless 0
Core_0_STLB_prefetch_late 0
Core_0_STLB_prefetch_accuracy 0
Core_0_STLB_prefetch_coverage 0

Core_0_L1I_total_access 14371639
Core_0_L1I_total_hit 14371455
Core_0_L1I_total_miss 184
Core_0_L1I_total_MPKI 0.00368
Core_0_L1I_total_miss_rate 1.2803e-05
Core_0_L1I_demand_access 14371639
Core_0_L1I_demand_hit 14371455
Core_0_L1I_demand_miss 184
Core_0_L1I_demand_MPKI 0.00368
Core_0_L1I_demand_miss_rate 1.2803e-05
Core_0_L1I_load_access 14371639
Core_0_L1I_load_hit 14371455
Core_0_L1I_load_miss 184
Core_0_L1I_load_MPKI 0.00368
Core_0_L1I_load_miss_rate 1.2803e-05
Core_0_L1I_rfo_access 0
Core_0_L1I_rfo_hit 0
Core_0_L1I_rfo_miss 0
Core_0_L1I_rfo_MPKI 0
Core_0_L1I_rfo_miss_rate 0
Core_0_L1I_prefetch_access 0
Core_0_L1I_prefetch_hit 0
Core_0_L1I_prefetch_miss 0
Core_0_L1I_prefetch_MPKI 0
Core_0_L1I_prefetch_miss_rate 0
Core_0_L1I_writeback_access 0
Core_0_L1I_writeback_hit 0
Core_0_L1I_writeback_miss 0
Core_0_L1I_writeback_MPKI 0
Core_0_L1I_writeback_miss_rate 0
Core_0_L1I_prefetch_requested 0
Core_0_L1I_prefetch_issued 0
Core_0_L1I_prefetch_useful 0
Core_0_L1I_prefetch_useless 0
Core_0_L1I_prefetch_late 0
Core_0_L1I_prefetch_accuracy 0
Core_0_L1I_prefetch_coverage 0

Core_0_L1D_total_access 30655130
Core_0_L1D_total_hit 28419162
Core_0_L1D_total_miss 2235968
Core_0_L1D_total_MPKI 44.7194
Core_0_L1D_total_miss_rate 0.0729394
Core_0_L1D_demand_access 21241651
Core_0_L1D_demand_hit 20956057
Core_0_L1D_demand_miss 285594
Core_0_L1D_demand_MPKI 5.71188
Core_0_L1D_demand_miss_rate 0.013445
Core_0_L1D_load_access 21241651
Core_0_L1D_load_hit 20956057
Core_0_L1D_load_miss 285594
Core_0_L1D_load_MPKI 5.71188
Core_0_L1D_load_miss_rate 0.013445
Core_0_L1D_rfo_access 0
Core_0_L1D_rfo_hit 0
Core_0_L1D_rfo_miss 0
Core_0_L1D_rfo_MPKI 0
Core_0_L1D_rfo_miss_rate 0
Core_0_L1D_prefetch_access 6016891
Core_0_L1D_prefetch_hit 4069853
Core_0_L1D_prefetch_miss 1947038
Core_0_L1D_prefetch_MPKI 38.9408
Core_0_L1D_prefetch_miss_rate 0.323595
Core_0_L1D_writeback_access 3396588
Core_0_L1D_writeback_hit 3393252
Core_0_L1D_writeback_miss 3336
Core_0_L1D_writeback_MPKI 0.06672
Core_0_L1D_writeback_miss_rate 0.000982162
Core_0_L1D_prefetch_requested 32496299
Core_0_L1D_prefetch_issued 6016880
Core_0_L1D_prefetch_useful 820514
Core_0_L1D_prefetch_useless 176044
Core_0_L1D_prefetch_late 18071
Core_0_L1D_prefetch_accuracy 0.136369
Core_0_L1D_prefetch_coverage 0.741803

Core_0_L2C_total_access 2760578
Core_0_L2C_total_hit 1499842
Core_0_L2C_total_miss 1260736
Core_0_L2C_total_MPKI 25.2147
Core_0_L2C_total_miss_rate 0.456693
Core_0_L2C_demand_access 250965
Core_0_L2C_demand_hit 152660
Core_0_L2C_demand_miss 98305
Core_0_L2C_demand_MPKI 1.9661
Core_0_L2C_demand_miss_rate 0.391708
Core_0_L2C_load_access 249453
Core_0_L2C_load_hit 151159
Core_0_L2C_load_miss 98294
Core_0_L2C_load_MPKI 1.96588
Core_0_L2C_load_miss_rate 0.394038
Core_0_L2C_rfo_access 1512
Core_0_L2C_rfo_hit 1501
Core_0_L2C_rfo_miss 11
Core_0_L2C_rfo_MPKI 0.00022
Core_0_L2C_rfo_miss_rate 0.00727513
Core_0_L2C_prefetch_access 2032601
Core_0_L2C_prefetch_hit 870181
Core_0_L2C_prefetch_miss 1162420
Core_0_L2C_prefetch_MPKI 23.2484
Core_0_L2C_prefetch_miss_rate 0.571888
Core_0_L2C_writeback_access 477012
Core_0_L2C_writeback_hit 477001
Core_0_L2C_writeback_miss 11
Core_0_L2C_writeback_MPKI 0.00022
Core_0_L2C_writeback_miss_rate 2.30602e-05
Core_0_L2C_prefetch_requested 108688
Core_0_L2C_prefetch_issued 108671
Core_0_L2C_prefetch_useful 15876
Core_0_L2C_prefetch_useless 9580
Core_0_L2C_prefetch_late 113
Core_0_L2C_prefetch_accuracy 0.146092
Core_0_L2C_prefetch_coverage 0.139042

Core_0_LLC_total_access 1627889
Core_0_LLC_total_hit 453459
Core_0_LLC_total_miss 1174430
Core_0_LLC_total_MPKI 23.4886
Core_0_LLC_total_miss_rate 0.721444
Core_0_LLC_demand_access 88453
Core_0_LLC_demand_hit 8053
Core_0_LLC_demand_miss 80400
Core_0_LLC_demand_MPKI 1.608
Core_0_LLC_demand_miss_rate 0.908957
Core_0_LLC_load_access 88442
Core_0_LLC_load_hit 8053
Core_0_LLC_load_miss 80389
Core_0_LLC_load_MPKI 1.60778
Core_0_LLC_load_miss_rate 0.908946
Core_0_LLC_rfo_access 11
Core_0_LLC_rfo_hit 0
Core_0_LLC_rfo_miss 11
Core_0_LLC_rfo_MPKI 0.00022
Core_0_LLC_rfo_miss_rate 1
Core_0_LLC_prefetch_access 1064287
Core_0_LLC_prefetch_hit 27409
Core_0_LLC_prefetch_miss 1036878
Core_0_LLC_prefetch_MPKI 20.7376
Core_0_LLC_prefetch_miss_rate 0.974247
Core_0_LLC_writeback_access 475149
Core_0_LLC_writeback_hit 417997
Core_0_LLC_writeback_miss 57152
Core_0_LLC_writeback_MPKI 1.14304
Core_0_LLC_writeback_miss_rate 0.120282
Core_0_LLC_prefetch_requested 0
Core_0_LLC_prefetch_issued 0
Core_0_LLC_prefetch_useful 0
Core_0_LLC_prefetch_useless 0
Core_0_LLC_prefetch_late 0
Core_0_LLC_prefetch_accuracy 0
Core_0_LLC_prefetch_coverage 0

[DRAM Statistics]
Channel_0_RQ_row_buffer_hit 34885
Channel_0_RQ_row_buffer_miss 1111896
Channel_0_WQ_row_buffer_hit 62071
Channel_0_WQ_row_buffer_miss 413878
Channel_0_WQ_full 0
Channel_0_dbus_congested 4570231
DRAM_total_RQ_row_buffer_hit 34885
DRAM_total_RQ_row_buffer_miss 1111896
DRAM_total_WQ_row_buffer_hit 62071
DRAM_total_WQ_row_buffer_miss 413878
DRAM_total_WQ_full 0
DRAM_total_dbus_congested 4570231
DRAM_avg_congested_cycle 6.51827

====== DRAM_RQ_TRAFFIC ========
DRAM_RQ_READ_TRAFFIC_BREAKDOWN:
data_demand_read.count = 80241
data_demand_read.share = 7.00%

inst_demand_read.count = 109
inst_demand_read.share = 0.01%

cache_inst_prefetch.count = 0
cache_inst_prefetch.share = 0.00%

cache_data_prefetch.count = 1035775
cache_data_prefetch.share = 90.32%

stlb_data_demand.count = 1897
stlb_data_demand.share = 0.17%

stlb_inst_demand.count = 4
stlb_inst_demand.share = 0.00%

stlb_l1i_pref.count = 0
stlb_l1i_pref.share = 0.00%

stlb_l1d_pref.count = 28759
stlb_l1d_pref.share = 2.51%

DRAM_RQ_READ_TRAFFIC_SUMMARY:
cache_demand.count = 80350
cache_demand.share = 7.01%

cache_prefetch.count = 1035775
cache_prefetch.share = 90.32%

stlb_demand.count = 1901
stlb_demand.share = 0.17%

stlb_prefetch.count = 28759
stlb_prefetch.share = 2.51%

DRAM_RQ_READ_TRAFFIC_DEBUG:
total_classified_read.count = 1146785
unclassified_read.count = 0
total_read_with_other.count = 1146785

classified_plus_unclassified_check.count = 1146785
dram_rq_read_total_observed.count = 1146785
dram_rq_read_total_observed.per_1K_instructions = 22.9357

STLB_MISS_PTW_DRAM_TOUCH_BREAKDOWN:
stlb_miss_total.count = 232134

stlb_miss_touch_dram.count = 31392
stlb_miss_touch_dram.share = 13.52%

stlb_miss_no_dram_touch.count = 200742
stlb_miss_no_dram_touch.share = 86.48%

STLB_MISS_PTW_DRAM_TOUCH_DEBUG:
stlb_miss_touch_plus_no_touch.count = 232134
stlb_miss_total_check.count = 232134

======STLB miss causes ========
Core_0_STLB_miss_cause_breakdown
Core_0_STLB_cause_Demand_Data_miss 5730
Core_0_STLB_cause_Demand_Data_miss_rate 0.0125794
Core_0_STLB_cause_Demand_Instruction_miss 2
Core_0_STLB_cause_Demand_Instruction_miss_rate 4.3907e-06
Core_0_STLB_cause_L1D_Prefetch_miss 226402
Core_0_STLB_cause_L1D_Prefetch_miss_rate 0.497032
Core_0_STLB_cause_L1I_Prefetch_miss 0
Core_0_STLB_cause_L1I_Prefetch_miss_rate 0
Core_0_STLB_cause_Other_miss 0
Core_0_STLB_cause_Other_miss_rate 0
Core_0_STLB_Demand_miss 5732
Core_0_STLB_Demand_miss_rate 0.0125838
Core_0_STLB_L1D_Prefetch_miss 226402
Core_0_STLB_L1D_Prefetch_miss_rate 0.497032
Core_0_STLB_Other_miss 0
Core_0_STLB_Other_miss_rate 0
BERTI TO_L1: 17155874 TO_L2: 22215840 TO_L2_BC_MSHR: 5432362
BERTI AVG_LAT: 281.821 NUM_TRACK_LATENCY: 1442424 NUM_CANT_TRACK_LATENCY: 7
BERTI CROSS_PAGE 22984005 NO_CROSS_PAGE: 16387709
BERTI FOUND_BERTI: 7865607 NO_FOUND_BERTI: 23606947
BERTI AVERAGE_ISSUED: 2.4497
