[VMEM] WARNING: physical memory size is smaller than virtual memory size.

*** ChampSim Multicore Out-of-Order Simulator ***
Warmup Instructions: 20000000
Simulation Instructions: 50000000
Number of CPUs: 1
Page size: 4096
Core 0: /data0/tzh/champsim_traces/SPEC06/471.omnetpp-188B.champsimtrace.xz
VBerti Prefetcher
BERTI HASH ENTANGLING
BERTI IP MASK ffff
Off-chip DRAM Size: 16 GiB Channels: 1 Width: 64-bit Data Rate: 3205 MT/s
Warmup halting CPU 0 at instruction 20000003 cycle 6634030 for remainder of phase
Warmup finished CPU 0 instructions: 20000003 cycles: 6634030 cumulative IPC: 3.015 (Simulation time: 00 hr 01 min 36 sec)
Warmup complete CPU 0 instructions: 20000003 cycles: 6634030 cumulative IPC: 3.015 (Simulation time: 00 hr 01 min 36 sec)
Simulation finished CPU 0 instructions: 50000005 cycles: 114413338 cumulative IPC: 0.437 (Simulation time: 00 hr 13 min 25 sec)
Simulation complete CPU 0 instructions: 50000005 cycles: 114413338 cumulative IPC: 0.437 (Simulation time: 00 hr 13 min 25 sec)

ChampSim completed all CPUs

=== Simulation ===
CPU 0 runs /data0/tzh/champsim_traces/SPEC06/471.omnetpp-188B.champsimtrace.xz

Region of Interest Statistics

CPU 0 cumulative IPC: 0.437 instructions: 50000005 cycles: 114413338
CPU 0 Branch Prediction Accuracy: 97.85% MPKI: 5.178 Average ROB Occupancy at Mispredict: 109.3
Branch type MPKI
BRANCH_DIRECT_JUMP: 0.00076
BRANCH_INDIRECT: 0.1129
BRANCH_CONDITIONAL: 4.446
BRANCH_DIRECT_CALL: 0.00018
BRANCH_INDIRECT_CALL: 0.1187
BRANCH_RETURN: 0.4993

cpu0->cpu0_STLB TOTAL        ACCESS:    1154414 HIT:     900467 MISS:     253947 MSHR_MERGE:          0
cpu0->cpu0_STLB LOAD         ACCESS:    1154414 HIT:     900467 MISS:     253947 MSHR_MERGE:          0
cpu0->cpu0_STLB RFO          ACCESS:          0 HIT:          0 MISS:          0 MSHR_MERGE:          0
cpu0->cpu0_STLB PREFETCH     ACCESS:          0 HIT:          0 MISS:          0 MSHR_MERGE:          0
cpu0->cpu0_STLB WRITE        ACCESS:          0 HIT:          0 MISS:          0 MSHR_MERGE:          0
cpu0->cpu0_STLB TRANSLATION  ACCESS:          0 HIT:          0 MISS:          0 MSHR_MERGE:          0
cpu0->cpu0_STLB PREFETCH REQUESTED:          0 ISSUED:          0 USEFUL:          0 USELESS:          0 LATE:          0
cpu0->cpu0_STLB AVERAGE MISS LATENCY: 55.14 cycles
cpu0->cpu0_L2C TOTAL        ACCESS:    2406829 HIT:     979614 MISS:    1427215 MSHR_MERGE:      86465
cpu0->cpu0_L2C LOAD         ACCESS:     972262 HIT:     227177 MISS:     745085 MSHR_MERGE:       2418
cpu0->cpu0_L2C RFO          ACCESS:     130842 HIT:      28427 MISS:     102415 MSHR_MERGE:         70
cpu0->cpu0_L2C PREFETCH     ACCESS:     654057 HIT:     167667 MISS:     486390 MSHR_MERGE:      83977
cpu0->cpu0_L2C WRITE        ACCESS:     499875 HIT:     498528 MISS:       1347 MSHR_MERGE:          0
cpu0->cpu0_L2C TRANSLATION  ACCESS:     149793 HIT:      57815 MISS:      91978 MSHR_MERGE:          0
cpu0->cpu0_L2C PREFETCH REQUESTED:      39928 ISSUED:      39928 USEFUL:       6818 USELESS:      20874 LATE:         49
cpu0->cpu0_L2C AVERAGE MISS LATENCY: 168.3 cycles
cpu0->cpu0_L1I TOTAL        ACCESS:    7176846 HIT:    7174539 MISS:       2307 MSHR_MERGE:        586
cpu0->cpu0_L1I LOAD         ACCESS:    7176846 HIT:    7174539 MISS:       2307 MSHR_MERGE:        586
cpu0->cpu0_L1I RFO          ACCESS:          0 HIT:          0 MISS:          0 MSHR_MERGE:          0
cpu0->cpu0_L1I PREFETCH     ACCESS:          0 HIT:          0 MISS:          0 MSHR_MERGE:          0
cpu0->cpu0_L1I WRITE        ACCESS:          0 HIT:          0 MISS:          0 MSHR_MERGE:          0
cpu0->cpu0_L1I TRANSLATION  ACCESS:          0 HIT:          0 MISS:          0 MSHR_MERGE:          0
cpu0->cpu0_L1I PREFETCH REQUESTED:          0 ISSUED:          0 USEFUL:          0 USELESS:          0 LATE:          0
cpu0->cpu0_L1I AVERAGE MISS LATENCY: 152.4 cycles
cpu0->cpu0_L1D TOTAL        ACCESS:   17775399 HIT:   14884909 MISS:    2890490 MSHR_MERGE:    1003781
cpu0->cpu0_L1D LOAD         ACCESS:    8545695 HIT:    7091459 MISS:    1454236 MSHR_MERGE:     483692
cpu0->cpu0_L1D RFO          ACCESS:          0 HIT:          0 MISS:          0 MSHR_MERGE:          0
cpu0->cpu0_L1D PREFETCH     ACCESS:     815308 HIT:     178249 MISS:     637059 MSHR_MERGE:       1537
cpu0->cpu0_L1D WRITE        ACCESS:    7907599 HIT:    7263079 MISS:     644520 MSHR_MERGE:     513670
cpu0->cpu0_L1D TRANSLATION  ACCESS:     506797 HIT:     352122 MISS:     154675 MSHR_MERGE:       4882
cpu0->cpu0_L1D PREFETCH REQUESTED:     862644 ISSUED:     815304 USEFUL:      72379 USELESS:      51822 LATE:        348
cpu0->cpu0_L1D AVERAGE MISS LATENCY: 135.1 cycles
cpu0->cpu0_ITLB TOTAL        ACCESS:    6314084 HIT:    6265710 MISS:      48374 MSHR_MERGE:      26953
cpu0->cpu0_ITLB LOAD         ACCESS:    6314084 HIT:    6265710 MISS:      48374 MSHR_MERGE:      26953
cpu0->cpu0_ITLB RFO          ACCESS:          0 HIT:          0 MISS:          0 MSHR_MERGE:          0
cpu0->cpu0_ITLB PREFETCH     ACCESS:          0 HIT:          0 MISS:          0 MSHR_MERGE:          0
cpu0->cpu0_ITLB WRITE        ACCESS:          0 HIT:          0 MISS:          0 MSHR_MERGE:          0
cpu0->cpu0_ITLB TRANSLATION  ACCESS:          0 HIT:          0 MISS:          0 MSHR_MERGE:          0
cpu0->cpu0_ITLB PREFETCH REQUESTED:          0 ISSUED:          0 USEFUL:          0 USELESS:          0 LATE:          0
cpu0->cpu0_ITLB AVERAGE MISS LATENCY: 6.189 cycles
cpu0->cpu0_DTLB TOTAL        ACCESS:   16432334 HIT:   14849235 MISS:    1583099 MSHR_MERGE:     450106
cpu0->cpu0_DTLB LOAD         ACCESS:   16432334 HIT:   14849235 MISS:    1583099 MSHR_MERGE:     450106
cpu0->cpu0_DTLB RFO          ACCESS:          0 HIT:          0 MISS:          0 MSHR_MERGE:          0
cpu0->cpu0_DTLB PREFETCH     ACCESS:          0 HIT:          0 MISS:          0 MSHR_MERGE:          0
cpu0->cpu0_DTLB WRITE        ACCESS:          0 HIT:          0 MISS:          0 MSHR_MERGE:          0
cpu0->cpu0_DTLB TRANSLATION  ACCESS:          0 HIT:          0 MISS:          0 MSHR_MERGE:          0
cpu0->cpu0_DTLB PREFETCH REQUESTED:          0 ISSUED:          0 USEFUL:          0 USELESS:          0 LATE:          0
cpu0->cpu0_DTLB AVERAGE MISS LATENCY: 17.57 cycles
cpu0->LLC TOTAL        ACCESS:    1779913 HIT:     592847 MISS:    1187066 MSHR_MERGE:         20
cpu0->LLC LOAD         ACCESS:     742667 HIT:     154733 MISS:     587934 MSHR_MERGE:          0
cpu0->LLC RFO          ACCESS:     102345 HIT:      14589 MISS:      87756 MSHR_MERGE:          0
cpu0->LLC PREFETCH     ACCESS:     402413 HIT:      34158 MISS:     368255 MSHR_MERGE:         20
cpu0->LLC WRITE        ACCESS:     440510 HIT:     326305 MISS:     114205 MSHR_MERGE:          0
cpu0->LLC TRANSLATION  ACCESS:      91978 HIT:      63062 MISS:      28916 MSHR_MERGE:          0
cpu0->LLC PREFETCH REQUESTED:          0 ISSUED:          0 USEFUL:          0 USELESS:          0 LATE:          0
cpu0->LLC AVERAGE MISS LATENCY: 176.2 cycles

DRAM Statistics

Channel 0 RQ ROW_BUFFER_HIT:      16301
  ROW_BUFFER_MISS:    1056431
  AVG DBUS CONGESTED CYCLE: 13.04
Channel 0 WQ ROW_BUFFER_HIT:     100760
  ROW_BUFFER_MISS:     244372
  FULL:          0
Channel 0 REFRESHES ISSUED:       9535

[ROI Statistics]
[System Configuration]
num_cpus 1
cpu_freq 4000
fetch_width 6
decode_width 6
dispatch_width 6
execute_width 6
lq_width 2
sq_width 2
retire_width 6
scheduler_size 128
branch_mispredict_penalty 15
rob_size 352
lq_size 128
sq_size 72
ifetch_buffer_size 64
decode_buffer_size 32
dispatch_buffer_size 32
register_file_size 288
decode_latency 1
dispatch_latency 1
schedule_latency 1
execute_latency 1
page_size 4096
block_size 64
core_0_itlb_set 16
core_0_itlb_way 4
core_0_itlb_rq_size 16
core_0_itlb_wq_size 16
core_0_itlb_pq_size 0
core_0_itlb_mshr_size 8
core_0_itlb_hit_latency 1
core_0_itlb_fill_latency 1
core_0_itlb_max_tag_check 2
core_0_itlb_max_fill 2
core_0_dtlb_set 16
core_0_dtlb_way 4
core_0_dtlb_rq_size 16
core_0_dtlb_wq_size 16
core_0_dtlb_pq_size 0
core_0_dtlb_mshr_size 8
core_0_dtlb_hit_latency 1
core_0_dtlb_fill_latency 1
core_0_dtlb_max_tag_check 2
core_0_dtlb_max_fill 2
core_0_stlb_set 128
core_0_stlb_way 12
core_0_stlb_rq_size 32
core_0_stlb_wq_size 32
core_0_stlb_pq_size 0
core_0_stlb_mshr_size 16
core_0_stlb_hit_latency 4
core_0_stlb_fill_latency 4
core_0_stlb_max_tag_check 1
core_0_stlb_max_fill 1
core_0_l1i_set 64
core_0_l1i_way 8
core_0_l1i_rq_size 64
core_0_l1i_wq_size 64
core_0_l1i_pq_size 32
core_0_l1i_mshr_size 8
core_0_l1i_hit_latency 2
core_0_l1i_fill_latency 2
core_0_l1i_max_tag_check 2
core_0_l1i_max_fill 2
core_0_l1d_set 64
core_0_l1d_way 12
core_0_l1d_rq_size 64
core_0_l1d_wq_size 64
core_0_l1d_pq_size 8
core_0_l1d_mshr_size 16
core_0_l1d_hit_latency 2
core_0_l1d_fill_latency 3
core_0_l1d_max_tag_check 2
core_0_l1d_max_fill 2
core_0_l2c_set 1024
core_0_l2c_way 8
core_0_l2c_rq_size 32
core_0_l2c_wq_size 32
core_0_l2c_pq_size 16
core_0_l2c_mshr_size 32
core_0_l2c_hit_latency 5
core_0_l2c_fill_latency 5
core_0_l2c_max_tag_check 1
core_0_l2c_max_fill 1
llc_set 2048
llc_way 16
llc_rq_size 32
llc_wq_size 32
llc_pq_size 32
llc_mshr_size 64
llc_hit_latency 10
llc_fill_latency 10
llc_max_tag_check 1
llc_max_fill 1
dram_channels 1
dram_ranks 1
dram_bankgroups 8
dram_banks 4
dram_rows 65536
dram_columns 1024
dram_channel_width 8
dram_rq_size 64
dram_wq_size 64
dram_size 17179869184
core_0_itlb_prefetcher no
core_0_dtlb_prefetcher no
core_0_stlb_prefetcher no
core_0_l1i_prefetcher next_line
core_0_l1d_prefetcher vberti
core_0_l2c_prefetcher ip_stride
llc_prefetcher no
llc_replacement drrip

Core_0_instructions 50000005
Core_0_cycles 114413338
Core_0_IPC 0.437012
Core_0_branch_prediction_accuracy 97.8525
Core_0_branch_MPKI 5.17778
Core_0_average_ROB_occupancy_at_mispredict 109.258

Core_0_ITLB_total_access 6314084
Core_0_ITLB_total_hit 6265710
Core_0_ITLB_total_miss 48374
Core_0_ITLB_total_MPKI 0.96748
Core_0_ITLB_total_miss_rate 0.00766129
Core_0_ITLB_demand_access 6314084
Core_0_ITLB_demand_hit 6265710
Core_0_ITLB_demand_miss 48374
Core_0_ITLB_demand_MPKI 0.96748
Core_0_ITLB_demand_miss_rate 0.00766129
Core_0_ITLB_load_access 6314084
Core_0_ITLB_load_hit 6265710
Core_0_ITLB_load_miss 48374
Core_0_ITLB_load_MPKI 0.96748
Core_0_ITLB_load_miss_rate 0.00766129
Core_0_ITLB_rfo_access 0
Core_0_ITLB_rfo_hit 0
Core_0_ITLB_rfo_miss 0
Core_0_ITLB_rfo_MPKI 0
Core_0_ITLB_rfo_miss_rate 0
Core_0_ITLB_prefetch_access 0
Core_0_ITLB_prefetch_hit 0
Core_0_ITLB_prefetch_miss 0
Core_0_ITLB_prefetch_MPKI 0
Core_0_ITLB_prefetch_miss_rate 0
Core_0_ITLB_writeback_access 0
Core_0_ITLB_writeback_hit 0
Core_0_ITLB_writeback_miss 0
Core_0_ITLB_writeback_MPKI 0
Core_0_ITLB_writeback_miss_rate 0
Core_0_ITLB_prefetch_requested 0
Core_0_ITLB_prefetch_issued 0
Core_0_ITLB_prefetch_useful 0
Core_0_ITLB_prefetch_useless 0
Core_0_ITLB_prefetch_late 0
Core_0_ITLB_prefetch_accuracy 0
Core_0_ITLB_prefetch_coverage 0

Core_0_DTLB_total_access 16432334
Core_0_DTLB_total_hit 14849235
Core_0_DTLB_total_miss 1583099
Core_0_DTLB_total_MPKI 31.662
Core_0_DTLB_total_miss_rate 0.0963405
Core_0_DTLB_demand_access 16432334
Core_0_DTLB_demand_hit 14849235
Core_0_DTLB_demand_miss 1583099
Core_0_DTLB_demand_MPKI 31.662
Core_0_DTLB_demand_miss_rate 0.0963405
Core_0_DTLB_load_access 16432334
Core_0_DTLB_load_hit 14849235
Core_0_DTLB_load_miss 1583099
Core_0_DTLB_load_MPKI 31.662
Core_0_DTLB_load_miss_rate 0.0963405
Core_0_DTLB_rfo_access 0
Core_0_DTLB_rfo_hit 0
Core_0_DTLB_rfo_miss 0
Core_0_DTLB_rfo_MPKI 0
Core_0_DTLB_rfo_miss_rate 0
Core_0_DTLB_prefetch_access 0
Core_0_DTLB_prefetch_hit 0
Core_0_DTLB_prefetch_miss 0
Core_0_DTLB_prefetch_MPKI 0
Core_0_DTLB_prefetch_miss_rate 0
Core_0_DTLB_writeback_access 0
Core_0_DTLB_writeback_hit 0
Core_0_DTLB_writeback_miss 0
Core_0_DTLB_writeback_MPKI 0
Core_0_DTLB_writeback_miss_rate 0
Core_0_DTLB_prefetch_requested 0
Core_0_DTLB_prefetch_issued 0
Core_0_DTLB_prefetch_useful 0
Core_0_DTLB_prefetch_useless 0
Core_0_DTLB_prefetch_late 0
Core_0_DTLB_prefetch_accuracy 0
Core_0_DTLB_prefetch_coverage 0

Core_0_STLB_total_access 1154414
Core_0_STLB_total_hit 900467
Core_0_STLB_total_miss 253947
Core_0_STLB_total_MPKI 5.07894
Core_0_STLB_total_miss_rate 0.219979
Core_0_STLB_demand_access 1154414
Core_0_STLB_demand_hit 900467
Core_0_STLB_demand_miss 253947
Core_0_STLB_demand_MPKI 5.07894
Core_0_STLB_demand_miss_rate 0.219979
Core_0_STLB_load_access 1154414
Core_0_STLB_load_hit 900467
Core_0_STLB_load_miss 253947
Core_0_STLB_load_MPKI 5.07894
Core_0_STLB_load_miss_rate 0.219979
Core_0_STLB_rfo_access 0
Core_0_STLB_rfo_hit 0
Core_0_STLB_rfo_miss 0
Core_0_STLB_rfo_MPKI 0
Core_0_STLB_rfo_miss_rate 0
Core_0_STLB_prefetch_access 0
Core_0_STLB_prefetch_hit 0
Core_0_STLB_prefetch_miss 0
Core_0_STLB_prefetch_MPKI 0
Core_0_STLB_prefetch_miss_rate 0
Core_0_STLB_writeback_access 0
Core_0_STLB_writeback_hit 0
Core_0_STLB_writeback_miss 0
Core_0_STLB_writeback_MPKI 0
Core_0_STLB_writeback_miss_rate 0
Core_0_STLB_prefetch_requested 0
Core_0_STLB_prefetch_issued 0
Core_0_STLB_prefetch_useful 0
Core_0_STLB_prefetch_useless 0
Core_0_STLB_prefetch_late 0
Core_0_STLB_prefetch_accuracy 0
Core_0_STLB_prefetch_coverage 0

Core_0_L1I_total_access 7176846
Core_0_L1I_total_hit 7174539
Core_0_L1I_total_miss 2307
Core_0_L1I_total_MPKI 0.04614
Core_0_L1I_total_miss_rate 0.00032145
Core_0_L1I_demand_access 7176846
Core_0_L1I_demand_hit 7174539
Core_0_L1I_demand_miss 2307
Core_0_L1I_demand_MPKI 0.04614
Core_0_L1I_demand_miss_rate 0.00032145
Core_0_L1I_load_access 7176846
Core_0_L1I_load_hit 7174539
Core_0_L1I_load_miss 2307
Core_0_L1I_load_MPKI 0.04614
Core_0_L1I_load_miss_rate 0.00032145
Core_0_L1I_rfo_access 0
Core_0_L1I_rfo_hit 0
Core_0_L1I_rfo_miss 0
Core_0_L1I_rfo_MPKI 0
Core_0_L1I_rfo_miss_rate 0
Core_0_L1I_prefetch_access 0
Core_0_L1I_prefetch_hit 0
Core_0_L1I_prefetch_miss 0
Core_0_L1I_prefetch_MPKI 0
Core_0_L1I_prefetch_miss_rate 0
Core_0_L1I_writeback_access 0
Core_0_L1I_writeback_hit 0
Core_0_L1I_writeback_miss 0
Core_0_L1I_writeback_MPKI 0
Core_0_L1I_writeback_miss_rate 0
Core_0_L1I_prefetch_requested 0
Core_0_L1I_prefetch_issued 0
Core_0_L1I_prefetch_useful 0
Core_0_L1I_prefetch_useless 0
Core_0_L1I_prefetch_late 0
Core_0_L1I_prefetch_accuracy 0
Core_0_L1I_prefetch_coverage 0

Core_0_L1D_total_access 17268602
Core_0_L1D_total_hit 14532787
Core_0_L1D_total_miss 2735815
Core_0_L1D_total_MPKI 54.7163
Core_0_L1D_total_miss_rate 0.158427
Core_0_L1D_demand_access 8545695
Core_0_L1D_demand_hit 7091459
Core_0_L1D_demand_miss 1454236
Core_0_L1D_demand_MPKI 29.0847
Core_0_L1D_demand_miss_rate 0.170172
Core_0_L1D_load_access 8545695
Core_0_L1D_load_hit 7091459
Core_0_L1D_load_miss 1454236
Core_0_L1D_load_MPKI 29.0847
Core_0_L1D_load_miss_rate 0.170172
Core_0_L1D_rfo_access 0
Core_0_L1D_rfo_hit 0
Core_0_L1D_rfo_miss 0
Core_0_L1D_rfo_MPKI 0
Core_0_L1D_rfo_miss_rate 0
Core_0_L1D_prefetch_access 815308
Core_0_L1D_prefetch_hit 178249
Core_0_L1D_prefetch_miss 637059
Core_0_L1D_prefetch_MPKI 12.7412
Core_0_L1D_prefetch_miss_rate 0.781372
Core_0_L1D_writeback_access 7907599
Core_0_L1D_writeback_hit 7263079
Core_0_L1D_writeback_miss 644520
Core_0_L1D_writeback_MPKI 12.8904
Core_0_L1D_writeback_miss_rate 0.0815064
Core_0_L1D_prefetch_requested 862644
Core_0_L1D_prefetch_issued 815304
Core_0_L1D_prefetch_useful 72379
Core_0_L1D_prefetch_useless 51822
Core_0_L1D_prefetch_late 348
Core_0_L1D_prefetch_accuracy 0.0887755
Core_0_L1D_prefetch_coverage 0.0474114

Core_0_L2C_total_access 2257036
Core_0_L2C_total_hit 921799
Core_0_L2C_total_miss 1335237
Core_0_L2C_total_MPKI 26.7047
Core_0_L2C_total_miss_rate 0.591589
Core_0_L2C_demand_access 1103104
Core_0_L2C_demand_hit 255604
Core_0_L2C_demand_miss 847500
Core_0_L2C_demand_MPKI 16.95
Core_0_L2C_demand_miss_rate 0.768287
Core_0_L2C_load_access 972262
Core_0_L2C_load_hit 227177
Core_0_L2C_load_miss 745085
Core_0_L2C_load_MPKI 14.9017
Core_0_L2C_load_miss_rate 0.766342
Core_0_L2C_rfo_access 130842
Core_0_L2C_rfo_hit 28427
Core_0_L2C_rfo_miss 102415
Core_0_L2C_rfo_MPKI 2.0483
Core_0_L2C_rfo_miss_rate 0.782738
Core_0_L2C_prefetch_access 654057
Core_0_L2C_prefetch_hit 167667
Core_0_L2C_prefetch_miss 486390
Core_0_L2C_prefetch_MPKI 9.7278
Core_0_L2C_prefetch_miss_rate 0.743651
Core_0_L2C_writeback_access 499875
Core_0_L2C_writeback_hit 498528
Core_0_L2C_writeback_miss 1347
Core_0_L2C_writeback_MPKI 0.02694
Core_0_L2C_writeback_miss_rate 0.00269467
Core_0_L2C_prefetch_requested 39928
Core_0_L2C_prefetch_issued 39928
Core_0_L2C_prefetch_useful 6818
Core_0_L2C_prefetch_useless 20874
Core_0_L2C_prefetch_late 49
Core_0_L2C_prefetch_accuracy 0.170757
Core_0_L2C_prefetch_coverage 0.00798063

Core_0_LLC_total_access 1687935
Core_0_LLC_total_hit 529785
Core_0_LLC_total_miss 1158150
Core_0_LLC_total_MPKI 23.163
Core_0_LLC_total_miss_rate 0.686134
Core_0_LLC_demand_access 845012
Core_0_LLC_demand_hit 169322
Core_0_LLC_demand_miss 675690
Core_0_LLC_demand_MPKI 13.5138
Core_0_LLC_demand_miss_rate 0.799622
Core_0_LLC_load_access 742667
Core_0_LLC_load_hit 154733
Core_0_LLC_load_miss 587934
Core_0_LLC_load_MPKI 11.7587
Core_0_LLC_load_miss_rate 0.791652
Core_0_LLC_rfo_access 102345
Core_0_LLC_rfo_hit 14589
Core_0_LLC_rfo_miss 87756
Core_0_LLC_rfo_MPKI 1.75512
Core_0_LLC_rfo_miss_rate 0.857453
Core_0_LLC_prefetch_access 402413
Core_0_LLC_prefetch_hit 34158
Core_0_LLC_prefetch_miss 368255
Core_0_LLC_prefetch_MPKI 7.3651
Core_0_LLC_prefetch_miss_rate 0.915117
Core_0_LLC_writeback_access 440510
Core_0_LLC_writeback_hit 326305
Core_0_LLC_writeback_miss 114205
Core_0_LLC_writeback_MPKI 2.2841
Core_0_LLC_writeback_miss_rate 0.259256
Core_0_LLC_prefetch_requested 0
Core_0_LLC_prefetch_issued 0
Core_0_LLC_prefetch_useful 0
Core_0_LLC_prefetch_useless 0
Core_0_LLC_prefetch_late 0
Core_0_LLC_prefetch_accuracy 0
Core_0_LLC_prefetch_coverage 0

[DRAM Statistics]
Channel_0_RQ_row_buffer_hit 16301
Channel_0_RQ_row_buffer_miss 1056431
Channel_0_WQ_row_buffer_hit 100760
Channel_0_WQ_row_buffer_miss 244372
Channel_0_WQ_full 0
Channel_0_dbus_congested 3676650
DRAM_total_RQ_row_buffer_hit 16301
DRAM_total_RQ_row_buffer_miss 1056431
DRAM_total_WQ_row_buffer_hit 100760
DRAM_total_WQ_row_buffer_miss 244372
DRAM_total_WQ_full 0
DRAM_total_dbus_congested 3676650
DRAM_avg_congested_cycle 13.0369

====== DRAM_RQ_TRAFFIC ========
DRAM_RQ_READ_TRAFFIC_BREAKDOWN:
data_demand_read.count = 674556
data_demand_read.share = 62.88%

inst_demand_read.count = 1134
inst_demand_read.share = 0.11%

cache_inst_prefetch.count = 0
cache_inst_prefetch.share = 0.00%

cache_data_prefetch.count = 368235
cache_data_prefetch.share = 34.32%

stlb_data_demand.count = 22643
stlb_data_demand.share = 2.11%

stlb_inst_demand.count = 55
stlb_inst_demand.share = 0.01%

stlb_l1i_pref.count = 0
stlb_l1i_pref.share = 0.00%

stlb_l1d_pref.count = 6218
stlb_l1d_pref.share = 0.58%

DRAM_RQ_READ_TRAFFIC_SUMMARY:
cache_demand.count = 675690
cache_demand.share = 62.98%

cache_prefetch.count = 368235
cache_prefetch.share = 34.32%

stlb_demand.count = 22698
stlb_demand.share = 2.12%

stlb_prefetch.count = 6218
stlb_prefetch.share = 0.58%

DRAM_RQ_READ_TRAFFIC_DEBUG:
total_classified_read.count = 1072841
unclassified_read.count = 0
total_read_with_other.count = 1072841

classified_plus_unclassified_check.count = 1072841
dram_rq_read_total_observed.count = 1072841
dram_rq_read_total_observed.per_1K_instructions = 21.4568

STLB_MISS_PTW_DRAM_TOUCH_BREAKDOWN:
stlb_miss_total.count = 253947

stlb_miss_touch_dram.count = 28979
stlb_miss_touch_dram.share = 11.41%

stlb_miss_no_dram_touch.count = 224968
stlb_miss_no_dram_touch.share = 88.59%

STLB_MISS_PTW_DRAM_TOUCH_DEBUG:
stlb_miss_touch_plus_no_touch.count = 253947
stlb_miss_total_check.count = 253947

======STLB miss causes ========
Core_0_STLB_miss_cause_breakdown
Core_0_STLB_cause_Demand_Data_miss 178277
Core_0_STLB_cause_Demand_Data_miss_rate 0.154431
Core_0_STLB_cause_Demand_Instruction_miss 339
Core_0_STLB_cause_Demand_Instruction_miss_rate 0.000293655
Core_0_STLB_cause_L1D_Prefetch_miss 75331
Core_0_STLB_cause_L1D_Prefetch_miss_rate 0.0652548
Core_0_STLB_cause_L1I_Prefetch_miss 0
Core_0_STLB_cause_L1I_Prefetch_miss_rate 0
Core_0_STLB_cause_Other_miss 0
Core_0_STLB_cause_Other_miss_rate 0
Core_0_STLB_Demand_miss 178616
Core_0_STLB_Demand_miss_rate 0.154724
Core_0_STLB_L1D_Prefetch_miss 75331
Core_0_STLB_L1D_Prefetch_miss_rate 0.0652548
Core_0_STLB_Other_miss 0
Core_0_STLB_Other_miss_rate 0
BERTI TO_L1: 331563 TO_L2: 828539 TO_L2_BC_MSHR: 32
BERTI AVG_LAT: 111.051 NUM_TRACK_LATENCY: 1692639 NUM_CANT_TRACK_LATENCY: 0
BERTI CROSS_PAGE 963330 NO_CROSS_PAGE: 196772
BERTI FOUND_BERTI: 5159363 NO_FOUND_BERTI: 16110662
BERTI AVERAGE_ISSUED: 1.42388
