[VMEM] WARNING: physical memory size is smaller than virtual memory size.

*** ChampSim Multicore Out-of-Order Simulator ***
Warmup Instructions: 20000000
Simulation Instructions: 50000000
Number of CPUs: 1
Page size: 4096
Core 0: /data0/tzh/champsim_traces/SPEC17/605.mcf_s-472B.champsimtrace.xz
VBerti Prefetcher
BERTI HASH ENTANGLING
BERTI IP MASK ffff
Off-chip DRAM Size: 16 GiB Channels: 1 Width: 64-bit Data Rate: 3205 MT/s
Warmup halting CPU 0 at instruction 20000002 cycle 7886018 for remainder of phase
Warmup finished CPU 0 instructions: 20000002 cycles: 7886018 cumulative IPC: 2.536 (Simulation time: 00 hr 01 min 36 sec)
Warmup complete CPU 0 instructions: 20000002 cycles: 7886018 cumulative IPC: 2.536 (Simulation time: 00 hr 01 min 36 sec)
Simulation finished CPU 0 instructions: 50000002 cycles: 83552974 cumulative IPC: 0.5984 (Simulation time: 00 hr 12 min 24 sec)
Simulation complete CPU 0 instructions: 50000002 cycles: 83552974 cumulative IPC: 0.5984 (Simulation time: 00 hr 12 min 24 sec)

ChampSim completed all CPUs

=== Simulation ===
CPU 0 runs /data0/tzh/champsim_traces/SPEC17/605.mcf_s-472B.champsimtrace.xz

Region of Interest Statistics

CPU 0 cumulative IPC: 0.5984 instructions: 50000002 cycles: 83552974
CPU 0 Branch Prediction Accuracy: 99.02% MPKI: 1.13 Average ROB Occupancy at Mispredict: 177.8
Branch type MPKI
BRANCH_DIRECT_JUMP: 0
BRANCH_INDIRECT: 0
BRANCH_CONDITIONAL: 1.13
BRANCH_DIRECT_CALL: 0
BRANCH_INDIRECT_CALL: 0
BRANCH_RETURN: 0

cpu0->cpu0_STLB TOTAL        ACCESS:     153303 HIT:      86307 MISS:      66996 MSHR_MERGE:          0
cpu0->cpu0_STLB LOAD         ACCESS:     153303 HIT:      86307 MISS:      66996 MSHR_MERGE:          0
cpu0->cpu0_STLB RFO          ACCESS:          0 HIT:          0 MISS:          0 MSHR_MERGE:          0
cpu0->cpu0_STLB PREFETCH     ACCESS:          0 HIT:          0 MISS:          0 MSHR_MERGE:          0
cpu0->cpu0_STLB WRITE        ACCESS:          0 HIT:          0 MISS:          0 MSHR_MERGE:          0
cpu0->cpu0_STLB TRANSLATION  ACCESS:          0 HIT:          0 MISS:          0 MSHR_MERGE:          0
cpu0->cpu0_STLB PREFETCH REQUESTED:          0 ISSUED:          0 USEFUL:          0 USELESS:          0 LATE:          0
cpu0->cpu0_STLB AVERAGE MISS LATENCY: 84 cycles
cpu0->cpu0_L2C TOTAL        ACCESS:    7404070 HIT:    3025948 MISS:    4378122 MSHR_MERGE:    1335801
cpu0->cpu0_L2C LOAD         ACCESS:    1132351 HIT:     683082 MISS:     449269 MSHR_MERGE:     169140
cpu0->cpu0_L2C RFO          ACCESS:      60182 HIT:      34352 MISS:      25830 MSHR_MERGE:       2507
cpu0->cpu0_L2C PREFETCH     ACCESS:    5920750 HIT:    2028831 MISS:    3891919 MSHR_MERGE:    1164154
cpu0->cpu0_L2C WRITE        ACCESS:     278319 HIT:     276885 MISS:       1434 MSHR_MERGE:          0
cpu0->cpu0_L2C TRANSLATION  ACCESS:      12468 HIT:       2798 MISS:       9670 MSHR_MERGE:          0
cpu0->cpu0_L2C PREFETCH REQUESTED:    1056490 ISSUED:     651433 USEFUL:      58563 USELESS:      29096 LATE:       1501
cpu0->cpu0_L2C AVERAGE MISS LATENCY: 212.8 cycles
cpu0->cpu0_L1I TOTAL        ACCESS:    8256850 HIT:    8256850 MISS:          0 MSHR_MERGE:          0
cpu0->cpu0_L1I LOAD         ACCESS:    8256850 HIT:    8256850 MISS:          0 MSHR_MERGE:          0
cpu0->cpu0_L1I RFO          ACCESS:          0 HIT:          0 MISS:          0 MSHR_MERGE:          0
cpu0->cpu0_L1I PREFETCH     ACCESS:          0 HIT:          0 MISS:          0 MSHR_MERGE:          0
cpu0->cpu0_L1I WRITE        ACCESS:          0 HIT:          0 MISS:          0 MSHR_MERGE:          0
cpu0->cpu0_L1I TRANSLATION  ACCESS:          0 HIT:          0 MISS:          0 MSHR_MERGE:          0
cpu0->cpu0_L1I PREFETCH REQUESTED:          0 ISSUED:          0 USEFUL:          0 USELESS:          0 LATE:          0
cpu0->cpu0_L1I AVERAGE MISS LATENCY: - cycles
cpu0->cpu0_L1D TOTAL        ACCESS:   34374548 HIT:   27260274 MISS:    7114274 MSHR_MERGE:     446858
cpu0->cpu0_L1D LOAD         ACCESS:   12828879 HIT:   11396727 MISS:    1432152 MSHR_MERGE:     299800
cpu0->cpu0_L1D RFO          ACCESS:          0 HIT:          0 MISS:          0 MSHR_MERGE:          0
cpu0->cpu0_L1D PREFETCH     ACCESS:    9307721 HIT:    3816020 MISS:    5491701 MSHR_MERGE:      29303
cpu0->cpu0_L1D WRITE        ACCESS:   12103947 HIT:   11926030 MISS:     177917 MSHR_MERGE:     117719
cpu0->cpu0_L1D TRANSLATION  ACCESS:     134001 HIT:     121497 MISS:      12504 MSHR_MERGE:         36
cpu0->cpu0_L1D PREFETCH REQUESTED:   44968571 ISSUED:    9307721 USEFUL:    1354149 USELESS:      75860 LATE:     184874
cpu0->cpu0_L1D AVERAGE MISS LATENCY: 107.8 cycles
cpu0->cpu0_ITLB TOTAL        ACCESS:    7055714 HIT:    7055714 MISS:          0 MSHR_MERGE:          0
cpu0->cpu0_ITLB LOAD         ACCESS:    7055714 HIT:    7055714 MISS:          0 MSHR_MERGE:          0
cpu0->cpu0_ITLB RFO          ACCESS:          0 HIT:          0 MISS:          0 MSHR_MERGE:          0
cpu0->cpu0_ITLB PREFETCH     ACCESS:          0 HIT:          0 MISS:          0 MSHR_MERGE:          0
cpu0->cpu0_ITLB WRITE        ACCESS:          0 HIT:          0 MISS:          0 MSHR_MERGE:          0
cpu0->cpu0_ITLB TRANSLATION  ACCESS:          0 HIT:          0 MISS:          0 MSHR_MERGE:          0
cpu0->cpu0_ITLB PREFETCH REQUESTED:          0 ISSUED:          0 USEFUL:          0 USELESS:          0 LATE:          0
cpu0->cpu0_ITLB AVERAGE MISS LATENCY: - cycles
cpu0->cpu0_DTLB TOTAL        ACCESS:   29664716 HIT:   29400860 MISS:     263856 MSHR_MERGE:     110553
cpu0->cpu0_DTLB LOAD         ACCESS:   29664716 HIT:   29400860 MISS:     263856 MSHR_MERGE:     110553
cpu0->cpu0_DTLB RFO          ACCESS:          0 HIT:          0 MISS:          0 MSHR_MERGE:          0
cpu0->cpu0_DTLB PREFETCH     ACCESS:          0 HIT:          0 MISS:          0 MSHR_MERGE:          0
cpu0->cpu0_DTLB WRITE        ACCESS:          0 HIT:          0 MISS:          0 MSHR_MERGE:          0
cpu0->cpu0_DTLB TRANSLATION  ACCESS:          0 HIT:          0 MISS:          0 MSHR_MERGE:          0
cpu0->cpu0_DTLB PREFETCH REQUESTED:          0 ISSUED:          0 USEFUL:          0 USELESS:          0 LATE:          0
cpu0->cpu0_DTLB AVERAGE MISS LATENCY: 42.15 cycles
cpu0->LLC TOTAL        ACCESS:    3285844 HIT:     850668 MISS:    2435176 MSHR_MERGE:      60415
cpu0->LLC LOAD         ACCESS:     280129 HIT:      45978 MISS:     234151 MSHR_MERGE:       1640
cpu0->LLC RFO          ACCESS:      23323 HIT:       1304 MISS:      22019 MSHR_MERGE:         73
cpu0->LLC PREFETCH     ACCESS:    2727719 HIT:     757358 MISS:    1970361 MSHR_MERGE:      58702
cpu0->LLC WRITE        ACCESS:     245003 HIT:      44003 MISS:     201000 MSHR_MERGE:          0
cpu0->LLC TRANSLATION  ACCESS:       9670 HIT:       2025 MISS:       7645 MSHR_MERGE:          0
cpu0->LLC PREFETCH REQUESTED:          0 ISSUED:          0 USEFUL:          0 USELESS:          0 LATE:          0
cpu0->LLC AVERAGE MISS LATENCY: 146.1 cycles

DRAM Statistics

Channel 0 RQ ROW_BUFFER_HIT:     127652
  ROW_BUFFER_MISS:    2046098
  AVG DBUS CONGESTED CYCLE: 5.364
Channel 0 WQ ROW_BUFFER_HIT:      25075
  ROW_BUFFER_MISS:     217996
  FULL:          0
Channel 0 REFRESHES ISSUED:       6962

[ROI Statistics]
[System Configuration]
num_cpus 1
cpu_freq 4000
fetch_width 6
decode_width 6
dispatch_width 6
execute_width 6
lq_width 2
sq_width 2
retire_width 6
scheduler_size 128
branch_mispredict_penalty 15
rob_size 352
lq_size 128
sq_size 72
ifetch_buffer_size 64
decode_buffer_size 32
dispatch_buffer_size 32
register_file_size 288
decode_latency 1
dispatch_latency 1
schedule_latency 1
execute_latency 1
page_size 4096
block_size 64
core_0_itlb_set 16
core_0_itlb_way 4
core_0_itlb_rq_size 16
core_0_itlb_wq_size 16
core_0_itlb_pq_size 0
core_0_itlb_mshr_size 8
core_0_itlb_hit_latency 1
core_0_itlb_fill_latency 1
core_0_itlb_max_tag_check 2
core_0_itlb_max_fill 2
core_0_dtlb_set 16
core_0_dtlb_way 4
core_0_dtlb_rq_size 16
core_0_dtlb_wq_size 16
core_0_dtlb_pq_size 0
core_0_dtlb_mshr_size 8
core_0_dtlb_hit_latency 1
core_0_dtlb_fill_latency 1
core_0_dtlb_max_tag_check 2
core_0_dtlb_max_fill 2
core_0_stlb_set 128
core_0_stlb_way 12
core_0_stlb_rq_size 32
core_0_stlb_wq_size 32
core_0_stlb_pq_size 0
core_0_stlb_mshr_size 16
core_0_stlb_hit_latency 4
core_0_stlb_fill_latency 4
core_0_stlb_max_tag_check 1
core_0_stlb_max_fill 1
core_0_l1i_set 64
core_0_l1i_way 8
core_0_l1i_rq_size 64
core_0_l1i_wq_size 64
core_0_l1i_pq_size 32
core_0_l1i_mshr_size 8
core_0_l1i_hit_latency 2
core_0_l1i_fill_latency 2
core_0_l1i_max_tag_check 2
core_0_l1i_max_fill 2
core_0_l1d_set 64
core_0_l1d_way 12
core_0_l1d_rq_size 64
core_0_l1d_wq_size 64
core_0_l1d_pq_size 8
core_0_l1d_mshr_size 16
core_0_l1d_hit_latency 2
core_0_l1d_fill_latency 3
core_0_l1d_max_tag_check 2
core_0_l1d_max_fill 2
core_0_l2c_set 1024
core_0_l2c_way 8
core_0_l2c_rq_size 32
core_0_l2c_wq_size 32
core_0_l2c_pq_size 16
core_0_l2c_mshr_size 32
core_0_l2c_hit_latency 5
core_0_l2c_fill_latency 5
core_0_l2c_max_tag_check 1
core_0_l2c_max_fill 1
llc_set 2048
llc_way 16
llc_rq_size 32
llc_wq_size 32
llc_pq_size 32
llc_mshr_size 64
llc_hit_latency 10
llc_fill_latency 10
llc_max_tag_check 1
llc_max_fill 1
dram_channels 1
dram_ranks 1
dram_bankgroups 8
dram_banks 4
dram_rows 65536
dram_columns 1024
dram_channel_width 8
dram_rq_size 64
dram_wq_size 64
dram_size 17179869184
core_0_itlb_prefetcher no
core_0_dtlb_prefetcher no
core_0_stlb_prefetcher no
core_0_l1i_prefetcher next_line
core_0_l1d_prefetcher vberti
core_0_l2c_prefetcher ip_stride
llc_prefetcher no
llc_replacement drrip

Core_0_instructions 50000002
Core_0_cycles 83552974
Core_0_IPC 0.598423
Core_0_branch_prediction_accuracy 99.0173
Core_0_branch_MPKI 1.12992
Core_0_average_ROB_occupancy_at_mispredict 177.817

Core_0_ITLB_total_access 7055714
Core_0_ITLB_total_hit 7055714
Core_0_ITLB_total_miss 0
Core_0_ITLB_total_MPKI 0
Core_0_ITLB_total_miss_rate 0
Core_0_ITLB_demand_access 7055714
Core_0_ITLB_demand_hit 7055714
Core_0_ITLB_demand_miss 0
Core_0_ITLB_demand_MPKI 0
Core_0_ITLB_demand_miss_rate 0
Core_0_ITLB_load_access 7055714
Core_0_ITLB_load_hit 7055714
Core_0_ITLB_load_miss 0
Core_0_ITLB_load_MPKI 0
Core_0_ITLB_load_miss_rate 0
Core_0_ITLB_rfo_access 0
Core_0_ITLB_rfo_hit 0
Core_0_ITLB_rfo_miss 0
Core_0_ITLB_rfo_MPKI 0
Core_0_ITLB_rfo_miss_rate 0
Core_0_ITLB_prefetch_access 0
Core_0_ITLB_prefetch_hit 0
Core_0_ITLB_prefetch_miss 0
Core_0_ITLB_prefetch_MPKI 0
Core_0_ITLB_prefetch_miss_rate 0
Core_0_ITLB_writeback_access 0
Core_0_ITLB_writeback_hit 0
Core_0_ITLB_writeback_miss 0
Core_0_ITLB_writeback_MPKI 0
Core_0_ITLB_writeback_miss_rate 0
Core_0_ITLB_prefetch_requested 0
Core_0_ITLB_prefetch_issued 0
Core_0_ITLB_prefetch_useful 0
Core_0_ITLB_prefetch_useless 0
Core_0_ITLB_prefetch_late 0
Core_0_ITLB_prefetch_accuracy 0
Core_0_ITLB_prefetch_coverage 0

Core_0_DTLB_total_access 29664716
Core_0_DTLB_total_hit 29400860
Core_0_DTLB_total_miss 263856
Core_0_DTLB_total_MPKI 5.27712
Core_0_DTLB_total_miss_rate 0.00889461
Core_0_DTLB_demand_access 29664716
Core_0_DTLB_demand_hit 29400860
Core_0_DTLB_demand_miss 263856
Core_0_DTLB_demand_MPKI 5.27712
Core_0_DTLB_demand_miss_rate 0.00889461
Core_0_DTLB_load_access 29664716
Core_0_DTLB_load_hit 29400860
Core_0_DTLB_load_miss 263856
Core_0_DTLB_load_MPKI 5.27712
Core_0_DTLB_load_miss_rate 0.00889461
Core_0_DTLB_rfo_access 0
Core_0_DTLB_rfo_hit 0
Core_0_DTLB_rfo_miss 0
Core_0_DTLB_rfo_MPKI 0
Core_0_DTLB_rfo_miss_rate 0
Core_0_DTLB_prefetch_access 0
Core_0_DTLB_prefetch_hit 0
Core_0_DTLB_prefetch_miss 0
Core_0_DTLB_prefetch_MPKI 0
Core_0_DTLB_prefetch_miss_rate 0
Core_0_DTLB_writeback_access 0
Core_0_DTLB_writeback_hit 0
Core_0_DTLB_writeback_miss 0
Core_0_DTLB_writeback_MPKI 0
Core_0_DTLB_writeback_miss_rate 0
Core_0_DTLB_prefetch_requested 0
Core_0_DTLB_prefetch_issued 0
Core_0_DTLB_prefetch_useful 0
Core_0_DTLB_prefetch_useless 0
Core_0_DTLB_prefetch_late 0
Core_0_DTLB_prefetch_accuracy 0
Core_0_DTLB_prefetch_coverage 0

Core_0_STLB_total_access 153303
Core_0_STLB_total_hit 86307
Core_0_STLB_total_miss 66996
Core_0_STLB_total_MPKI 1.33992
Core_0_STLB_total_miss_rate 0.437017
Core_0_STLB_demand_access 153303
Core_0_STLB_demand_hit 86307
Core_0_STLB_demand_miss 66996
Core_0_STLB_demand_MPKI 1.33992
Core_0_STLB_demand_miss_rate 0.437017
Core_0_STLB_load_access 153303
Core_0_STLB_load_hit 86307
Core_0_STLB_load_miss 66996
Core_0_STLB_load_MPKI 1.33992
Core_0_STLB_load_miss_rate 0.437017
Core_0_STLB_rfo_access 0
Core_0_STLB_rfo_hit 0
Core_0_STLB_rfo_miss 0
Core_0_STLB_rfo_MPKI 0
Core_0_STLB_rfo_miss_rate 0
Core_0_STLB_prefetch_access 0
Core_0_STLB_prefetch_hit 0
Core_0_STLB_prefetch_miss 0
Core_0_STLB_prefetch_MPKI 0
Core_0_STLB_prefetch_miss_rate 0
Core_0_STLB_writeback_access 0
Core_0_STLB_writeback_hit 0
Core_0_STLB_writeback_miss 0
Core_0_STLB_writeback_MPKI 0
Core_0_STLB_writeback_miss_rate 0
Core_0_STLB_prefetch_requested 0
Core_0_STLB_prefetch_issued 0
Core_0_STLB_prefetch_useful 0
Core_0_STLB_prefetch_useless 0
Core_0_STLB_prefetch_late 0
Core_0_STLB_prefetch_accuracy 0
Core_0_STLB_prefetch_coverage 0

Core_0_L1I_total_access 8256850
Core_0_L1I_total_hit 8256850
Core_0_L1I_total_miss 0
Core_0_L1I_total_MPKI 0
Core_0_L1I_total_miss_rate 0
Core_0_L1I_demand_access 8256850
Core_0_L1I_demand_hit 8256850
Core_0_L1I_demand_miss 0
Core_0_L1I_demand_MPKI 0
Core_0_L1I_demand_miss_rate 0
Core_0_L1I_load_access 8256850
Core_0_L1I_load_hit 8256850
Core_0_L1I_load_miss 0
Core_0_L1I_load_MPKI 0
Core_0_L1I_load_miss_rate 0
Core_0_L1I_rfo_access 0
Core_0_L1I_rfo_hit 0
Core_0_L1I_rfo_miss 0
Core_0_L1I_rfo_MPKI 0
Core_0_L1I_rfo_miss_rate 0
Core_0_L1I_prefetch_access 0
Core_0_L1I_prefetch_hit 0
Core_0_L1I_prefetch_miss 0
Core_0_L1I_prefetch_MPKI 0
Core_0_L1I_prefetch_miss_rate 0
Core_0_L1I_writeback_access 0
Core_0_L1I_writeback_hit 0
Core_0_L1I_writeback_miss 0
Core_0_L1I_writeback_MPKI 0
Core_0_L1I_writeback_miss_rate 0
Core_0_L1I_prefetch_requested 0
Core_0_L1I_prefetch_issued 0
Core_0_L1I_prefetch_useful 0
Core_0_L1I_prefetch_useless 0
Core_0_L1I_prefetch_late 0
Core_0_L1I_prefetch_accuracy 0
Core_0_L1I_prefetch_coverage 0

Core_0_L1D_total_access 34240547
Core_0_L1D_total_hit 27138777
Core_0_L1D_total_miss 7101770
Core_0_L1D_total_MPKI 142.035
Core_0_L1D_total_miss_rate 0.207408
Core_0_L1D_demand_access 12828879
Core_0_L1D_demand_hit 11396727
Core_0_L1D_demand_miss 1432152
Core_0_L1D_demand_MPKI 28.643
Core_0_L1D_demand_miss_rate 0.111635
Core_0_L1D_load_access 12828879
Core_0_L1D_load_hit 11396727
Core_0_L1D_load_miss 1432152
Core_0_L1D_load_MPKI 28.643
Core_0_L1D_load_miss_rate 0.111635
Core_0_L1D_rfo_access 0
Core_0_L1D_rfo_hit 0
Core_0_L1D_rfo_miss 0
Core_0_L1D_rfo_MPKI 0
Core_0_L1D_rfo_miss_rate 0
Core_0_L1D_prefetch_access 9307721
Core_0_L1D_prefetch_hit 3816020
Core_0_L1D_prefetch_miss 5491701
Core_0_L1D_prefetch_MPKI 109.834
Core_0_L1D_prefetch_miss_rate 0.590016
Core_0_L1D_writeback_access 12103947
Core_0_L1D_writeback_hit 11926030
Core_0_L1D_writeback_miss 177917
Core_0_L1D_writeback_MPKI 3.55834
Core_0_L1D_writeback_miss_rate 0.0146991
Core_0_L1D_prefetch_requested 44968571
Core_0_L1D_prefetch_issued 9307721
Core_0_L1D_prefetch_useful 1354149
Core_0_L1D_prefetch_useless 75860
Core_0_L1D_prefetch_late 184874
Core_0_L1D_prefetch_accuracy 0.145487
Core_0_L1D_prefetch_coverage 0.486002

Core_0_L2C_total_access 7391602
Core_0_L2C_total_hit 3023150
Core_0_L2C_total_miss 4368452
Core_0_L2C_total_MPKI 87.369
Core_0_L2C_total_miss_rate 0.591002
Core_0_L2C_demand_access 1192533
Core_0_L2C_demand_hit 717434
Core_0_L2C_demand_miss 475099
Core_0_L2C_demand_MPKI 9.50198
Core_0_L2C_demand_miss_rate 0.398395
Core_0_L2C_load_access 1132351
Core_0_L2C_load_hit 683082
Core_0_L2C_load_miss 449269
Core_0_L2C_load_MPKI 8.98538
Core_0_L2C_load_miss_rate 0.396758
Core_0_L2C_rfo_access 60182
Core_0_L2C_rfo_hit 34352
Core_0_L2C_rfo_miss 25830
Core_0_L2C_rfo_MPKI 0.5166
Core_0_L2C_rfo_miss_rate 0.429198
Core_0_L2C_prefetch_access 5920750
Core_0_L2C_prefetch_hit 2028831
Core_0_L2C_prefetch_miss 3891919
Core_0_L2C_prefetch_MPKI 77.8384
Core_0_L2C_prefetch_miss_rate 0.657335
Core_0_L2C_writeback_access 278319
Core_0_L2C_writeback_hit 276885
Core_0_L2C_writeback_miss 1434
Core_0_L2C_writeback_MPKI 0.02868
Core_0_L2C_writeback_miss_rate 0.00515236
Core_0_L2C_prefetch_requested 1056490
Core_0_L2C_prefetch_issued 651433
Core_0_L2C_prefetch_useful 58563
Core_0_L2C_prefetch_useless 29096
Core_0_L2C_prefetch_late 1501
Core_0_L2C_prefetch_accuracy 0.0898987
Core_0_L2C_prefetch_coverage 0.109738

Core_0_LLC_total_access 3276174
Core_0_LLC_total_hit 848643
Core_0_LLC_total_miss 2427531
Core_0_LLC_total_MPKI 48.5506
Core_0_LLC_total_miss_rate 0.740965
Core_0_LLC_demand_access 303452
Core_0_LLC_demand_hit 47282
Core_0_LLC_demand_miss 256170
Core_0_LLC_demand_MPKI 5.1234
Core_0_LLC_demand_miss_rate 0.844186
Core_0_LLC_load_access 280129
Core_0_LLC_load_hit 45978
Core_0_LLC_load_miss 234151
Core_0_LLC_load_MPKI 4.68302
Core_0_LLC_load_miss_rate 0.835868
Core_0_LLC_rfo_access 23323
Core_0_LLC_rfo_hit 1304
Core_0_LLC_rfo_miss 22019
Core_0_LLC_rfo_MPKI 0.44038
Core_0_LLC_rfo_miss_rate 0.94409
Core_0_LLC_prefetch_access 2727719
Core_0_LLC_prefetch_hit 757358
Core_0_LLC_prefetch_miss 1970361
Core_0_LLC_prefetch_MPKI 39.4072
Core_0_LLC_prefetch_miss_rate 0.722347
Core_0_LLC_writeback_access 245003
Core_0_LLC_writeback_hit 44003
Core_0_LLC_writeback_miss 201000
Core_0_LLC_writeback_MPKI 4.02
Core_0_LLC_writeback_miss_rate 0.820398
Core_0_LLC_prefetch_requested 0
Core_0_LLC_prefetch_issued 0
Core_0_LLC_prefetch_useful 0
Core_0_LLC_prefetch_useless 0
Core_0_LLC_prefetch_late 0
Core_0_LLC_prefetch_accuracy 0
Core_0_LLC_prefetch_coverage 0

[DRAM Statistics]
Channel_0_RQ_row_buffer_hit 127652
Channel_0_RQ_row_buffer_miss 2046098
Channel_0_WQ_row_buffer_hit 25075
Channel_0_WQ_row_buffer_miss 217996
Channel_0_WQ_full 0
Channel_0_dbus_congested 6260952
DRAM_total_RQ_row_buffer_hit 127652
DRAM_total_RQ_row_buffer_miss 2046098
DRAM_total_WQ_row_buffer_hit 25075
DRAM_total_WQ_row_buffer_miss 217996
DRAM_total_WQ_full 0
DRAM_total_dbus_congested 6260952
DRAM_avg_congested_cycle 5.36412

====== DRAM_RQ_TRAFFIC ========
DRAM_RQ_READ_TRAFFIC_BREAKDOWN:
data_demand_read.count = 254457
data_demand_read.share = 11.71%

inst_demand_read.count = 0
inst_demand_read.share = 0.00%

cache_inst_prefetch.count = 0
cache_inst_prefetch.share = 0.00%

cache_data_prefetch.count = 1911659
cache_data_prefetch.share = 87.94%

stlb_data_demand.count = 2012
stlb_data_demand.share = 0.09%

stlb_inst_demand.count = 0
stlb_inst_demand.share = 0.00%

stlb_l1i_pref.count = 0
stlb_l1i_pref.share = 0.00%

stlb_l1d_pref.count = 5633
stlb_l1d_pref.share = 0.26%

DRAM_RQ_READ_TRAFFIC_SUMMARY:
cache_demand.count = 254457
cache_demand.share = 11.71%

cache_prefetch.count = 1911659
cache_prefetch.share = 87.94%

stlb_demand.count = 2012
stlb_demand.share = 0.09%

stlb_prefetch.count = 5633
stlb_prefetch.share = 0.26%

DRAM_RQ_READ_TRAFFIC_DEBUG:
total_classified_read.count = 2173761
unclassified_read.count = 0
total_read_with_other.count = 2173761

classified_plus_unclassified_check.count = 2173761
dram_rq_read_total_observed.count = 2173761
dram_rq_read_total_observed.per_1K_instructions = 43.4752

STLB_MISS_PTW_DRAM_TOUCH_BREAKDOWN:
stlb_miss_total.count = 66996

stlb_miss_touch_dram.count = 7611
stlb_miss_touch_dram.share = 11.36%

stlb_miss_no_dram_touch.count = 59385
stlb_miss_no_dram_touch.share = 88.64%

STLB_MISS_PTW_DRAM_TOUCH_DEBUG:
stlb_miss_touch_plus_no_touch.count = 66996
stlb_miss_total_check.count = 66996

======STLB miss causes ========
Core_0_STLB_miss_cause_breakdown
Core_0_STLB_cause_Demand_Data_miss 8159
Core_0_STLB_cause_Demand_Data_miss_rate 0.0532214
Core_0_STLB_cause_Demand_Instruction_miss 0
Core_0_STLB_cause_Demand_Instruction_miss_rate 0
Core_0_STLB_cause_L1D_Prefetch_miss 58837
Core_0_STLB_cause_L1D_Prefetch_miss_rate 0.383795
Core_0_STLB_cause_L1I_Prefetch_miss 0
Core_0_STLB_cause_L1I_Prefetch_miss_rate 0
Core_0_STLB_cause_Other_miss 0
Core_0_STLB_cause_Other_miss_rate 0
Core_0_STLB_Demand_miss 8159
Core_0_STLB_Demand_miss_rate 0.0532214
Core_0_STLB_L1D_Prefetch_miss 58837
Core_0_STLB_L1D_Prefetch_miss_rate 0.383795
Core_0_STLB_Other_miss 0
Core_0_STLB_Other_miss_rate 0
BERTI TO_L1: 21649927 TO_L2: 35977242 TO_L2_BC_MSHR: 8709533
BERTI AVG_LAT: 113.168 NUM_TRACK_LATENCY: 3650404 NUM_CANT_TRACK_LATENCY: 16
BERTI CROSS_PAGE 17749790 NO_CROSS_PAGE: 39877379
BERTI FOUND_BERTI: 12905064 NO_FOUND_BERTI: 19975502
BERTI AVERAGE_ISSUED: 2.46033
