[VMEM] WARNING: physical memory size is smaller than virtual memory size.

*** ChampSim Multicore Out-of-Order Simulator ***
Warmup Instructions: 20000000
Simulation Instructions: 50000000
Number of CPUs: 1
Page size: 4096
Core 0: /data0/tzh/champsim_traces/QMM/srv_10_new.xz
VBerti Prefetcher
BERTI HASH ENTANGLING
BERTI IP MASK ffff
Off-chip DRAM Size: 16 GiB Channels: 1 Width: 64-bit Data Rate: 3205 MT/s
[BTB] WARNING: target of return is a lower address than the corresponding call. This is usually a problem with your trace.
[BTB] WARNING: target of return is a lower address than the corresponding call. This is usually a problem with your trace.
[BTB] WARNING: target of return is a lower address than the corresponding call. This is usually a problem with your trace.
[BTB] WARNING: target of return is a lower address than the corresponding call. This is usually a problem with your trace.
[BTB] WARNING: target of return is a lower address than the corresponding call. This is usually a problem with your trace.
[BTB] WARNING: target of return is a lower address than the corresponding call. This is usually a problem with your trace.
[BTB] WARNING: target of return is a lower address than the corresponding call. This is usually a problem with your trace.
[BTB] WARNING: target of return is a lower address than the corresponding call. This is usually a problem with your trace.
[BTB] WARNING: target of return is a lower address than the corresponding call. This is usually a problem with your trace.
[BTB] WARNING: target of return is a lower address than the corresponding call. This is usually a problem with your trace.
Warmup halting CPU 0 at instruction 20000003 cycle 4485638 for remainder of phase
Warmup finished CPU 0 instructions: 20000003 cycles: 4485638 cumulative IPC: 4.459 (Simulation time: 00 hr 01 min 05 sec)
Warmup complete CPU 0 instructions: 20000003 cycles: 4485638 cumulative IPC: 4.459 (Simulation time: 00 hr 01 min 05 sec)
*** Reached end of trace: (0, "/data0/tzh/champsim_traces/QMM/srv_10_new.xz")
*** Reached end of trace: (0, "/data0/tzh/champsim_traces/QMM/srv_10_new.xz")
Simulation finished CPU 0 instructions: 50000003 cycles: 30100180 cumulative IPC: 1.661 (Simulation time: 00 hr 06 min 05 sec)
Simulation complete CPU 0 instructions: 50000003 cycles: 30100180 cumulative IPC: 1.661 (Simulation time: 00 hr 06 min 05 sec)

ChampSim completed all CPUs

=== Simulation ===
CPU 0 runs /data0/tzh/champsim_traces/QMM/srv_10_new.xz

Region of Interest Statistics

CPU 0 cumulative IPC: 1.661 instructions: 50000003 cycles: 30100180
CPU 0 Branch Prediction Accuracy: 97.5% MPKI: 4.51 Average ROB Occupancy at Mispredict: 96.73
Branch type MPKI
BRANCH_DIRECT_JUMP: 0.3638
BRANCH_INDIRECT: 0.3203
BRANCH_CONDITIONAL: 2.391
BRANCH_DIRECT_CALL: 0.6967
BRANCH_INDIRECT_CALL: 0.1726
BRANCH_RETURN: 0.5663

cpu0->cpu0_STLB TOTAL        ACCESS:     810807 HIT:     694950 MISS:     115857 MSHR_MERGE:          0
cpu0->cpu0_STLB LOAD         ACCESS:     810807 HIT:     694950 MISS:     115857 MSHR_MERGE:          0
cpu0->cpu0_STLB RFO          ACCESS:          0 HIT:          0 MISS:          0 MSHR_MERGE:          0
cpu0->cpu0_STLB PREFETCH     ACCESS:          0 HIT:          0 MISS:          0 MSHR_MERGE:          0
cpu0->cpu0_STLB WRITE        ACCESS:          0 HIT:          0 MISS:          0 MSHR_MERGE:          0
cpu0->cpu0_STLB TRANSLATION  ACCESS:          0 HIT:          0 MISS:          0 MSHR_MERGE:          0
cpu0->cpu0_STLB PREFETCH REQUESTED:          0 ISSUED:          0 USEFUL:          0 USELESS:          0 LATE:          0
cpu0->cpu0_STLB AVERAGE MISS LATENCY: 30.08 cycles
cpu0->cpu0_L2C TOTAL        ACCESS:    2302526 HIT:    1271204 MISS:    1031322 MSHR_MERGE:       3257
cpu0->cpu0_L2C LOAD         ACCESS:    1821719 HIT:     925928 MISS:     895791 MSHR_MERGE:       1155
cpu0->cpu0_L2C RFO          ACCESS:      90080 HIT:      36052 MISS:      54028 MSHR_MERGE:          1
cpu0->cpu0_L2C PREFETCH     ACCESS:      31734 HIT:      15778 MISS:      15956 MSHR_MERGE:       2101
cpu0->cpu0_L2C WRITE        ACCESS:     261204 HIT:     260182 MISS:       1022 MSHR_MERGE:          0
cpu0->cpu0_L2C TRANSLATION  ACCESS:      97789 HIT:      33264 MISS:      64525 MSHR_MERGE:          0
cpu0->cpu0_L2C PREFETCH REQUESTED:      39163 ISSUED:      25348 USEFUL:       5319 USELESS:       4459 LATE:        241
cpu0->cpu0_L2C AVERAGE MISS LATENCY: 25.82 cycles
cpu0->cpu0_L1I TOTAL        ACCESS:    7647245 HIT:    5639758 MISS:    2007487 MSHR_MERGE:     746553
cpu0->cpu0_L1I LOAD         ACCESS:    7647245 HIT:    5639758 MISS:    2007487 MSHR_MERGE:     746553
cpu0->cpu0_L1I RFO          ACCESS:          0 HIT:          0 MISS:          0 MSHR_MERGE:          0
cpu0->cpu0_L1I PREFETCH     ACCESS:          0 HIT:          0 MISS:          0 MSHR_MERGE:          0
cpu0->cpu0_L1I WRITE        ACCESS:          0 HIT:          0 MISS:          0 MSHR_MERGE:          0
cpu0->cpu0_L1I TRANSLATION  ACCESS:          0 HIT:          0 MISS:          0 MSHR_MERGE:          0
cpu0->cpu0_L1I PREFETCH REQUESTED:          0 ISSUED:          0 USEFUL:          0 USELESS:          0 LATE:          0
cpu0->cpu0_L1I AVERAGE MISS LATENCY: 15.26 cycles
cpu0->cpu0_L1D TOTAL        ACCESS:   11844926 HIT:   10716485 MISS:    1128441 MSHR_MERGE:     372546
cpu0->cpu0_L1D LOAD         ACCESS:    6604479 HIT:    5846661 MISS:     757818 MSHR_MERGE:     197025
cpu0->cpu0_L1D RFO          ACCESS:          0 HIT:          0 MISS:          0 MSHR_MERGE:          0
cpu0->cpu0_L1D PREFETCH     ACCESS:      13821 HIT:       4692 MISS:       9129 MSHR_MERGE:       1902
cpu0->cpu0_L1D WRITE        ACCESS:    4969182 HIT:    4707285 MISS:     261897 MSHR_MERGE:     171811
cpu0->cpu0_L1D TRANSLATION  ACCESS:     257444 HIT:     157847 MISS:      99597 MSHR_MERGE:       1808
cpu0->cpu0_L1D PREFETCH REQUESTED:      82876 ISSUED:      13821 USEFUL:       1940 USELESS:        740 LATE:       1365
cpu0->cpu0_L1D AVERAGE MISS LATENCY: 31.05 cycles
cpu0->cpu0_ITLB TOTAL        ACCESS:    6451792 HIT:    5951684 MISS:     500108 MSHR_MERGE:     309559
cpu0->cpu0_ITLB LOAD         ACCESS:    6451792 HIT:    5951684 MISS:     500108 MSHR_MERGE:     309559
cpu0->cpu0_ITLB RFO          ACCESS:          0 HIT:          0 MISS:          0 MSHR_MERGE:          0
cpu0->cpu0_ITLB PREFETCH     ACCESS:          0 HIT:          0 MISS:          0 MSHR_MERGE:          0
cpu0->cpu0_ITLB WRITE        ACCESS:          0 HIT:          0 MISS:          0 MSHR_MERGE:          0
cpu0->cpu0_ITLB TRANSLATION  ACCESS:          0 HIT:          0 MISS:          0 MSHR_MERGE:          0
cpu0->cpu0_ITLB PREFETCH REQUESTED:          0 ISSUED:          0 USEFUL:          0 USELESS:          0 LATE:          0
cpu0->cpu0_ITLB AVERAGE MISS LATENCY: 10.94 cycles
cpu0->cpu0_DTLB TOTAL        ACCESS:   10932573 HIT:   10088787 MISS:     843786 MSHR_MERGE:     223528
cpu0->cpu0_DTLB LOAD         ACCESS:   10932573 HIT:   10088787 MISS:     843786 MSHR_MERGE:     223528
cpu0->cpu0_DTLB RFO          ACCESS:          0 HIT:          0 MISS:          0 MSHR_MERGE:          0
cpu0->cpu0_DTLB PREFETCH     ACCESS:          0 HIT:          0 MISS:          0 MSHR_MERGE:          0
cpu0->cpu0_DTLB WRITE        ACCESS:          0 HIT:          0 MISS:          0 MSHR_MERGE:          0
cpu0->cpu0_DTLB TRANSLATION  ACCESS:          0 HIT:          0 MISS:          0 MSHR_MERGE:          0
cpu0->cpu0_DTLB PREFETCH REQUESTED:          0 ISSUED:          0 USEFUL:          0 USELESS:          0 LATE:          0
cpu0->cpu0_DTLB AVERAGE MISS LATENCY: 8.993 cycles
cpu0->LLC TOTAL        ACCESS:    1183336 HIT:    1117520 MISS:      65816 MSHR_MERGE:          0
cpu0->LLC LOAD         ACCESS:     894636 HIT:     847012 MISS:      47624 MSHR_MERGE:          0
cpu0->LLC RFO          ACCESS:      54026 HIT:      42465 MISS:      11561 MSHR_MERGE:          0
cpu0->LLC PREFETCH     ACCESS:      13855 HIT:       9981 MISS:       3874 MSHR_MERGE:          0
cpu0->LLC WRITE        ACCESS:     156294 HIT:     154439 MISS:       1855 MSHR_MERGE:          0
cpu0->LLC TRANSLATION  ACCESS:      64525 HIT:      63623 MISS:        902 MSHR_MERGE:          0
cpu0->LLC PREFETCH REQUESTED:          0 ISSUED:          0 USEFUL:          0 USELESS:          0 LATE:          0
cpu0->LLC AVERAGE MISS LATENCY: 176.9 cycles

DRAM Statistics

Channel 0 RQ ROW_BUFFER_HIT:       1812
  ROW_BUFFER_MISS:      62147
  AVG DBUS CONGESTED CYCLE: 16.02
Channel 0 WQ ROW_BUFFER_HIT:      10121
  ROW_BUFFER_MISS:      41246
  FULL:          0
Channel 0 REFRESHES ISSUED:       2509

[ROI Statistics]
[System Configuration]
num_cpus 1
cpu_freq 4000
fetch_width 6
decode_width 6
dispatch_width 6
execute_width 6
lq_width 2
sq_width 2
retire_width 6
scheduler_size 128
branch_mispredict_penalty 15
rob_size 352
lq_size 128
sq_size 72
ifetch_buffer_size 64
decode_buffer_size 32
dispatch_buffer_size 32
register_file_size 288
decode_latency 1
dispatch_latency 1
schedule_latency 1
execute_latency 1
page_size 4096
block_size 64
core_0_itlb_set 16
core_0_itlb_way 4
core_0_itlb_rq_size 16
core_0_itlb_wq_size 16
core_0_itlb_pq_size 0
core_0_itlb_mshr_size 8
core_0_itlb_hit_latency 1
core_0_itlb_fill_latency 1
core_0_itlb_max_tag_check 2
core_0_itlb_max_fill 2
core_0_dtlb_set 16
core_0_dtlb_way 4
core_0_dtlb_rq_size 16
core_0_dtlb_wq_size 16
core_0_dtlb_pq_size 0
core_0_dtlb_mshr_size 8
core_0_dtlb_hit_latency 1
core_0_dtlb_fill_latency 1
core_0_dtlb_max_tag_check 2
core_0_dtlb_max_fill 2
core_0_stlb_set 128
core_0_stlb_way 12
core_0_stlb_rq_size 32
core_0_stlb_wq_size 32
core_0_stlb_pq_size 0
core_0_stlb_mshr_size 16
core_0_stlb_hit_latency 4
core_0_stlb_fill_latency 4
core_0_stlb_max_tag_check 1
core_0_stlb_max_fill 1
core_0_l1i_set 64
core_0_l1i_way 8
core_0_l1i_rq_size 64
core_0_l1i_wq_size 64
core_0_l1i_pq_size 32
core_0_l1i_mshr_size 8
core_0_l1i_hit_latency 2
core_0_l1i_fill_latency 2
core_0_l1i_max_tag_check 2
core_0_l1i_max_fill 2
core_0_l1d_set 64
core_0_l1d_way 12
core_0_l1d_rq_size 64
core_0_l1d_wq_size 64
core_0_l1d_pq_size 8
core_0_l1d_mshr_size 16
core_0_l1d_hit_latency 2
core_0_l1d_fill_latency 3
core_0_l1d_max_tag_check 2
core_0_l1d_max_fill 2
core_0_l2c_set 1024
core_0_l2c_way 8
core_0_l2c_rq_size 32
core_0_l2c_wq_size 32
core_0_l2c_pq_size 16
core_0_l2c_mshr_size 32
core_0_l2c_hit_latency 5
core_0_l2c_fill_latency 5
core_0_l2c_max_tag_check 1
core_0_l2c_max_fill 1
llc_set 2048
llc_way 16
llc_rq_size 32
llc_wq_size 32
llc_pq_size 32
llc_mshr_size 64
llc_hit_latency 10
llc_fill_latency 10
llc_max_tag_check 1
llc_max_fill 1
dram_channels 1
dram_ranks 1
dram_bankgroups 8
dram_banks 4
dram_rows 65536
dram_columns 1024
dram_channel_width 8
dram_rq_size 64
dram_wq_size 64
dram_size 17179869184
core_0_itlb_prefetcher no
core_0_dtlb_prefetcher no
core_0_stlb_prefetcher no
core_0_l1i_prefetcher next_line
core_0_l1d_prefetcher vberti
core_0_l2c_prefetcher ip_stride
llc_prefetcher no
llc_replacement drrip

Core_0_instructions 50000003
Core_0_cycles 30100180
Core_0_IPC 1.66112
Core_0_branch_prediction_accuracy 97.4953
Core_0_branch_MPKI 4.51026
Core_0_average_ROB_occupancy_at_mispredict 96.7333

Core_0_ITLB_total_access 6451792
Core_0_ITLB_total_hit 5951684
Core_0_ITLB_total_miss 500108
Core_0_ITLB_total_MPKI 10.0022
Core_0_ITLB_total_miss_rate 0.0775146
Core_0_ITLB_demand_access 6451792
Core_0_ITLB_demand_hit 5951684
Core_0_ITLB_demand_miss 500108
Core_0_ITLB_demand_MPKI 10.0022
Core_0_ITLB_demand_miss_rate 0.0775146
Core_0_ITLB_load_access 6451792
Core_0_ITLB_load_hit 5951684
Core_0_ITLB_load_miss 500108
Core_0_ITLB_load_MPKI 10.0022
Core_0_ITLB_load_miss_rate 0.0775146
Core_0_ITLB_rfo_access 0
Core_0_ITLB_rfo_hit 0
Core_0_ITLB_rfo_miss 0
Core_0_ITLB_rfo_MPKI 0
Core_0_ITLB_rfo_miss_rate 0
Core_0_ITLB_prefetch_access 0
Core_0_ITLB_prefetch_hit 0
Core_0_ITLB_prefetch_miss 0
Core_0_ITLB_prefetch_MPKI 0
Core_0_ITLB_prefetch_miss_rate 0
Core_0_ITLB_writeback_access 0
Core_0_ITLB_writeback_hit 0
Core_0_ITLB_writeback_miss 0
Core_0_ITLB_writeback_MPKI 0
Core_0_ITLB_writeback_miss_rate 0
Core_0_ITLB_prefetch_requested 0
Core_0_ITLB_prefetch_issued 0
Core_0_ITLB_prefetch_useful 0
Core_0_ITLB_prefetch_useless 0
Core_0_ITLB_prefetch_late 0
Core_0_ITLB_prefetch_accuracy 0
Core_0_ITLB_prefetch_coverage 0

Core_0_DTLB_total_access 10932573
Core_0_DTLB_total_hit 10088787
Core_0_DTLB_total_miss 843786
Core_0_DTLB_total_MPKI 16.8757
Core_0_DTLB_total_miss_rate 0.0771809
Core_0_DTLB_demand_access 10932573
Core_0_DTLB_demand_hit 10088787
Core_0_DTLB_demand_miss 843786
Core_0_DTLB_demand_MPKI 16.8757
Core_0_DTLB_demand_miss_rate 0.0771809
Core_0_DTLB_load_access 10932573
Core_0_DTLB_load_hit 10088787
Core_0_DTLB_load_miss 843786
Core_0_DTLB_load_MPKI 16.8757
Core_0_DTLB_load_miss_rate 0.0771809
Core_0_DTLB_rfo_access 0
Core_0_DTLB_rfo_hit 0
Core_0_DTLB_rfo_miss 0
Core_0_DTLB_rfo_MPKI 0
Core_0_DTLB_rfo_miss_rate 0
Core_0_DTLB_prefetch_access 0
Core_0_DTLB_prefetch_hit 0
Core_0_DTLB_prefetch_miss 0
Core_0_DTLB_prefetch_MPKI 0
Core_0_DTLB_prefetch_miss_rate 0
Core_0_DTLB_writeback_access 0
Core_0_DTLB_writeback_hit 0
Core_0_DTLB_writeback_miss 0
Core_0_DTLB_writeback_MPKI 0
Core_0_DTLB_writeback_miss_rate 0
Core_0_DTLB_prefetch_requested 0
Core_0_DTLB_prefetch_issued 0
Core_0_DTLB_prefetch_useful 0
Core_0_DTLB_prefetch_useless 0
Core_0_DTLB_prefetch_late 0
Core_0_DTLB_prefetch_accuracy 0
Core_0_DTLB_prefetch_coverage 0

Core_0_STLB_total_access 810807
Core_0_STLB_total_hit 694950
Core_0_STLB_total_miss 115857
Core_0_STLB_total_MPKI 2.31714
Core_0_STLB_total_miss_rate 0.142891
Core_0_STLB_demand_access 810807
Core_0_STLB_demand_hit 694950
Core_0_STLB_demand_miss 115857
Core_0_STLB_demand_MPKI 2.31714
Core_0_STLB_demand_miss_rate 0.142891
Core_0_STLB_load_access 810807
Core_0_STLB_load_hit 694950
Core_0_STLB_load_miss 115857
Core_0_STLB_load_MPKI 2.31714
Core_0_STLB_load_miss_rate 0.142891
Core_0_STLB_rfo_access 0
Core_0_STLB_rfo_hit 0
Core_0_STLB_rfo_miss 0
Core_0_STLB_rfo_MPKI 0
Core_0_STLB_rfo_miss_rate 0
Core_0_STLB_prefetch_access 0
Core_0_STLB_prefetch_hit 0
Core_0_STLB_prefetch_miss 0
Core_0_STLB_prefetch_MPKI 0
Core_0_STLB_prefetch_miss_rate 0
Core_0_STLB_writeback_access 0
Core_0_STLB_writeback_hit 0
Core_0_STLB_writeback_miss 0
Core_0_STLB_writeback_MPKI 0
Core_0_STLB_writeback_miss_rate 0
Core_0_STLB_prefetch_requested 0
Core_0_STLB_prefetch_issued 0
Core_0_STLB_prefetch_useful 0
Core_0_STLB_prefetch_useless 0
Core_0_STLB_prefetch_late 0
Core_0_STLB_prefetch_accuracy 0
Core_0_STLB_prefetch_coverage 0

Core_0_L1I_total_access 7647245
Core_0_L1I_total_hit 5639758
Core_0_L1I_total_miss 2007487
Core_0_L1I_total_MPKI 40.1497
Core_0_L1I_total_miss_rate 0.262511
Core_0_L1I_demand_access 7647245
Core_0_L1I_demand_hit 5639758
Core_0_L1I_demand_miss 2007487
Core_0_L1I_demand_MPKI 40.1497
Core_0_L1I_demand_miss_rate 0.262511
Core_0_L1I_load_access 7647245
Core_0_L1I_load_hit 5639758
Core_0_L1I_load_miss 2007487
Core_0_L1I_load_MPKI 40.1497
Core_0_L1I_load_miss_rate 0.262511
Core_0_L1I_rfo_access 0
Core_0_L1I_rfo_hit 0
Core_0_L1I_rfo_miss 0
Core_0_L1I_rfo_MPKI 0
Core_0_L1I_rfo_miss_rate 0
Core_0_L1I_prefetch_access 0
Core_0_L1I_prefetch_hit 0
Core_0_L1I_prefetch_miss 0
Core_0_L1I_prefetch_MPKI 0
Core_0_L1I_prefetch_miss_rate 0
Core_0_L1I_writeback_access 0
Core_0_L1I_writeback_hit 0
Core_0_L1I_writeback_miss 0
Core_0_L1I_writeback_MPKI 0
Core_0_L1I_writeback_miss_rate 0
Core_0_L1I_prefetch_requested 0
Core_0_L1I_prefetch_issued 0
Core_0_L1I_prefetch_useful 0
Core_0_L1I_prefetch_useless 0
Core_0_L1I_prefetch_late 0
Core_0_L1I_prefetch_accuracy 0
Core_0_L1I_prefetch_coverage 0

Core_0_L1D_total_access 11587482
Core_0_L1D_total_hit 10558638
Core_0_L1D_total_miss 1028844
Core_0_L1D_total_MPKI 20.5769
Core_0_L1D_total_miss_rate 0.0887893
Core_0_L1D_demand_access 6604479
Core_0_L1D_demand_hit 5846661
Core_0_L1D_demand_miss 757818
Core_0_L1D_demand_MPKI 15.1564
Core_0_L1D_demand_miss_rate 0.114743
Core_0_L1D_load_access 6604479
Core_0_L1D_load_hit 5846661
Core_0_L1D_load_miss 757818
Core_0_L1D_load_MPKI 15.1564
Core_0_L1D_load_miss_rate 0.114743
Core_0_L1D_rfo_access 0
Core_0_L1D_rfo_hit 0
Core_0_L1D_rfo_miss 0
Core_0_L1D_rfo_MPKI 0
Core_0_L1D_rfo_miss_rate 0
Core_0_L1D_prefetch_access 13821
Core_0_L1D_prefetch_hit 4692
Core_0_L1D_prefetch_miss 9129
Core_0_L1D_prefetch_MPKI 0.18258
Core_0_L1D_prefetch_miss_rate 0.660517
Core_0_L1D_writeback_access 4969182
Core_0_L1D_writeback_hit 4707285
Core_0_L1D_writeback_miss 261897
Core_0_L1D_writeback_MPKI 5.23794
Core_0_L1D_writeback_miss_rate 0.0527042
Core_0_L1D_prefetch_requested 82876
Core_0_L1D_prefetch_issued 13821
Core_0_L1D_prefetch_useful 1940
Core_0_L1D_prefetch_useless 740
Core_0_L1D_prefetch_late 1365
Core_0_L1D_prefetch_accuracy 0.140366
Core_0_L1D_prefetch_coverage 0.00255344

Core_0_L2C_total_access 2204737
Core_0_L2C_total_hit 1237940
Core_0_L2C_total_miss 966797
Core_0_L2C_total_MPKI 19.3359
Core_0_L2C_total_miss_rate 0.438509
Core_0_L2C_demand_access 1911799
Core_0_L2C_demand_hit 961980
Core_0_L2C_demand_miss 949819
Core_0_L2C_demand_MPKI 18.9964
Core_0_L2C_demand_miss_rate 0.496819
Core_0_L2C_load_access 1821719
Core_0_L2C_load_hit 925928
Core_0_L2C_load_miss 895791
Core_0_L2C_load_MPKI 17.9158
Core_0_L2C_load_miss_rate 0.491728
Core_0_L2C_rfo_access 90080
Core_0_L2C_rfo_hit 36052
Core_0_L2C_rfo_miss 54028
Core_0_L2C_rfo_MPKI 1.08056
Core_0_L2C_rfo_miss_rate 0.599778
Core_0_L2C_prefetch_access 31734
Core_0_L2C_prefetch_hit 15778
Core_0_L2C_prefetch_miss 15956
Core_0_L2C_prefetch_MPKI 0.31912
Core_0_L2C_prefetch_miss_rate 0.502805
Core_0_L2C_writeback_access 261204
Core_0_L2C_writeback_hit 260182
Core_0_L2C_writeback_miss 1022
Core_0_L2C_writeback_MPKI 0.02044
Core_0_L2C_writeback_miss_rate 0.00391265
Core_0_L2C_prefetch_requested 39163
Core_0_L2C_prefetch_issued 25348
Core_0_L2C_prefetch_useful 5319
Core_0_L2C_prefetch_useless 4459
Core_0_L2C_prefetch_late 241
Core_0_L2C_prefetch_accuracy 0.209839
Core_0_L2C_prefetch_coverage 0.00556883

Core_0_LLC_total_access 1118811
Core_0_LLC_total_hit 1053897
Core_0_LLC_total_miss 64914
Core_0_LLC_total_MPKI 1.29828
Core_0_LLC_total_miss_rate 0.0580205
Core_0_LLC_demand_access 948662
Core_0_LLC_demand_hit 889477
Core_0_LLC_demand_miss 59185
Core_0_LLC_demand_MPKI 1.1837
Core_0_LLC_demand_miss_rate 0.0623879
Core_0_LLC_load_access 894636
Core_0_LLC_load_hit 847012
Core_0_LLC_load_miss 47624
Core_0_LLC_load_MPKI 0.95248
Core_0_LLC_load_miss_rate 0.0532328
Core_0_LLC_rfo_access 54026
Core_0_LLC_rfo_hit 42465
Core_0_LLC_rfo_miss 11561
Core_0_LLC_rfo_MPKI 0.23122
Core_0_LLC_rfo_miss_rate 0.21399
Core_0_LLC_prefetch_access 13855
Core_0_LLC_prefetch_hit 9981
Core_0_LLC_prefetch_miss 3874
Core_0_LLC_prefetch_MPKI 0.07748
Core_0_LLC_prefetch_miss_rate 0.27961
Core_0_LLC_writeback_access 156294
Core_0_LLC_writeback_hit 154439
Core_0_LLC_writeback_miss 1855
Core_0_LLC_writeback_MPKI 0.0371
Core_0_LLC_writeback_miss_rate 0.0118687
Core_0_LLC_prefetch_requested 0
Core_0_LLC_prefetch_issued 0
Core_0_LLC_prefetch_useful 0
Core_0_LLC_prefetch_useless 0
Core_0_LLC_prefetch_late 0
Core_0_LLC_prefetch_accuracy 0
Core_0_LLC_prefetch_coverage 0

[DRAM Statistics]
Channel_0_RQ_row_buffer_hit 1812
Channel_0_RQ_row_buffer_miss 62147
Channel_0_WQ_row_buffer_hit 10121
Channel_0_WQ_row_buffer_miss 41246
Channel_0_WQ_full 0
Channel_0_dbus_congested 346541
DRAM_total_RQ_row_buffer_hit 1812
DRAM_total_RQ_row_buffer_miss 62147
DRAM_total_WQ_row_buffer_hit 10121
DRAM_total_WQ_row_buffer_miss 41246
DRAM_total_WQ_full 0
DRAM_total_dbus_congested 346541
DRAM_avg_congested_cycle 16.0185

====== DRAM_RQ_TRAFFIC ========
DRAM_RQ_READ_TRAFFIC_BREAKDOWN:
data_demand_read.count = 55610
data_demand_read.share = 86.94%

inst_demand_read.count = 3575
inst_demand_read.share = 5.59%

cache_inst_prefetch.count = 0
cache_inst_prefetch.share = 0.00%

cache_data_prefetch.count = 3874
cache_data_prefetch.share = 6.06%

stlb_data_demand.count = 833
stlb_data_demand.share = 1.30%

stlb_inst_demand.count = 69
stlb_inst_demand.share = 0.11%

stlb_l1i_pref.count = 0
stlb_l1i_pref.share = 0.00%

stlb_l1d_pref.count = 0
stlb_l1d_pref.share = 0.00%

DRAM_RQ_READ_TRAFFIC_SUMMARY:
cache_demand.count = 59185
cache_demand.share = 92.53%

cache_prefetch.count = 3874
cache_prefetch.share = 6.06%

stlb_demand.count = 902
stlb_demand.share = 1.41%

stlb_prefetch.count = 0
stlb_prefetch.share = 0.00%

DRAM_RQ_READ_TRAFFIC_DEBUG:
total_classified_read.count = 63961
unclassified_read.count = 0
total_read_with_other.count = 63961

classified_plus_unclassified_check.count = 63961
dram_rq_read_total_observed.count = 63961
dram_rq_read_total_observed.per_1K_instructions = 1.27922

STLB_MISS_PTW_DRAM_TOUCH_BREAKDOWN:
stlb_miss_total.count = 115857

stlb_miss_touch_dram.count = 862
stlb_miss_touch_dram.share = 0.74%

stlb_miss_no_dram_touch.count = 114995
stlb_miss_no_dram_touch.share = 99.26%

STLB_MISS_PTW_DRAM_TOUCH_DEBUG:
stlb_miss_touch_plus_no_touch.count = 115857
stlb_miss_total_check.count = 115857

======STLB miss causes ========
Core_0_STLB_miss_cause_breakdown
Core_0_STLB_cause_Demand_Data_miss 72186
Core_0_STLB_cause_Demand_Data_miss_rate 0.0890298
Core_0_STLB_cause_Demand_Instruction_miss 43568
Core_0_STLB_cause_Demand_Instruction_miss_rate 0.0537341
Core_0_STLB_cause_L1D_Prefetch_miss 103
Core_0_STLB_cause_L1D_Prefetch_miss_rate 0.000127034
Core_0_STLB_cause_L1I_Prefetch_miss 0
Core_0_STLB_cause_L1I_Prefetch_miss_rate 0
Core_0_STLB_cause_Other_miss 0
Core_0_STLB_cause_Other_miss_rate 0
Core_0_STLB_Demand_miss 115754
Core_0_STLB_Demand_miss_rate 0.142764
Core_0_STLB_L1D_Prefetch_miss 103
Core_0_STLB_L1D_Prefetch_miss_rate 0.000127034
Core_0_STLB_Other_miss 0
Core_0_STLB_Other_miss_rate 0
BERTI TO_L1: 121444 TO_L2: 104921 TO_L2_BC_MSHR: 7746
BERTI AVG_LAT: 25.1377 NUM_TRACK_LATENCY: 915442 NUM_CANT_TRACK_LATENCY: 0
BERTI CROSS_PAGE 29342 NO_CROSS_PAGE: 197023
BERTI FOUND_BERTI: 524937 NO_FOUND_BERTI: 14944233
BERTI AVERAGE_ISSUED: 2.05915
