[VMEM] WARNING: physical memory size is smaller than virtual memory size.

*** ChampSim Multicore Out-of-Order Simulator ***
Warmup Instructions: 20000000
Simulation Instructions: 50000000
Number of CPUs: 1
Page size: 4096
Core 0: /data0/tzh/champsim_traces/QMM/srv_61_new.xz
VBerti Prefetcher
BERTI HASH ENTANGLING
BERTI IP MASK ffff
Off-chip DRAM Size: 16 GiB Channels: 1 Width: 64-bit Data Rate: 3205 MT/s
[BTB] WARNING: target of return is a lower address than the corresponding call. This is usually a problem with your trace.
[BTB] WARNING: target of return is a lower address than the corresponding call. This is usually a problem with your trace.
[BTB] WARNING: target of return is a lower address than the corresponding call. This is usually a problem with your trace.
[BTB] WARNING: target of return is a lower address than the corresponding call. This is usually a problem with your trace.
[BTB] WARNING: target of return is a lower address than the corresponding call. This is usually a problem with your trace.
[BTB] WARNING: target of return is a lower address than the corresponding call. This is usually a problem with your trace.
[BTB] WARNING: target of return is a lower address than the corresponding call. This is usually a problem with your trace.
[BTB] WARNING: target of return is a lower address than the corresponding call. This is usually a problem with your trace.
[BTB] WARNING: target of return is a lower address than the corresponding call. This is usually a problem with your trace.
[BTB] WARNING: target of return is a lower address than the corresponding call. This is usually a problem with your trace.
Warmup halting CPU 0 at instruction 20000005 cycle 4509316 for remainder of phase
Warmup finished CPU 0 instructions: 20000005 cycles: 4509316 cumulative IPC: 4.435 (Simulation time: 00 hr 01 min 13 sec)
Warmup complete CPU 0 instructions: 20000005 cycles: 4509316 cumulative IPC: 4.435 (Simulation time: 00 hr 01 min 13 sec)
*** Reached end of trace: (0, "/data0/tzh/champsim_traces/QMM/srv_61_new.xz")
*** Reached end of trace: (0, "/data0/tzh/champsim_traces/QMM/srv_61_new.xz")
Simulation finished CPU 0 instructions: 50000003 cycles: 31915699 cumulative IPC: 1.567 (Simulation time: 00 hr 05 min 55 sec)
Simulation complete CPU 0 instructions: 50000003 cycles: 31915699 cumulative IPC: 1.567 (Simulation time: 00 hr 05 min 55 sec)

ChampSim completed all CPUs

=== Simulation ===
CPU 0 runs /data0/tzh/champsim_traces/QMM/srv_61_new.xz

Region of Interest Statistics

CPU 0 cumulative IPC: 1.567 instructions: 50000003 cycles: 31915699
CPU 0 Branch Prediction Accuracy: 97.24% MPKI: 4.991 Average ROB Occupancy at Mispredict: 90.37
Branch type MPKI
BRANCH_DIRECT_JUMP: 0.4183
BRANCH_INDIRECT: 0.3555
BRANCH_CONDITIONAL: 2.704
BRANCH_DIRECT_CALL: 0.7413
BRANCH_INDIRECT_CALL: 0.1837
BRANCH_RETURN: 0.5882

cpu0->cpu0_STLB TOTAL        ACCESS:     812684 HIT:     698210 MISS:     114474 MSHR_MERGE:          0
cpu0->cpu0_STLB LOAD         ACCESS:     812684 HIT:     698210 MISS:     114474 MSHR_MERGE:          0
cpu0->cpu0_STLB RFO          ACCESS:          0 HIT:          0 MISS:          0 MSHR_MERGE:          0
cpu0->cpu0_STLB PREFETCH     ACCESS:          0 HIT:          0 MISS:          0 MSHR_MERGE:          0
cpu0->cpu0_STLB WRITE        ACCESS:          0 HIT:          0 MISS:          0 MSHR_MERGE:          0
cpu0->cpu0_STLB TRANSLATION  ACCESS:          0 HIT:          0 MISS:          0 MSHR_MERGE:          0
cpu0->cpu0_STLB PREFETCH REQUESTED:          0 ISSUED:          0 USEFUL:          0 USELESS:          0 LATE:          0
cpu0->cpu0_STLB AVERAGE MISS LATENCY: 30.42 cycles
cpu0->cpu0_L2C TOTAL        ACCESS:    2339031 HIT:    1283171 MISS:    1055860 MSHR_MERGE:       2375
cpu0->cpu0_L2C LOAD         ACCESS:    1866086 HIT:     937703 MISS:     928383 MSHR_MERGE:        501
cpu0->cpu0_L2C RFO          ACCESS:      88251 HIT:      37282 MISS:      50969 MSHR_MERGE:          6
cpu0->cpu0_L2C PREFETCH     ACCESS:      29401 HIT:      16298 MISS:      13103 MSHR_MERGE:       1868
cpu0->cpu0_L2C WRITE        ACCESS:     258894 HIT:     257115 MISS:       1779 MSHR_MERGE:          0
cpu0->cpu0_L2C TRANSLATION  ACCESS:      96399 HIT:      34773 MISS:      61626 MSHR_MERGE:          0
cpu0->cpu0_L2C PREFETCH REQUESTED:      37683 ISSUED:      25479 USEFUL:       4709 USELESS:       4742 LATE:        240
cpu0->cpu0_L2C AVERAGE MISS LATENCY: 26.9 cycles
cpu0->cpu0_L1I TOTAL        ACCESS:    7634142 HIT:    5571191 MISS:    2062951 MSHR_MERGE:     758134
cpu0->cpu0_L1I LOAD         ACCESS:    7634142 HIT:    5571191 MISS:    2062951 MSHR_MERGE:     758134
cpu0->cpu0_L1I RFO          ACCESS:          0 HIT:          0 MISS:          0 MSHR_MERGE:          0
cpu0->cpu0_L1I PREFETCH     ACCESS:          0 HIT:          0 MISS:          0 MSHR_MERGE:          0
cpu0->cpu0_L1I WRITE        ACCESS:          0 HIT:          0 MISS:          0 MSHR_MERGE:          0
cpu0->cpu0_L1I TRANSLATION  ACCESS:          0 HIT:          0 MISS:          0 MSHR_MERGE:          0
cpu0->cpu0_L1I PREFETCH REQUESTED:          0 ISSUED:          0 USEFUL:          0 USELESS:          0 LATE:          0
cpu0->cpu0_L1I AVERAGE MISS LATENCY: 15.31 cycles
cpu0->cpu0_L1D TOTAL        ACCESS:   11954857 HIT:   10855435 MISS:    1099422 MSHR_MERGE:     349116
cpu0->cpu0_L1D LOAD         ACCESS:    6673562 HIT:    5920915 MISS:     752647 MSHR_MERGE:     191370
cpu0->cpu0_L1D RFO          ACCESS:          0 HIT:          0 MISS:          0 MSHR_MERGE:          0
cpu0->cpu0_L1D PREFETCH     ACCESS:      41325 HIT:      36075 MISS:       5250 MSHR_MERGE:        878
cpu0->cpu0_L1D WRITE        ACCESS:    4986403 HIT:    4743086 MISS:     243317 MSHR_MERGE:     155059
cpu0->cpu0_L1D TRANSLATION  ACCESS:     253567 HIT:     155359 MISS:      98208 MSHR_MERGE:       1809
cpu0->cpu0_L1D PREFETCH REQUESTED:     102874 ISSUED:      41325 USEFUL:       1197 USELESS:        490 LATE:        269
cpu0->cpu0_L1D AVERAGE MISS LATENCY: 33.07 cycles
cpu0->cpu0_ITLB TOTAL        ACCESS:    6472158 HIT:    5965222 MISS:     506936 MSHR_MERGE:     311522
cpu0->cpu0_ITLB LOAD         ACCESS:    6472158 HIT:    5965222 MISS:     506936 MSHR_MERGE:     311522
cpu0->cpu0_ITLB RFO          ACCESS:          0 HIT:          0 MISS:          0 MSHR_MERGE:          0
cpu0->cpu0_ITLB PREFETCH     ACCESS:          0 HIT:          0 MISS:          0 MSHR_MERGE:          0
cpu0->cpu0_ITLB WRITE        ACCESS:          0 HIT:          0 MISS:          0 MSHR_MERGE:          0
cpu0->cpu0_ITLB TRANSLATION  ACCESS:          0 HIT:          0 MISS:          0 MSHR_MERGE:          0
cpu0->cpu0_ITLB PREFETCH REQUESTED:          0 ISSUED:          0 USEFUL:          0 USELESS:          0 LATE:          0
cpu0->cpu0_ITLB AVERAGE MISS LATENCY: 10.61 cycles
cpu0->cpu0_DTLB TOTAL        ACCESS:   11029052 HIT:   10189301 MISS:     839751 MSHR_MERGE:     222481
cpu0->cpu0_DTLB LOAD         ACCESS:   11029052 HIT:   10189301 MISS:     839751 MSHR_MERGE:     222481
cpu0->cpu0_DTLB RFO          ACCESS:          0 HIT:          0 MISS:          0 MSHR_MERGE:          0
cpu0->cpu0_DTLB PREFETCH     ACCESS:          0 HIT:          0 MISS:          0 MSHR_MERGE:          0
cpu0->cpu0_DTLB WRITE        ACCESS:          0 HIT:          0 MISS:          0 MSHR_MERGE:          0
cpu0->cpu0_DTLB TRANSLATION  ACCESS:          0 HIT:          0 MISS:          0 MSHR_MERGE:          0
cpu0->cpu0_DTLB PREFETCH REQUESTED:          0 ISSUED:          0 USEFUL:          0 USELESS:          0 LATE:          0
cpu0->cpu0_DTLB AVERAGE MISS LATENCY: 9.065 cycles
cpu0->LLC TOTAL        ACCESS:    1204378 HIT:    1131377 MISS:      73001 MSHR_MERGE:          0
cpu0->LLC LOAD         ACCESS:     927882 HIT:     873012 MISS:      54870 MSHR_MERGE:          0
cpu0->LLC RFO          ACCESS:      50963 HIT:      39691 MISS:      11272 MSHR_MERGE:          0
cpu0->LLC PREFETCH     ACCESS:      11235 HIT:       7805 MISS:       3430 MSHR_MERGE:          0
cpu0->LLC WRITE        ACCESS:     152672 HIT:     150475 MISS:       2197 MSHR_MERGE:          0
cpu0->LLC TRANSLATION  ACCESS:      61626 HIT:      60394 MISS:       1232 MSHR_MERGE:          0
cpu0->LLC PREFETCH REQUESTED:          0 ISSUED:          0 USEFUL:          0 USELESS:          0 LATE:          0
cpu0->LLC AVERAGE MISS LATENCY: 177.9 cycles

DRAM Statistics

Channel 0 RQ ROW_BUFFER_HIT:       1859
  ROW_BUFFER_MISS:      68944
  AVG DBUS CONGESTED CYCLE: 16.28
Channel 0 WQ ROW_BUFFER_HIT:      10587
  ROW_BUFFER_MISS:      42825
  FULL:          0
Channel 0 REFRESHES ISSUED:       2660

[ROI Statistics]
[System Configuration]
num_cpus 1
cpu_freq 4000
fetch_width 6
decode_width 6
dispatch_width 6
execute_width 6
lq_width 2
sq_width 2
retire_width 6
scheduler_size 128
branch_mispredict_penalty 15
rob_size 352
lq_size 128
sq_size 72
ifetch_buffer_size 64
decode_buffer_size 32
dispatch_buffer_size 32
register_file_size 288
decode_latency 1
dispatch_latency 1
schedule_latency 1
execute_latency 1
page_size 4096
block_size 64
core_0_itlb_set 16
core_0_itlb_way 4
core_0_itlb_rq_size 16
core_0_itlb_wq_size 16
core_0_itlb_pq_size 0
core_0_itlb_mshr_size 8
core_0_itlb_hit_latency 1
core_0_itlb_fill_latency 1
core_0_itlb_max_tag_check 2
core_0_itlb_max_fill 2
core_0_dtlb_set 16
core_0_dtlb_way 4
core_0_dtlb_rq_size 16
core_0_dtlb_wq_size 16
core_0_dtlb_pq_size 0
core_0_dtlb_mshr_size 8
core_0_dtlb_hit_latency 1
core_0_dtlb_fill_latency 1
core_0_dtlb_max_tag_check 2
core_0_dtlb_max_fill 2
core_0_stlb_set 128
core_0_stlb_way 12
core_0_stlb_rq_size 32
core_0_stlb_wq_size 32
core_0_stlb_pq_size 0
core_0_stlb_mshr_size 16
core_0_stlb_hit_latency 4
core_0_stlb_fill_latency 4
core_0_stlb_max_tag_check 1
core_0_stlb_max_fill 1
core_0_l1i_set 64
core_0_l1i_way 8
core_0_l1i_rq_size 64
core_0_l1i_wq_size 64
core_0_l1i_pq_size 32
core_0_l1i_mshr_size 8
core_0_l1i_hit_latency 2
core_0_l1i_fill_latency 2
core_0_l1i_max_tag_check 2
core_0_l1i_max_fill 2
core_0_l1d_set 64
core_0_l1d_way 12
core_0_l1d_rq_size 64
core_0_l1d_wq_size 64
core_0_l1d_pq_size 8
core_0_l1d_mshr_size 16
core_0_l1d_hit_latency 2
core_0_l1d_fill_latency 3
core_0_l1d_max_tag_check 2
core_0_l1d_max_fill 2
core_0_l2c_set 1024
core_0_l2c_way 8
core_0_l2c_rq_size 32
core_0_l2c_wq_size 32
core_0_l2c_pq_size 16
core_0_l2c_mshr_size 32
core_0_l2c_hit_latency 5
core_0_l2c_fill_latency 5
core_0_l2c_max_tag_check 1
core_0_l2c_max_fill 1
llc_set 2048
llc_way 16
llc_rq_size 32
llc_wq_size 32
llc_pq_size 32
llc_mshr_size 64
llc_hit_latency 10
llc_fill_latency 10
llc_max_tag_check 1
llc_max_fill 1
dram_channels 1
dram_ranks 1
dram_bankgroups 8
dram_banks 4
dram_rows 65536
dram_columns 1024
dram_channel_width 8
dram_rq_size 64
dram_wq_size 64
dram_size 17179869184
core_0_itlb_prefetcher no
core_0_dtlb_prefetcher no
core_0_stlb_prefetcher no
core_0_l1i_prefetcher next_line
core_0_l1d_prefetcher vberti
core_0_l2c_prefetcher ip_stride
llc_prefetcher no
llc_replacement drrip

Core_0_instructions 50000003
Core_0_cycles 31915699
Core_0_IPC 1.56663
Core_0_branch_prediction_accuracy 97.2421
Core_0_branch_MPKI 4.9908
Core_0_average_ROB_occupancy_at_mispredict 90.3682

Core_0_ITLB_total_access 6472158
Core_0_ITLB_total_hit 5965222
Core_0_ITLB_total_miss 506936
Core_0_ITLB_total_MPKI 10.1387
Core_0_ITLB_total_miss_rate 0.0783257
Core_0_ITLB_demand_access 6472158
Core_0_ITLB_demand_hit 5965222
Core_0_ITLB_demand_miss 506936
Core_0_ITLB_demand_MPKI 10.1387
Core_0_ITLB_demand_miss_rate 0.0783257
Core_0_ITLB_load_access 6472158
Core_0_ITLB_load_hit 5965222
Core_0_ITLB_load_miss 506936
Core_0_ITLB_load_MPKI 10.1387
Core_0_ITLB_load_miss_rate 0.0783257
Core_0_ITLB_rfo_access 0
Core_0_ITLB_rfo_hit 0
Core_0_ITLB_rfo_miss 0
Core_0_ITLB_rfo_MPKI 0
Core_0_ITLB_rfo_miss_rate 0
Core_0_ITLB_prefetch_access 0
Core_0_ITLB_prefetch_hit 0
Core_0_ITLB_prefetch_miss 0
Core_0_ITLB_prefetch_MPKI 0
Core_0_ITLB_prefetch_miss_rate 0
Core_0_ITLB_writeback_access 0
Core_0_ITLB_writeback_hit 0
Core_0_ITLB_writeback_miss 0
Core_0_ITLB_writeback_MPKI 0
Core_0_ITLB_writeback_miss_rate 0
Core_0_ITLB_prefetch_requested 0
Core_0_ITLB_prefetch_issued 0
Core_0_ITLB_prefetch_useful 0
Core_0_ITLB_prefetch_useless 0
Core_0_ITLB_prefetch_late 0
Core_0_ITLB_prefetch_accuracy 0
Core_0_ITLB_prefetch_coverage 0

Core_0_DTLB_total_access 11029052
Core_0_DTLB_total_hit 10189301
Core_0_DTLB_total_miss 839751
Core_0_DTLB_total_MPKI 16.795
Core_0_DTLB_total_miss_rate 0.0761399
Core_0_DTLB_demand_access 11029052
Core_0_DTLB_demand_hit 10189301
Core_0_DTLB_demand_miss 839751
Core_0_DTLB_demand_MPKI 16.795
Core_0_DTLB_demand_miss_rate 0.0761399
Core_0_DTLB_load_access 11029052
Core_0_DTLB_load_hit 10189301
Core_0_DTLB_load_miss 839751
Core_0_DTLB_load_MPKI 16.795
Core_0_DTLB_load_miss_rate 0.0761399
Core_0_DTLB_rfo_access 0
Core_0_DTLB_rfo_hit 0
Core_0_DTLB_rfo_miss 0
Core_0_DTLB_rfo_MPKI 0
Core_0_DTLB_rfo_miss_rate 0
Core_0_DTLB_prefetch_access 0
Core_0_DTLB_prefetch_hit 0
Core_0_DTLB_prefetch_miss 0
Core_0_DTLB_prefetch_MPKI 0
Core_0_DTLB_prefetch_miss_rate 0
Core_0_DTLB_writeback_access 0
Core_0_DTLB_writeback_hit 0
Core_0_DTLB_writeback_miss 0
Core_0_DTLB_writeback_MPKI 0
Core_0_DTLB_writeback_miss_rate 0
Core_0_DTLB_prefetch_requested 0
Core_0_DTLB_prefetch_issued 0
Core_0_DTLB_prefetch_useful 0
Core_0_DTLB_prefetch_useless 0
Core_0_DTLB_prefetch_late 0
Core_0_DTLB_prefetch_accuracy 0
Core_0_DTLB_prefetch_coverage 0

Core_0_STLB_total_access 812684
Core_0_STLB_total_hit 698210
Core_0_STLB_total_miss 114474
Core_0_STLB_total_MPKI 2.28948
Core_0_STLB_total_miss_rate 0.140859
Core_0_STLB_demand_access 812684
Core_0_STLB_demand_hit 698210
Core_0_STLB_demand_miss 114474
Core_0_STLB_demand_MPKI 2.28948
Core_0_STLB_demand_miss_rate 0.140859
Core_0_STLB_load_access 812684
Core_0_STLB_load_hit 698210
Core_0_STLB_load_miss 114474
Core_0_STLB_load_MPKI 2.28948
Core_0_STLB_load_miss_rate 0.140859
Core_0_STLB_rfo_access 0
Core_0_STLB_rfo_hit 0
Core_0_STLB_rfo_miss 0
Core_0_STLB_rfo_MPKI 0
Core_0_STLB_rfo_miss_rate 0
Core_0_STLB_prefetch_access 0
Core_0_STLB_prefetch_hit 0
Core_0_STLB_prefetch_miss 0
Core_0_STLB_prefetch_MPKI 0
Core_0_STLB_prefetch_miss_rate 0
Core_0_STLB_writeback_access 0
Core_0_STLB_writeback_hit 0
Core_0_STLB_writeback_miss 0
Core_0_STLB_writeback_MPKI 0
Core_0_STLB_writeback_miss_rate 0
Core_0_STLB_prefetch_requested 0
Core_0_STLB_prefetch_issued 0
Core_0_STLB_prefetch_useful 0
Core_0_STLB_prefetch_useless 0
Core_0_STLB_prefetch_late 0
Core_0_STLB_prefetch_accuracy 0
Core_0_STLB_prefetch_coverage 0

Core_0_L1I_total_access 7634142
Core_0_L1I_total_hit 5571191
Core_0_L1I_total_miss 2062951
Core_0_L1I_total_MPKI 41.259
Core_0_L1I_total_miss_rate 0.270227
Core_0_L1I_demand_access 7634142
Core_0_L1I_demand_hit 5571191
Core_0_L1I_demand_miss 2062951
Core_0_L1I_demand_MPKI 41.259
Core_0_L1I_demand_miss_rate 0.270227
Core_0_L1I_load_access 7634142
Core_0_L1I_load_hit 5571191
Core_0_L1I_load_miss 2062951
Core_0_L1I_load_MPKI 41.259
Core_0_L1I_load_miss_rate 0.270227
Core_0_L1I_rfo_access 0
Core_0_L1I_rfo_hit 0
Core_0_L1I_rfo_miss 0
Core_0_L1I_rfo_MPKI 0
Core_0_L1I_rfo_miss_rate 0
Core_0_L1I_prefetch_access 0
Core_0_L1I_prefetch_hit 0
Core_0_L1I_prefetch_miss 0
Core_0_L1I_prefetch_MPKI 0
Core_0_L1I_prefetch_miss_rate 0
Core_0_L1I_writeback_access 0
Core_0_L1I_writeback_hit 0
Core_0_L1I_writeback_miss 0
Core_0_L1I_writeback_MPKI 0
Core_0_L1I_writeback_miss_rate 0
Core_0_L1I_prefetch_requested 0
Core_0_L1I_prefetch_issued 0
Core_0_L1I_prefetch_useful 0
Core_0_L1I_prefetch_useless 0
Core_0_L1I_prefetch_late 0
Core_0_L1I_prefetch_accuracy 0
Core_0_L1I_prefetch_coverage 0

Core_0_L1D_total_access 11701290
Core_0_L1D_total_hit 10700076
Core_0_L1D_total_miss 1001214
Core_0_L1D_total_MPKI 20.0243
Core_0_L1D_total_miss_rate 0.0855644
Core_0_L1D_demand_access 6673562
Core_0_L1D_demand_hit 5920915
Core_0_L1D_demand_miss 752647
Core_0_L1D_demand_MPKI 15.0529
Core_0_L1D_demand_miss_rate 0.11278
Core_0_L1D_load_access 6673562
Core_0_L1D_load_hit 5920915
Core_0_L1D_load_miss 752647
Core_0_L1D_load_MPKI 15.0529
Core_0_L1D_load_miss_rate 0.11278
Core_0_L1D_rfo_access 0
Core_0_L1D_rfo_hit 0
Core_0_L1D_rfo_miss 0
Core_0_L1D_rfo_MPKI 0
Core_0_L1D_rfo_miss_rate 0
Core_0_L1D_prefetch_access 41325
Core_0_L1D_prefetch_hit 36075
Core_0_L1D_prefetch_miss 5250
Core_0_L1D_prefetch_MPKI 0.105
Core_0_L1D_prefetch_miss_rate 0.127042
Core_0_L1D_writeback_access 4986403
Core_0_L1D_writeback_hit 4743086
Core_0_L1D_writeback_miss 243317
Core_0_L1D_writeback_MPKI 4.86634
Core_0_L1D_writeback_miss_rate 0.0487961
Core_0_L1D_prefetch_requested 102874
Core_0_L1D_prefetch_issued 41325
Core_0_L1D_prefetch_useful 1197
Core_0_L1D_prefetch_useless 490
Core_0_L1D_prefetch_late 269
Core_0_L1D_prefetch_accuracy 0.0289655
Core_0_L1D_prefetch_coverage 0.00158786

Core_0_L2C_total_access 2242632
Core_0_L2C_total_hit 1248398
Core_0_L2C_total_miss 994234
Core_0_L2C_total_MPKI 19.8847
Core_0_L2C_total_miss_rate 0.443334
Core_0_L2C_demand_access 1954337
Core_0_L2C_demand_hit 974985
Core_0_L2C_demand_miss 979352
Core_0_L2C_demand_MPKI 19.587
Core_0_L2C_demand_miss_rate 0.501117
Core_0_L2C_load_access 1866086
Core_0_L2C_load_hit 937703
Core_0_L2C_load_miss 928383
Core_0_L2C_load_MPKI 18.5677
Core_0_L2C_load_miss_rate 0.497503
Core_0_L2C_rfo_access 88251
Core_0_L2C_rfo_hit 37282
Core_0_L2C_rfo_miss 50969
Core_0_L2C_rfo_MPKI 1.01938
Core_0_L2C_rfo_miss_rate 0.577546
Core_0_L2C_prefetch_access 29401
Core_0_L2C_prefetch_hit 16298
Core_0_L2C_prefetch_miss 13103
Core_0_L2C_prefetch_MPKI 0.26206
Core_0_L2C_prefetch_miss_rate 0.445665
Core_0_L2C_writeback_access 258894
Core_0_L2C_writeback_hit 257115
Core_0_L2C_writeback_miss 1779
Core_0_L2C_writeback_MPKI 0.03558
Core_0_L2C_writeback_miss_rate 0.00687154
Core_0_L2C_prefetch_requested 37683
Core_0_L2C_prefetch_issued 25479
Core_0_L2C_prefetch_useful 4709
Core_0_L2C_prefetch_useless 4742
Core_0_L2C_prefetch_late 240
Core_0_L2C_prefetch_accuracy 0.184819
Core_0_L2C_prefetch_coverage 0.00478527

Core_0_LLC_total_access 1142752
Core_0_LLC_total_hit 1070983
Core_0_LLC_total_miss 71769
Core_0_LLC_total_MPKI 1.43538
Core_0_LLC_total_miss_rate 0.0628037
Core_0_LLC_demand_access 978845
Core_0_LLC_demand_hit 912703
Core_0_LLC_demand_miss 66142
Core_0_LLC_demand_MPKI 1.32284
Core_0_LLC_demand_miss_rate 0.0675715
Core_0_LLC_load_access 927882
Core_0_LLC_load_hit 873012
Core_0_LLC_load_miss 54870
Core_0_LLC_load_MPKI 1.0974
Core_0_LLC_load_miss_rate 0.0591347
Core_0_LLC_rfo_access 50963
Core_0_LLC_rfo_hit 39691
Core_0_LLC_rfo_miss 11272
Core_0_LLC_rfo_MPKI 0.22544
Core_0_LLC_rfo_miss_rate 0.22118
Core_0_LLC_prefetch_access 11235
Core_0_LLC_prefetch_hit 7805
Core_0_LLC_prefetch_miss 3430
Core_0_LLC_prefetch_MPKI 0.0686
Core_0_LLC_prefetch_miss_rate 0.305296
Core_0_LLC_writeback_access 152672
Core_0_LLC_writeback_hit 150475
Core_0_LLC_writeback_miss 2197
Core_0_LLC_writeback_MPKI 0.04394
Core_0_LLC_writeback_miss_rate 0.0143903
Core_0_LLC_prefetch_requested 0
Core_0_LLC_prefetch_issued 0
Core_0_LLC_prefetch_useful 0
Core_0_LLC_prefetch_useless 0
Core_0_LLC_prefetch_late 0
Core_0_LLC_prefetch_accuracy 0
Core_0_LLC_prefetch_coverage 0

[DRAM Statistics]
Channel_0_RQ_row_buffer_hit 1859
Channel_0_RQ_row_buffer_miss 68944
Channel_0_WQ_row_buffer_hit 10587
Channel_0_WQ_row_buffer_miss 42825
Channel_0_WQ_full 0
Channel_0_dbus_congested 372394
DRAM_total_RQ_row_buffer_hit 1859
DRAM_total_RQ_row_buffer_miss 68944
DRAM_total_WQ_row_buffer_hit 10587
DRAM_total_WQ_row_buffer_miss 42825
DRAM_total_WQ_full 0
DRAM_total_dbus_congested 372394
DRAM_avg_congested_cycle 16.2831

====== DRAM_RQ_TRAFFIC ========
DRAM_RQ_READ_TRAFFIC_BREAKDOWN:
data_demand_read.count = 62215
data_demand_read.share = 87.87%

inst_demand_read.count = 3927
inst_demand_read.share = 5.55%

cache_inst_prefetch.count = 0
cache_inst_prefetch.share = 0.00%

cache_data_prefetch.count = 3430
cache_data_prefetch.share = 4.84%

stlb_data_demand.count = 1131
stlb_data_demand.share = 1.60%

stlb_inst_demand.count = 101
stlb_inst_demand.share = 0.14%

stlb_l1i_pref.count = 0
stlb_l1i_pref.share = 0.00%

stlb_l1d_pref.count = 0
stlb_l1d_pref.share = 0.00%

DRAM_RQ_READ_TRAFFIC_SUMMARY:
cache_demand.count = 66142
cache_demand.share = 93.42%

cache_prefetch.count = 3430
cache_prefetch.share = 4.84%

stlb_demand.count = 1232
stlb_demand.share = 1.74%

stlb_prefetch.count = 0
stlb_prefetch.share = 0.00%

DRAM_RQ_READ_TRAFFIC_DEBUG:
total_classified_read.count = 70804
unclassified_read.count = 0
total_read_with_other.count = 70804

classified_plus_unclassified_check.count = 70804
dram_rq_read_total_observed.count = 70804
dram_rq_read_total_observed.per_1K_instructions = 1.41608

STLB_MISS_PTW_DRAM_TOUCH_BREAKDOWN:
stlb_miss_total.count = 114474

stlb_miss_touch_dram.count = 1187
stlb_miss_touch_dram.share = 1.04%

stlb_miss_no_dram_touch.count = 113287
stlb_miss_no_dram_touch.share = 98.96%

STLB_MISS_PTW_DRAM_TOUCH_DEBUG:
stlb_miss_touch_plus_no_touch.count = 114474
stlb_miss_total_check.count = 114474

======STLB miss causes ========
Core_0_STLB_miss_cause_breakdown
Core_0_STLB_cause_Demand_Data_miss 70940
Core_0_STLB_cause_Demand_Data_miss_rate 0.087291
Core_0_STLB_cause_Demand_Instruction_miss 43502
Core_0_STLB_cause_Demand_Instruction_miss_rate 0.0535288
Core_0_STLB_cause_L1D_Prefetch_miss 32
Core_0_STLB_cause_L1D_Prefetch_miss_rate 3.93757e-05
Core_0_STLB_cause_L1I_Prefetch_miss 0
Core_0_STLB_cause_L1I_Prefetch_miss_rate 0
Core_0_STLB_cause_Other_miss 0
Core_0_STLB_cause_Other_miss_rate 0
Core_0_STLB_Demand_miss 114442
Core_0_STLB_Demand_miss_rate 0.14082
Core_0_STLB_L1D_Prefetch_miss 32
Core_0_STLB_L1D_Prefetch_miss_rate 3.93757e-05
Core_0_STLB_Other_miss 0
Core_0_STLB_Other_miss_rate 0
BERTI TO_L1: 154485 TO_L2: 107877 TO_L2_BC_MSHR: 7476
BERTI AVG_LAT: 26.7961 NUM_TRACK_LATENCY: 909595 NUM_CANT_TRACK_LATENCY: 0
BERTI CROSS_PAGE 31531 NO_CROSS_PAGE: 230831
BERTI FOUND_BERTI: 535952 NO_FOUND_BERTI: 15053804
BERTI AVERAGE_ISSUED: 3.57824
