[VMEM] WARNING: physical memory size is smaller than virtual memory size.

*** ChampSim Multicore Out-of-Order Simulator ***
Warmup Instructions: 20000000
Simulation Instructions: 50000000
Number of CPUs: 1
Page size: 4096
Core 0: /data0/tzh/champsim_traces/QMM/srv_60_new.xz
VBerti Prefetcher
BERTI HASH ENTANGLING
BERTI IP MASK ffff
Off-chip DRAM Size: 16 GiB Channels: 1 Width: 64-bit Data Rate: 3205 MT/s
[BTB] WARNING: target of return is a lower address than the corresponding call. This is usually a problem with your trace.
[BTB] WARNING: target of return is a lower address than the corresponding call. This is usually a problem with your trace.
[BTB] WARNING: target of return is a lower address than the corresponding call. This is usually a problem with your trace.
[BTB] WARNING: target of return is a lower address than the corresponding call. This is usually a problem with your trace.
[BTB] WARNING: target of return is a lower address than the corresponding call. This is usually a problem with your trace.
[BTB] WARNING: target of return is a lower address than the corresponding call. This is usually a problem with your trace.
[BTB] WARNING: target of return is a lower address than the corresponding call. This is usually a problem with your trace.
[BTB] WARNING: target of return is a lower address than the corresponding call. This is usually a problem with your trace.
[BTB] WARNING: target of return is a lower address than the corresponding call. This is usually a problem with your trace.
[BTB] WARNING: target of return is a lower address than the corresponding call. This is usually a problem with your trace.
Warmup halting CPU 0 at instruction 20000005 cycle 4511974 for remainder of phase
Warmup finished CPU 0 instructions: 20000005 cycles: 4511974 cumulative IPC: 4.433 (Simulation time: 00 hr 01 min 17 sec)
Warmup complete CPU 0 instructions: 20000005 cycles: 4511974 cumulative IPC: 4.433 (Simulation time: 00 hr 01 min 17 sec)
*** Reached end of trace: (0, "/data0/tzh/champsim_traces/QMM/srv_60_new.xz")
*** Reached end of trace: (0, "/data0/tzh/champsim_traces/QMM/srv_60_new.xz")
Simulation finished CPU 0 instructions: 50000001 cycles: 32692843 cumulative IPC: 1.529 (Simulation time: 00 hr 06 min 00 sec)
Simulation complete CPU 0 instructions: 50000001 cycles: 32692843 cumulative IPC: 1.529 (Simulation time: 00 hr 06 min 00 sec)

ChampSim completed all CPUs

=== Simulation ===
CPU 0 runs /data0/tzh/champsim_traces/QMM/srv_60_new.xz

Region of Interest Statistics

CPU 0 cumulative IPC: 1.529 instructions: 50000001 cycles: 32692843
CPU 0 Branch Prediction Accuracy: 97.09% MPKI: 5.228 Average ROB Occupancy at Mispredict: 87.35
Branch type MPKI
BRANCH_DIRECT_JUMP: 0.4383
BRANCH_INDIRECT: 0.5446
BRANCH_CONDITIONAL: 2.638
BRANCH_DIRECT_CALL: 0.7409
BRANCH_INDIRECT_CALL: 0.1975
BRANCH_RETURN: 0.6692

cpu0->cpu0_STLB TOTAL        ACCESS:     832278 HIT:     707079 MISS:     125199 MSHR_MERGE:          0
cpu0->cpu0_STLB LOAD         ACCESS:     832278 HIT:     707079 MISS:     125199 MSHR_MERGE:          0
cpu0->cpu0_STLB RFO          ACCESS:          0 HIT:          0 MISS:          0 MSHR_MERGE:          0
cpu0->cpu0_STLB PREFETCH     ACCESS:          0 HIT:          0 MISS:          0 MSHR_MERGE:          0
cpu0->cpu0_STLB WRITE        ACCESS:          0 HIT:          0 MISS:          0 MSHR_MERGE:          0
cpu0->cpu0_STLB TRANSLATION  ACCESS:          0 HIT:          0 MISS:          0 MSHR_MERGE:          0
cpu0->cpu0_STLB PREFETCH REQUESTED:          0 ISSUED:          0 USEFUL:          0 USELESS:          0 LATE:          0
cpu0->cpu0_STLB AVERAGE MISS LATENCY: 29.91 cycles
cpu0->cpu0_L2C TOTAL        ACCESS:    2396516 HIT:    1300508 MISS:    1096008 MSHR_MERGE:       3090
cpu0->cpu0_L2C LOAD         ACCESS:    1905738 HIT:     943112 MISS:     962626 MSHR_MERGE:        670
cpu0->cpu0_L2C RFO          ACCESS:      88143 HIT:      36696 MISS:      51447 MSHR_MERGE:          8
cpu0->cpu0_L2C PREFETCH     ACCESS:      29733 HIT:      15138 MISS:      14595 MSHR_MERGE:       2412
cpu0->cpu0_L2C WRITE        ACCESS:     267518 HIT:     265943 MISS:       1575 MSHR_MERGE:          0
cpu0->cpu0_L2C TRANSLATION  ACCESS:     105384 HIT:      39619 MISS:      65765 MSHR_MERGE:          0
cpu0->cpu0_L2C PREFETCH REQUESTED:      34516 ISSUED:      25136 USEFUL:       4951 USELESS:       4683 LATE:        256
cpu0->cpu0_L2C AVERAGE MISS LATENCY: 26.14 cycles
cpu0->cpu0_L1I TOTAL        ACCESS:    7576032 HIT:    5509660 MISS:    2066372 MSHR_MERGE:     758358
cpu0->cpu0_L1I LOAD         ACCESS:    7576032 HIT:    5509660 MISS:    2066372 MSHR_MERGE:     758358
cpu0->cpu0_L1I RFO          ACCESS:          0 HIT:          0 MISS:          0 MSHR_MERGE:          0
cpu0->cpu0_L1I PREFETCH     ACCESS:          0 HIT:          0 MISS:          0 MSHR_MERGE:          0
cpu0->cpu0_L1I WRITE        ACCESS:          0 HIT:          0 MISS:          0 MSHR_MERGE:          0
cpu0->cpu0_L1I TRANSLATION  ACCESS:          0 HIT:          0 MISS:          0 MSHR_MERGE:          0
cpu0->cpu0_L1I PREFETCH REQUESTED:          0 ISSUED:          0 USEFUL:          0 USELESS:          0 LATE:          0
cpu0->cpu0_L1I AVERAGE MISS LATENCY: 15.52 cycles
cpu0->cpu0_L1D TOTAL        ACCESS:   12011200 HIT:   10857947 MISS:    1153253 MSHR_MERGE:     356965
cpu0->cpu0_L1D LOAD         ACCESS:    6771294 HIT:    5969875 MISS:     801419 MSHR_MERGE:     203684
cpu0->cpu0_L1D RFO          ACCESS:          0 HIT:          0 MISS:          0 MSHR_MERGE:          0
cpu0->cpu0_L1D PREFETCH     ACCESS:      16366 HIT:       9892 MISS:       6474 MSHR_MERGE:       1459
cpu0->cpu0_L1D WRITE        ACCESS:    4945622 HIT:    4707759 MISS:     237863 MSHR_MERGE:     149709
cpu0->cpu0_L1D TRANSLATION  ACCESS:     277918 HIT:     170421 MISS:     107497 MSHR_MERGE:       2113
cpu0->cpu0_L1D PREFETCH REQUESTED:      80963 ISSUED:      16366 USEFUL:       1587 USELESS:        543 LATE:        634
cpu0->cpu0_L1D AVERAGE MISS LATENCY: 31.57 cycles
cpu0->cpu0_ITLB TOTAL        ACCESS:    6413951 HIT:    5903672 MISS:     510279 MSHR_MERGE:     315093
cpu0->cpu0_ITLB LOAD         ACCESS:    6413951 HIT:    5903672 MISS:     510279 MSHR_MERGE:     315093
cpu0->cpu0_ITLB RFO          ACCESS:          0 HIT:          0 MISS:          0 MSHR_MERGE:          0
cpu0->cpu0_ITLB PREFETCH     ACCESS:          0 HIT:          0 MISS:          0 MSHR_MERGE:          0
cpu0->cpu0_ITLB WRITE        ACCESS:          0 HIT:          0 MISS:          0 MSHR_MERGE:          0
cpu0->cpu0_ITLB TRANSLATION  ACCESS:          0 HIT:          0 MISS:          0 MSHR_MERGE:          0
cpu0->cpu0_ITLB PREFETCH REQUESTED:          0 ISSUED:          0 USEFUL:          0 USELESS:          0 LATE:          0
cpu0->cpu0_ITLB AVERAGE MISS LATENCY: 10.8 cycles
cpu0->cpu0_DTLB TOTAL        ACCESS:   11073933 HIT:   10205499 MISS:     868434 MSHR_MERGE:     231341
cpu0->cpu0_DTLB LOAD         ACCESS:   11073933 HIT:   10205499 MISS:     868434 MSHR_MERGE:     231341
cpu0->cpu0_DTLB RFO          ACCESS:          0 HIT:          0 MISS:          0 MSHR_MERGE:          0
cpu0->cpu0_DTLB PREFETCH     ACCESS:          0 HIT:          0 MISS:          0 MSHR_MERGE:          0
cpu0->cpu0_DTLB WRITE        ACCESS:          0 HIT:          0 MISS:          0 MSHR_MERGE:          0
cpu0->cpu0_DTLB TRANSLATION  ACCESS:          0 HIT:          0 MISS:          0 MSHR_MERGE:          0
cpu0->cpu0_DTLB PREFETCH REQUESTED:          0 ISSUED:          0 USEFUL:          0 USELESS:          0 LATE:          0
cpu0->cpu0_DTLB AVERAGE MISS LATENCY: 9.31 cycles
cpu0->LLC TOTAL        ACCESS:    1250749 HIT:    1179205 MISS:      71544 MSHR_MERGE:          0
cpu0->LLC LOAD         ACCESS:     961955 HIT:     907612 MISS:      54343 MSHR_MERGE:          0
cpu0->LLC RFO          ACCESS:      51439 HIT:      40794 MISS:      10645 MSHR_MERGE:          0
cpu0->LLC PREFETCH     ACCESS:      12183 HIT:       9054 MISS:       3129 MSHR_MERGE:          0
cpu0->LLC WRITE        ACCESS:     159407 HIT:     157250 MISS:       2157 MSHR_MERGE:          0
cpu0->LLC TRANSLATION  ACCESS:      65765 HIT:      64495 MISS:       1270 MSHR_MERGE:          0
cpu0->LLC PREFETCH REQUESTED:          0 ISSUED:          0 USEFUL:          0 USELESS:          0 LATE:          0
cpu0->LLC AVERAGE MISS LATENCY: 175.5 cycles

DRAM Statistics

Channel 0 RQ ROW_BUFFER_HIT:       1626
  ROW_BUFFER_MISS:      67757
  AVG DBUS CONGESTED CYCLE: 16.05
Channel 0 WQ ROW_BUFFER_HIT:      10330
  ROW_BUFFER_MISS:      42345
  FULL:          0
Channel 0 REFRESHES ISSUED:       2725

[ROI Statistics]
[System Configuration]
num_cpus 1
cpu_freq 4000
fetch_width 6
decode_width 6
dispatch_width 6
execute_width 6
lq_width 2
sq_width 2
retire_width 6
scheduler_size 128
branch_mispredict_penalty 15
rob_size 352
lq_size 128
sq_size 72
ifetch_buffer_size 64
decode_buffer_size 32
dispatch_buffer_size 32
register_file_size 288
decode_latency 1
dispatch_latency 1
schedule_latency 1
execute_latency 1
page_size 4096
block_size 64
core_0_itlb_set 16
core_0_itlb_way 4
core_0_itlb_rq_size 16
core_0_itlb_wq_size 16
core_0_itlb_pq_size 0
core_0_itlb_mshr_size 8
core_0_itlb_hit_latency 1
core_0_itlb_fill_latency 1
core_0_itlb_max_tag_check 2
core_0_itlb_max_fill 2
core_0_dtlb_set 16
core_0_dtlb_way 4
core_0_dtlb_rq_size 16
core_0_dtlb_wq_size 16
core_0_dtlb_pq_size 0
core_0_dtlb_mshr_size 8
core_0_dtlb_hit_latency 1
core_0_dtlb_fill_latency 1
core_0_dtlb_max_tag_check 2
core_0_dtlb_max_fill 2
core_0_stlb_set 128
core_0_stlb_way 12
core_0_stlb_rq_size 32
core_0_stlb_wq_size 32
core_0_stlb_pq_size 0
core_0_stlb_mshr_size 16
core_0_stlb_hit_latency 4
core_0_stlb_fill_latency 4
core_0_stlb_max_tag_check 1
core_0_stlb_max_fill 1
core_0_l1i_set 64
core_0_l1i_way 8
core_0_l1i_rq_size 64
core_0_l1i_wq_size 64
core_0_l1i_pq_size 32
core_0_l1i_mshr_size 8
core_0_l1i_hit_latency 2
core_0_l1i_fill_latency 2
core_0_l1i_max_tag_check 2
core_0_l1i_max_fill 2
core_0_l1d_set 64
core_0_l1d_way 12
core_0_l1d_rq_size 64
core_0_l1d_wq_size 64
core_0_l1d_pq_size 8
core_0_l1d_mshr_size 16
core_0_l1d_hit_latency 2
core_0_l1d_fill_latency 3
core_0_l1d_max_tag_check 2
core_0_l1d_max_fill 2
core_0_l2c_set 1024
core_0_l2c_way 8
core_0_l2c_rq_size 32
core_0_l2c_wq_size 32
core_0_l2c_pq_size 16
core_0_l2c_mshr_size 32
core_0_l2c_hit_latency 5
core_0_l2c_fill_latency 5
core_0_l2c_max_tag_check 1
core_0_l2c_max_fill 1
llc_set 2048
llc_way 16
llc_rq_size 32
llc_wq_size 32
llc_pq_size 32
llc_mshr_size 64
llc_hit_latency 10
llc_fill_latency 10
llc_max_tag_check 1
llc_max_fill 1
dram_channels 1
dram_ranks 1
dram_bankgroups 8
dram_banks 4
dram_rows 65536
dram_columns 1024
dram_channel_width 8
dram_rq_size 64
dram_wq_size 64
dram_size 17179869184
core_0_itlb_prefetcher no
core_0_dtlb_prefetcher no
core_0_stlb_prefetcher no
core_0_l1i_prefetcher next_line
core_0_l1d_prefetcher vberti
core_0_l2c_prefetcher ip_stride
llc_prefetcher no
llc_replacement drrip

Core_0_instructions 50000001
Core_0_cycles 32692843
Core_0_IPC 1.52939
Core_0_branch_prediction_accuracy 97.0928
Core_0_branch_MPKI 5.22836
Core_0_average_ROB_occupancy_at_mispredict 87.3533

Core_0_ITLB_total_access 6413951
Core_0_ITLB_total_hit 5903672
Core_0_ITLB_total_miss 510279
Core_0_ITLB_total_MPKI 10.2056
Core_0_ITLB_total_miss_rate 0.0795577
Core_0_ITLB_demand_access 6413951
Core_0_ITLB_demand_hit 5903672
Core_0_ITLB_demand_miss 510279
Core_0_ITLB_demand_MPKI 10.2056
Core_0_ITLB_demand_miss_rate 0.0795577
Core_0_ITLB_load_access 6413951
Core_0_ITLB_load_hit 5903672
Core_0_ITLB_load_miss 510279
Core_0_ITLB_load_MPKI 10.2056
Core_0_ITLB_load_miss_rate 0.0795577
Core_0_ITLB_rfo_access 0
Core_0_ITLB_rfo_hit 0
Core_0_ITLB_rfo_miss 0
Core_0_ITLB_rfo_MPKI 0
Core_0_ITLB_rfo_miss_rate 0
Core_0_ITLB_prefetch_access 0
Core_0_ITLB_prefetch_hit 0
Core_0_ITLB_prefetch_miss 0
Core_0_ITLB_prefetch_MPKI 0
Core_0_ITLB_prefetch_miss_rate 0
Core_0_ITLB_writeback_access 0
Core_0_ITLB_writeback_hit 0
Core_0_ITLB_writeback_miss 0
Core_0_ITLB_writeback_MPKI 0
Core_0_ITLB_writeback_miss_rate 0
Core_0_ITLB_prefetch_requested 0
Core_0_ITLB_prefetch_issued 0
Core_0_ITLB_prefetch_useful 0
Core_0_ITLB_prefetch_useless 0
Core_0_ITLB_prefetch_late 0
Core_0_ITLB_prefetch_accuracy 0
Core_0_ITLB_prefetch_coverage 0

Core_0_DTLB_total_access 11073933
Core_0_DTLB_total_hit 10205499
Core_0_DTLB_total_miss 868434
Core_0_DTLB_total_MPKI 17.3687
Core_0_DTLB_total_miss_rate 0.0784215
Core_0_DTLB_demand_access 11073933
Core_0_DTLB_demand_hit 10205499
Core_0_DTLB_demand_miss 868434
Core_0_DTLB_demand_MPKI 17.3687
Core_0_DTLB_demand_miss_rate 0.0784215
Core_0_DTLB_load_access 11073933
Core_0_DTLB_load_hit 10205499
Core_0_DTLB_load_miss 868434
Core_0_DTLB_load_MPKI 17.3687
Core_0_DTLB_load_miss_rate 0.0784215
Core_0_DTLB_rfo_access 0
Core_0_DTLB_rfo_hit 0
Core_0_DTLB_rfo_miss 0
Core_0_DTLB_rfo_MPKI 0
Core_0_DTLB_rfo_miss_rate 0
Core_0_DTLB_prefetch_access 0
Core_0_DTLB_prefetch_hit 0
Core_0_DTLB_prefetch_miss 0
Core_0_DTLB_prefetch_MPKI 0
Core_0_DTLB_prefetch_miss_rate 0
Core_0_DTLB_writeback_access 0
Core_0_DTLB_writeback_hit 0
Core_0_DTLB_writeback_miss 0
Core_0_DTLB_writeback_MPKI 0
Core_0_DTLB_writeback_miss_rate 0
Core_0_DTLB_prefetch_requested 0
Core_0_DTLB_prefetch_issued 0
Core_0_DTLB_prefetch_useful 0
Core_0_DTLB_prefetch_useless 0
Core_0_DTLB_prefetch_late 0
Core_0_DTLB_prefetch_accuracy 0
Core_0_DTLB_prefetch_coverage 0

Core_0_STLB_total_access 832278
Core_0_STLB_total_hit 707079
Core_0_STLB_total_miss 125199
Core_0_STLB_total_MPKI 2.50398
Core_0_STLB_total_miss_rate 0.150429
Core_0_STLB_demand_access 832278
Core_0_STLB_demand_hit 707079
Core_0_STLB_demand_miss 125199
Core_0_STLB_demand_MPKI 2.50398
Core_0_STLB_demand_miss_rate 0.150429
Core_0_STLB_load_access 832278
Core_0_STLB_load_hit 707079
Core_0_STLB_load_miss 125199
Core_0_STLB_load_MPKI 2.50398
Core_0_STLB_load_miss_rate 0.150429
Core_0_STLB_rfo_access 0
Core_0_STLB_rfo_hit 0
Core_0_STLB_rfo_miss 0
Core_0_STLB_rfo_MPKI 0
Core_0_STLB_rfo_miss_rate 0
Core_0_STLB_prefetch_access 0
Core_0_STLB_prefetch_hit 0
Core_0_STLB_prefetch_miss 0
Core_0_STLB_prefetch_MPKI 0
Core_0_STLB_prefetch_miss_rate 0
Core_0_STLB_writeback_access 0
Core_0_STLB_writeback_hit 0
Core_0_STLB_writeback_miss 0
Core_0_STLB_writeback_MPKI 0
Core_0_STLB_writeback_miss_rate 0
Core_0_STLB_prefetch_requested 0
Core_0_STLB_prefetch_issued 0
Core_0_STLB_prefetch_useful 0
Core_0_STLB_prefetch_useless 0
Core_0_STLB_prefetch_late 0
Core_0_STLB_prefetch_accuracy 0
Core_0_STLB_prefetch_coverage 0

Core_0_L1I_total_access 7576032
Core_0_L1I_total_hit 5509660
Core_0_L1I_total_miss 2066372
Core_0_L1I_total_MPKI 41.3274
Core_0_L1I_total_miss_rate 0.272751
Core_0_L1I_demand_access 7576032
Core_0_L1I_demand_hit 5509660
Core_0_L1I_demand_miss 2066372
Core_0_L1I_demand_MPKI 41.3274
Core_0_L1I_demand_miss_rate 0.272751
Core_0_L1I_load_access 7576032
Core_0_L1I_load_hit 5509660
Core_0_L1I_load_miss 2066372
Core_0_L1I_load_MPKI 41.3274
Core_0_L1I_load_miss_rate 0.272751
Core_0_L1I_rfo_access 0
Core_0_L1I_rfo_hit 0
Core_0_L1I_rfo_miss 0
Core_0_L1I_rfo_MPKI 0
Core_0_L1I_rfo_miss_rate 0
Core_0_L1I_prefetch_access 0
Core_0_L1I_prefetch_hit 0
Core_0_L1I_prefetch_miss 0
Core_0_L1I_prefetch_MPKI 0
Core_0_L1I_prefetch_miss_rate 0
Core_0_L1I_writeback_access 0
Core_0_L1I_writeback_hit 0
Core_0_L1I_writeback_miss 0
Core_0_L1I_writeback_MPKI 0
Core_0_L1I_writeback_miss_rate 0
Core_0_L1I_prefetch_requested 0
Core_0_L1I_prefetch_issued 0
Core_0_L1I_prefetch_useful 0
Core_0_L1I_prefetch_useless 0
Core_0_L1I_prefetch_late 0
Core_0_L1I_prefetch_accuracy 0
Core_0_L1I_prefetch_coverage 0

Core_0_L1D_total_access 11733282
Core_0_L1D_total_hit 10687526
Core_0_L1D_total_miss 1045756
Core_0_L1D_total_MPKI 20.9151
Core_0_L1D_total_miss_rate 0.0891273
Core_0_L1D_demand_access 6771294
Core_0_L1D_demand_hit 5969875
Core_0_L1D_demand_miss 801419
Core_0_L1D_demand_MPKI 16.0284
Core_0_L1D_demand_miss_rate 0.118355
Core_0_L1D_load_access 6771294
Core_0_L1D_load_hit 5969875
Core_0_L1D_load_miss 801419
Core_0_L1D_load_MPKI 16.0284
Core_0_L1D_load_miss_rate 0.118355
Core_0_L1D_rfo_access 0
Core_0_L1D_rfo_hit 0
Core_0_L1D_rfo_miss 0
Core_0_L1D_rfo_MPKI 0
Core_0_L1D_rfo_miss_rate 0
Core_0_L1D_prefetch_access 16366
Core_0_L1D_prefetch_hit 9892
Core_0_L1D_prefetch_miss 6474
Core_0_L1D_prefetch_MPKI 0.12948
Core_0_L1D_prefetch_miss_rate 0.395576
Core_0_L1D_writeback_access 4945622
Core_0_L1D_writeback_hit 4707759
Core_0_L1D_writeback_miss 237863
Core_0_L1D_writeback_MPKI 4.75726
Core_0_L1D_writeback_miss_rate 0.0480957
Core_0_L1D_prefetch_requested 80963
Core_0_L1D_prefetch_issued 16366
Core_0_L1D_prefetch_useful 1587
Core_0_L1D_prefetch_useless 543
Core_0_L1D_prefetch_late 634
Core_0_L1D_prefetch_accuracy 0.0969693
Core_0_L1D_prefetch_coverage 0.00197632

Core_0_L2C_total_access 2291132
Core_0_L2C_total_hit 1260889
Core_0_L2C_total_miss 1030243
Core_0_L2C_total_MPKI 20.6049
Core_0_L2C_total_miss_rate 0.449665
Core_0_L2C_demand_access 1993881
Core_0_L2C_demand_hit 979808
Core_0_L2C_demand_miss 1014073
Core_0_L2C_demand_MPKI 20.2815
Core_0_L2C_demand_miss_rate 0.508593
Core_0_L2C_load_access 1905738
Core_0_L2C_load_hit 943112
Core_0_L2C_load_miss 962626
Core_0_L2C_load_MPKI 19.2525
Core_0_L2C_load_miss_rate 0.50512
Core_0_L2C_rfo_access 88143
Core_0_L2C_rfo_hit 36696
Core_0_L2C_rfo_miss 51447
Core_0_L2C_rfo_MPKI 1.02894
Core_0_L2C_rfo_miss_rate 0.583677
Core_0_L2C_prefetch_access 29733
Core_0_L2C_prefetch_hit 15138
Core_0_L2C_prefetch_miss 14595
Core_0_L2C_prefetch_MPKI 0.2919
Core_0_L2C_prefetch_miss_rate 0.490869
Core_0_L2C_writeback_access 267518
Core_0_L2C_writeback_hit 265943
Core_0_L2C_writeback_miss 1575
Core_0_L2C_writeback_MPKI 0.0315
Core_0_L2C_writeback_miss_rate 0.00588745
Core_0_L2C_prefetch_requested 34516
Core_0_L2C_prefetch_issued 25136
Core_0_L2C_prefetch_useful 4951
Core_0_L2C_prefetch_useless 4683
Core_0_L2C_prefetch_late 256
Core_0_L2C_prefetch_accuracy 0.196968
Core_0_L2C_prefetch_coverage 0.00485857

Core_0_LLC_total_access 1184984
Core_0_LLC_total_hit 1114710
Core_0_LLC_total_miss 70274
Core_0_LLC_total_MPKI 1.40548
Core_0_LLC_total_miss_rate 0.0593038
Core_0_LLC_demand_access 1013394
Core_0_LLC_demand_hit 948406
Core_0_LLC_demand_miss 64988
Core_0_LLC_demand_MPKI 1.29976
Core_0_LLC_demand_miss_rate 0.0641291
Core_0_LLC_load_access 961955
Core_0_LLC_load_hit 907612
Core_0_LLC_load_miss 54343
Core_0_LLC_load_MPKI 1.08686
Core_0_LLC_load_miss_rate 0.0564922
Core_0_LLC_rfo_access 51439
Core_0_LLC_rfo_hit 40794
Core_0_LLC_rfo_miss 10645
Core_0_LLC_rfo_MPKI 0.2129
Core_0_LLC_rfo_miss_rate 0.206944
Core_0_LLC_prefetch_access 12183
Core_0_LLC_prefetch_hit 9054
Core_0_LLC_prefetch_miss 3129
Core_0_LLC_prefetch_MPKI 0.06258
Core_0_LLC_prefetch_miss_rate 0.256833
Core_0_LLC_writeback_access 159407
Core_0_LLC_writeback_hit 157250
Core_0_LLC_writeback_miss 2157
Core_0_LLC_writeback_MPKI 0.04314
Core_0_LLC_writeback_miss_rate 0.0135314
Core_0_LLC_prefetch_requested 0
Core_0_LLC_prefetch_issued 0
Core_0_LLC_prefetch_useful 0
Core_0_LLC_prefetch_useless 0
Core_0_LLC_prefetch_late 0
Core_0_LLC_prefetch_accuracy 0
Core_0_LLC_prefetch_coverage 0

[DRAM Statistics]
Channel_0_RQ_row_buffer_hit 1626
Channel_0_RQ_row_buffer_miss 67757
Channel_0_WQ_row_buffer_hit 10330
Channel_0_WQ_row_buffer_miss 42345
Channel_0_WQ_full 0
Channel_0_dbus_congested 358469
DRAM_total_RQ_row_buffer_hit 1626
DRAM_total_RQ_row_buffer_miss 67757
DRAM_total_WQ_row_buffer_hit 10330
DRAM_total_WQ_row_buffer_miss 42345
DRAM_total_WQ_full 0
DRAM_total_dbus_congested 358469
DRAM_avg_congested_cycle 16.0504

====== DRAM_RQ_TRAFFIC ========
DRAM_RQ_READ_TRAFFIC_BREAKDOWN:
data_demand_read.count = 60432
data_demand_read.share = 87.09%

inst_demand_read.count = 4556
inst_demand_read.share = 6.57%

cache_inst_prefetch.count = 0
cache_inst_prefetch.share = 0.00%

cache_data_prefetch.count = 3129
cache_data_prefetch.share = 4.51%

stlb_data_demand.count = 1192
stlb_data_demand.share = 1.72%

stlb_inst_demand.count = 78
stlb_inst_demand.share = 0.11%

stlb_l1i_pref.count = 0
stlb_l1i_pref.share = 0.00%

stlb_l1d_pref.count = 0
stlb_l1d_pref.share = 0.00%

DRAM_RQ_READ_TRAFFIC_SUMMARY:
cache_demand.count = 64988
cache_demand.share = 93.66%

cache_prefetch.count = 3129
cache_prefetch.share = 4.51%

stlb_demand.count = 1270
stlb_demand.share = 1.83%

stlb_prefetch.count = 0
stlb_prefetch.share = 0.00%

DRAM_RQ_READ_TRAFFIC_DEBUG:
total_classified_read.count = 69387
unclassified_read.count = 0
total_read_with_other.count = 69387

classified_plus_unclassified_check.count = 69387
dram_rq_read_total_observed.count = 69387
dram_rq_read_total_observed.per_1K_instructions = 1.38774

STLB_MISS_PTW_DRAM_TOUCH_BREAKDOWN:
stlb_miss_total.count = 125199

stlb_miss_touch_dram.count = 1226
stlb_miss_touch_dram.share = 0.98%

stlb_miss_no_dram_touch.count = 123973
stlb_miss_no_dram_touch.share = 99.02%

STLB_MISS_PTW_DRAM_TOUCH_DEBUG:
stlb_miss_touch_plus_no_touch.count = 125199
stlb_miss_total_check.count = 125199

======STLB miss causes ========
Core_0_STLB_miss_cause_breakdown
Core_0_STLB_cause_Demand_Data_miss 80213
Core_0_STLB_cause_Demand_Data_miss_rate 0.0963777
Core_0_STLB_cause_Demand_Instruction_miss 44917
Core_0_STLB_cause_Demand_Instruction_miss_rate 0.0539687
Core_0_STLB_cause_L1D_Prefetch_miss 69
Core_0_STLB_cause_L1D_Prefetch_miss_rate 8.2905e-05
Core_0_STLB_cause_L1I_Prefetch_miss 0
Core_0_STLB_cause_L1I_Prefetch_miss_rate 0
Core_0_STLB_cause_Other_miss 0
Core_0_STLB_cause_Other_miss_rate 0
Core_0_STLB_Demand_miss 125130
Core_0_STLB_Demand_miss_rate 0.150346
Core_0_STLB_L1D_Prefetch_miss 69
Core_0_STLB_L1D_Prefetch_miss_rate 8.2905e-05
Core_0_STLB_Other_miss 0
Core_0_STLB_Other_miss_rate 0
BERTI TO_L1: 113741 TO_L2: 86731 TO_L2_BC_MSHR: 7634
BERTI AVG_LAT: 25.46 NUM_TRACK_LATENCY: 967659 NUM_CANT_TRACK_LATENCY: 0
BERTI CROSS_PAGE 20434 NO_CROSS_PAGE: 180038
BERTI FOUND_BERTI: 527407 NO_FOUND_BERTI: 15069687
BERTI AVERAGE_ISSUED: 2.06515
