[VMEM] WARNING: physical memory size is smaller than virtual memory size.

*** ChampSim Multicore Out-of-Order Simulator ***
Warmup Instructions: 20000000
Simulation Instructions: 50000000
Number of CPUs: 1
Page size: 4096
Core 0: /data2/zcq/champsim_traces_xsbench/xs.XXL64nuclide-24B.champsimtrace.xz
VBerti Prefetcher
BERTI HASH ENTANGLING
BERTI IP MASK ffff
Off-chip DRAM Size: 16 GiB Channels: 1 Width: 64-bit Data Rate: 3205 MT/s
Warmup halting CPU 0 at instruction 20000001 cycle 5052566 for remainder of phase
Warmup finished CPU 0 instructions: 20000001 cycles: 5052566 cumulative IPC: 3.958 (Simulation time: 00 hr 01 min 03 sec)
Warmup complete CPU 0 instructions: 20000001 cycles: 5052566 cumulative IPC: 3.958 (Simulation time: 00 hr 01 min 03 sec)
Simulation finished CPU 0 instructions: 50000001 cycles: 225502282 cumulative IPC: 0.2217 (Simulation time: 00 hr 20 min 12 sec)
Simulation complete CPU 0 instructions: 50000001 cycles: 225502282 cumulative IPC: 0.2217 (Simulation time: 00 hr 20 min 12 sec)

ChampSim completed all CPUs

=== Simulation ===
CPU 0 runs /data2/zcq/champsim_traces_xsbench/xs.XXL64nuclide-24B.champsimtrace.xz

Region of Interest Statistics

CPU 0 cumulative IPC: 0.2217 instructions: 50000001 cycles: 225502282
CPU 0 Branch Prediction Accuracy: 92.4% MPKI: 18.26 Average ROB Occupancy at Mispredict: 37.31
Branch type MPKI
BRANCH_DIRECT_JUMP: 2e-05
BRANCH_INDIRECT: 0
BRANCH_CONDITIONAL: 18.26
BRANCH_DIRECT_CALL: 4e-05
BRANCH_INDIRECT_CALL: 6e-05
BRANCH_RETURN: 0.00038

cpu0->cpu0_STLB TOTAL        ACCESS:    1376783 HIT:     656420 MISS:     720363 MSHR_MERGE:          0
cpu0->cpu0_STLB LOAD         ACCESS:    1376783 HIT:     656420 MISS:     720363 MSHR_MERGE:          0
cpu0->cpu0_STLB RFO          ACCESS:          0 HIT:          0 MISS:          0 MSHR_MERGE:          0
cpu0->cpu0_STLB PREFETCH     ACCESS:          0 HIT:          0 MISS:          0 MSHR_MERGE:          0
cpu0->cpu0_STLB WRITE        ACCESS:          0 HIT:          0 MISS:          0 MSHR_MERGE:          0
cpu0->cpu0_STLB TRANSLATION  ACCESS:          0 HIT:          0 MISS:          0 MSHR_MERGE:          0
cpu0->cpu0_STLB PREFETCH REQUESTED:          0 ISSUED:          0 USEFUL:          0 USELESS:          0 LATE:          0
cpu0->cpu0_STLB AVERAGE MISS LATENCY: 23.8 cycles
cpu0->cpu0_L2C TOTAL        ACCESS:    7282934 HIT:    4908806 MISS:    2374128 MSHR_MERGE:     270854
cpu0->cpu0_L2C LOAD         ACCESS:    1743962 HIT:     177792 MISS:    1566170 MSHR_MERGE:      50551
cpu0->cpu0_L2C RFO          ACCESS:      91349 HIT:      54701 MISS:      36648 MSHR_MERGE:       8271
cpu0->cpu0_L2C PREFETCH     ACCESS:    4214064 HIT:    3457555 MISS:     756509 MSHR_MERGE:     212032
cpu0->cpu0_L2C WRITE        ACCESS:     742873 HIT:     742861 MISS:         12 MSHR_MERGE:          0
cpu0->cpu0_L2C TRANSLATION  ACCESS:     490686 HIT:     475897 MISS:      14789 MSHR_MERGE:          0
cpu0->cpu0_L2C PREFETCH REQUESTED:    1179873 ISSUED:    1168346 USEFUL:     176300 USELESS:       2047 LATE:      46666
cpu0->cpu0_L2C AVERAGE MISS LATENCY: 225.2 cycles
cpu0->cpu0_L1I TOTAL        ACCESS:     619991 HIT:     619988 MISS:          3 MSHR_MERGE:          0
cpu0->cpu0_L1I LOAD         ACCESS:     619991 HIT:     619988 MISS:          3 MSHR_MERGE:          0
cpu0->cpu0_L1I RFO          ACCESS:          0 HIT:          0 MISS:          0 MSHR_MERGE:          0
cpu0->cpu0_L1I PREFETCH     ACCESS:          0 HIT:          0 MISS:          0 MSHR_MERGE:          0
cpu0->cpu0_L1I WRITE        ACCESS:          0 HIT:          0 MISS:          0 MSHR_MERGE:          0
cpu0->cpu0_L1I TRANSLATION  ACCESS:          0 HIT:          0 MISS:          0 MSHR_MERGE:          0
cpu0->cpu0_L1I PREFETCH REQUESTED:          0 ISSUED:          0 USEFUL:          0 USELESS:          0 LATE:          0
cpu0->cpu0_L1I AVERAGE MISS LATENCY: 404 cycles
cpu0->cpu0_L1D TOTAL        ACCESS:   32631967 HIT:   26207539 MISS:    6424428 MSHR_MERGE:    1030417
cpu0->cpu0_L1D LOAD         ACCESS:   10388676 HIT:    8096865 MISS:    2291811 MSHR_MERGE:     547852
cpu0->cpu0_L1D RFO          ACCESS:          0 HIT:          0 MISS:          0 MSHR_MERGE:          0
cpu0->cpu0_L1D PREFETCH     ACCESS:   14514731 HIT:   11426871 MISS:    3087860 MSHR_MERGE:      19843
cpu0->cpu0_L1D WRITE        ACCESS:    6289034 HIT:    5735863 MISS:     553171 MSHR_MERGE:     461822
cpu0->cpu0_L1D TRANSLATION  ACCESS:    1439526 HIT:     947940 MISS:     491586 MSHR_MERGE:        900
cpu0->cpu0_L1D PREFETCH REQUESTED:   61097231 ISSUED:   14514723 USEFUL:     357158 USELESS:       2078 LATE:      21754
cpu0->cpu0_L1D AVERAGE MISS LATENCY: 166.5 cycles
cpu0->cpu0_ITLB TOTAL        ACCESS:     590981 HIT:     590981 MISS:          0 MSHR_MERGE:          0
cpu0->cpu0_ITLB LOAD         ACCESS:     590981 HIT:     590981 MISS:          0 MSHR_MERGE:          0
cpu0->cpu0_ITLB RFO          ACCESS:          0 HIT:          0 MISS:          0 MSHR_MERGE:          0
cpu0->cpu0_ITLB PREFETCH     ACCESS:          0 HIT:          0 MISS:          0 MSHR_MERGE:          0
cpu0->cpu0_ITLB WRITE        ACCESS:          0 HIT:          0 MISS:          0 MSHR_MERGE:          0
cpu0->cpu0_ITLB TRANSLATION  ACCESS:          0 HIT:          0 MISS:          0 MSHR_MERGE:          0
cpu0->cpu0_ITLB PREFETCH REQUESTED:          0 ISSUED:          0 USEFUL:          0 USELESS:          0 LATE:          0
cpu0->cpu0_ITLB AVERAGE MISS LATENCY: - cycles
cpu0->cpu0_DTLB TOTAL        ACCESS:   25683605 HIT:   23815674 MISS:    1867931 MSHR_MERGE:     491148
cpu0->cpu0_DTLB LOAD         ACCESS:   25683605 HIT:   23815674 MISS:    1867931 MSHR_MERGE:     491148
cpu0->cpu0_DTLB RFO          ACCESS:          0 HIT:          0 MISS:          0 MSHR_MERGE:          0
cpu0->cpu0_DTLB PREFETCH     ACCESS:          0 HIT:          0 MISS:          0 MSHR_MERGE:          0
cpu0->cpu0_DTLB WRITE        ACCESS:          0 HIT:          0 MISS:          0 MSHR_MERGE:          0
cpu0->cpu0_DTLB TRANSLATION  ACCESS:          0 HIT:          0 MISS:          0 MSHR_MERGE:          0
cpu0->cpu0_DTLB PREFETCH REQUESTED:          0 ISSUED:          0 USEFUL:          0 USELESS:          0 LATE:          0
cpu0->cpu0_DTLB AVERAGE MISS LATENCY: 17.98 cycles
cpu0->LLC TOTAL        ACCESS:    2805542 HIT:     483403 MISS:    2322139 MSHR_MERGE:      57857
cpu0->LLC LOAD         ACCESS:    1515619 HIT:     185181 MISS:    1330438 MSHR_MERGE:      11709
cpu0->LLC RFO          ACCESS:      28377 HIT:       4363 MISS:      24014 MSHR_MERGE:        251
cpu0->LLC PREFETCH     ACCESS:     544463 HIT:      88915 MISS:     455548 MSHR_MERGE:      45897
cpu0->LLC WRITE        ACCESS:     702294 HIT:     202805 MISS:     499489 MSHR_MERGE:          0
cpu0->LLC TRANSLATION  ACCESS:      14789 HIT:       2139 MISS:      12650 MSHR_MERGE:          0
cpu0->LLC PREFETCH REQUESTED:          0 ISSUED:          0 USEFUL:          0 USELESS:          0 LATE:          0
cpu0->LLC AVERAGE MISS LATENCY: 173.9 cycles

DRAM Statistics

Channel 0 RQ ROW_BUFFER_HIT:      17432
  ROW_BUFFER_MISS:    1746965
  AVG DBUS CONGESTED CYCLE: 6.603
Channel 0 WQ ROW_BUFFER_HIT:     168237
  ROW_BUFFER_MISS:     429929
  FULL:        222
Channel 0 REFRESHES ISSUED:      18791

[ROI Statistics]
[System Configuration]
num_cpus 1
cpu_freq 4000
fetch_width 6
decode_width 6
dispatch_width 6
execute_width 6
lq_width 2
sq_width 2
retire_width 6
scheduler_size 128
branch_mispredict_penalty 15
rob_size 352
lq_size 128
sq_size 72
ifetch_buffer_size 64
decode_buffer_size 32
dispatch_buffer_size 32
register_file_size 288
decode_latency 1
dispatch_latency 1
schedule_latency 1
execute_latency 1
page_size 4096
block_size 64
core_0_itlb_set 16
core_0_itlb_way 4
core_0_itlb_rq_size 16
core_0_itlb_wq_size 16
core_0_itlb_pq_size 0
core_0_itlb_mshr_size 8
core_0_itlb_hit_latency 1
core_0_itlb_fill_latency 1
core_0_itlb_max_tag_check 2
core_0_itlb_max_fill 2
core_0_dtlb_set 16
core_0_dtlb_way 4
core_0_dtlb_rq_size 16
core_0_dtlb_wq_size 16
core_0_dtlb_pq_size 0
core_0_dtlb_mshr_size 8
core_0_dtlb_hit_latency 1
core_0_dtlb_fill_latency 1
core_0_dtlb_max_tag_check 2
core_0_dtlb_max_fill 2
core_0_stlb_set 128
core_0_stlb_way 12
core_0_stlb_rq_size 32
core_0_stlb_wq_size 32
core_0_stlb_pq_size 0
core_0_stlb_mshr_size 16
core_0_stlb_hit_latency 4
core_0_stlb_fill_latency 4
core_0_stlb_max_tag_check 1
core_0_stlb_max_fill 1
core_0_l1i_set 64
core_0_l1i_way 8
core_0_l1i_rq_size 64
core_0_l1i_wq_size 64
core_0_l1i_pq_size 32
core_0_l1i_mshr_size 8
core_0_l1i_hit_latency 2
core_0_l1i_fill_latency 2
core_0_l1i_max_tag_check 2
core_0_l1i_max_fill 2
core_0_l1d_set 64
core_0_l1d_way 12
core_0_l1d_rq_size 64
core_0_l1d_wq_size 64
core_0_l1d_pq_size 8
core_0_l1d_mshr_size 16
core_0_l1d_hit_latency 2
core_0_l1d_fill_latency 3
core_0_l1d_max_tag_check 2
core_0_l1d_max_fill 2
core_0_l2c_set 1024
core_0_l2c_way 8
core_0_l2c_rq_size 32
core_0_l2c_wq_size 32
core_0_l2c_pq_size 16
core_0_l2c_mshr_size 32
core_0_l2c_hit_latency 5
core_0_l2c_fill_latency 5
core_0_l2c_max_tag_check 1
core_0_l2c_max_fill 1
llc_set 2048
llc_way 16
llc_rq_size 32
llc_wq_size 32
llc_pq_size 32
llc_mshr_size 64
llc_hit_latency 10
llc_fill_latency 10
llc_max_tag_check 1
llc_max_fill 1
dram_channels 1
dram_ranks 1
dram_bankgroups 8
dram_banks 4
dram_rows 65536
dram_columns 1024
dram_channel_width 8
dram_rq_size 64
dram_wq_size 64
dram_size 17179869184
core_0_itlb_prefetcher no
core_0_dtlb_prefetcher no
core_0_stlb_prefetcher no
core_0_l1i_prefetcher next_line
core_0_l1d_prefetcher vberti
core_0_l2c_prefetcher ip_stride
llc_prefetcher no
llc_replacement drrip

Core_0_instructions 50000001
Core_0_cycles 225502282
Core_0_IPC 0.221727
Core_0_branch_prediction_accuracy 92.3955
Core_0_branch_MPKI 18.2609
Core_0_average_ROB_occupancy_at_mispredict 37.3127

Core_0_ITLB_total_access 590981
Core_0_ITLB_total_hit 590981
Core_0_ITLB_total_miss 0
Core_0_ITLB_total_MPKI 0
Core_0_ITLB_total_miss_rate 0
Core_0_ITLB_demand_access 590981
Core_0_ITLB_demand_hit 590981
Core_0_ITLB_demand_miss 0
Core_0_ITLB_demand_MPKI 0
Core_0_ITLB_demand_miss_rate 0
Core_0_ITLB_load_access 590981
Core_0_ITLB_load_hit 590981
Core_0_ITLB_load_miss 0
Core_0_ITLB_load_MPKI 0
Core_0_ITLB_load_miss_rate 0
Core_0_ITLB_rfo_access 0
Core_0_ITLB_rfo_hit 0
Core_0_ITLB_rfo_miss 0
Core_0_ITLB_rfo_MPKI 0
Core_0_ITLB_rfo_miss_rate 0
Core_0_ITLB_prefetch_access 0
Core_0_ITLB_prefetch_hit 0
Core_0_ITLB_prefetch_miss 0
Core_0_ITLB_prefetch_MPKI 0
Core_0_ITLB_prefetch_miss_rate 0
Core_0_ITLB_writeback_access 0
Core_0_ITLB_writeback_hit 0
Core_0_ITLB_writeback_miss 0
Core_0_ITLB_writeback_MPKI 0
Core_0_ITLB_writeback_miss_rate 0
Core_0_ITLB_prefetch_requested 0
Core_0_ITLB_prefetch_issued 0
Core_0_ITLB_prefetch_useful 0
Core_0_ITLB_prefetch_useless 0
Core_0_ITLB_prefetch_late 0
Core_0_ITLB_prefetch_accuracy 0
Core_0_ITLB_prefetch_coverage 0

Core_0_DTLB_total_access 25683605
Core_0_DTLB_total_hit 23815674
Core_0_DTLB_total_miss 1867931
Core_0_DTLB_total_MPKI 37.3586
Core_0_DTLB_total_miss_rate 0.0727285
Core_0_DTLB_demand_access 25683605
Core_0_DTLB_demand_hit 23815674
Core_0_DTLB_demand_miss 1867931
Core_0_DTLB_demand_MPKI 37.3586
Core_0_DTLB_demand_miss_rate 0.0727285
Core_0_DTLB_load_access 25683605
Core_0_DTLB_load_hit 23815674
Core_0_DTLB_load_miss 1867931
Core_0_DTLB_load_MPKI 37.3586
Core_0_DTLB_load_miss_rate 0.0727285
Core_0_DTLB_rfo_access 0
Core_0_DTLB_rfo_hit 0
Core_0_DTLB_rfo_miss 0
Core_0_DTLB_rfo_MPKI 0
Core_0_DTLB_rfo_miss_rate 0
Core_0_DTLB_prefetch_access 0
Core_0_DTLB_prefetch_hit 0
Core_0_DTLB_prefetch_miss 0
Core_0_DTLB_prefetch_MPKI 0
Core_0_DTLB_prefetch_miss_rate 0
Core_0_DTLB_writeback_access 0
Core_0_DTLB_writeback_hit 0
Core_0_DTLB_writeback_miss 0
Core_0_DTLB_writeback_MPKI 0
Core_0_DTLB_writeback_miss_rate 0
Core_0_DTLB_prefetch_requested 0
Core_0_DTLB_prefetch_issued 0
Core_0_DTLB_prefetch_useful 0
Core_0_DTLB_prefetch_useless 0
Core_0_DTLB_prefetch_late 0
Core_0_DTLB_prefetch_accuracy 0
Core_0_DTLB_prefetch_coverage 0

Core_0_STLB_total_access 1376783
Core_0_STLB_total_hit 656420
Core_0_STLB_total_miss 720363
Core_0_STLB_total_MPKI 14.4073
Core_0_STLB_total_miss_rate 0.523222
Core_0_STLB_demand_access 1376783
Core_0_STLB_demand_hit 656420
Core_0_STLB_demand_miss 720363
Core_0_STLB_demand_MPKI 14.4073
Core_0_STLB_demand_miss_rate 0.523222
Core_0_STLB_load_access 1376783
Core_0_STLB_load_hit 656420
Core_0_STLB_load_miss 720363
Core_0_STLB_load_MPKI 14.4073
Core_0_STLB_load_miss_rate 0.523222
Core_0_STLB_rfo_access 0
Core_0_STLB_rfo_hit 0
Core_0_STLB_rfo_miss 0
Core_0_STLB_rfo_MPKI 0
Core_0_STLB_rfo_miss_rate 0
Core_0_STLB_prefetch_access 0
Core_0_STLB_prefetch_hit 0
Core_0_STLB_prefetch_miss 0
Core_0_STLB_prefetch_MPKI 0
Core_0_STLB_prefetch_miss_rate 0
Core_0_STLB_writeback_access 0
Core_0_STLB_writeback_hit 0
Core_0_STLB_writeback_miss 0
Core_0_STLB_writeback_MPKI 0
Core_0_STLB_writeback_miss_rate 0
Core_0_STLB_prefetch_requested 0
Core_0_STLB_prefetch_issued 0
Core_0_STLB_prefetch_useful 0
Core_0_STLB_prefetch_useless 0
Core_0_STLB_prefetch_late 0
Core_0_STLB_prefetch_accuracy 0
Core_0_STLB_prefetch_coverage 0

Core_0_L1I_total_access 619991
Core_0_L1I_total_hit 619988
Core_0_L1I_total_miss 3
Core_0_L1I_total_MPKI 6e-05
Core_0_L1I_total_miss_rate 4.83878e-06
Core_0_L1I_demand_access 619991
Core_0_L1I_demand_hit 619988
Core_0_L1I_demand_miss 3
Core_0_L1I_demand_MPKI 6e-05
Core_0_L1I_demand_miss_rate 4.83878e-06
Core_0_L1I_load_access 619991
Core_0_L1I_load_hit 619988
Core_0_L1I_load_miss 3
Core_0_L1I_load_MPKI 6e-05
Core_0_L1I_load_miss_rate 4.83878e-06
Core_0_L1I_rfo_access 0
Core_0_L1I_rfo_hit 0
Core_0_L1I_rfo_miss 0
Core_0_L1I_rfo_MPKI 0
Core_0_L1I_rfo_miss_rate 0
Core_0_L1I_prefetch_access 0
Core_0_L1I_prefetch_hit 0
Core_0_L1I_prefetch_miss 0
Core_0_L1I_prefetch_MPKI 0
Core_0_L1I_prefetch_miss_rate 0
Core_0_L1I_writeback_access 0
Core_0_L1I_writeback_hit 0
Core_0_L1I_writeback_miss 0
Core_0_L1I_writeback_MPKI 0
Core_0_L1I_writeback_miss_rate 0
Core_0_L1I_prefetch_requested 0
Core_0_L1I_prefetch_issued 0
Core_0_L1I_prefetch_useful 0
Core_0_L1I_prefetch_useless 0
Core_0_L1I_prefetch_late 0
Core_0_L1I_prefetch_accuracy 0
Core_0_L1I_prefetch_coverage 0

Core_0_L1D_total_access 31192441
Core_0_L1D_total_hit 25259599
Core_0_L1D_total_miss 5932842
Core_0_L1D_total_MPKI 118.657
Core_0_L1D_total_miss_rate 0.190201
Core_0_L1D_demand_access 10388676
Core_0_L1D_demand_hit 8096865
Core_0_L1D_demand_miss 2291811
Core_0_L1D_demand_MPKI 45.8362
Core_0_L1D_demand_miss_rate 0.220607
Core_0_L1D_load_access 10388676
Core_0_L1D_load_hit 8096865
Core_0_L1D_load_miss 2291811
Core_0_L1D_load_MPKI 45.8362
Core_0_L1D_load_miss_rate 0.220607
Core_0_L1D_rfo_access 0
Core_0_L1D_rfo_hit 0
Core_0_L1D_rfo_miss 0
Core_0_L1D_rfo_MPKI 0
Core_0_L1D_rfo_miss_rate 0
Core_0_L1D_prefetch_access 14514731
Core_0_L1D_prefetch_hit 11426871
Core_0_L1D_prefetch_miss 3087860
Core_0_L1D_prefetch_MPKI 61.7572
Core_0_L1D_prefetch_miss_rate 0.21274
Core_0_L1D_writeback_access 6289034
Core_0_L1D_writeback_hit 5735863
Core_0_L1D_writeback_miss 553171
Core_0_L1D_writeback_MPKI 11.0634
Core_0_L1D_writeback_miss_rate 0.087958
Core_0_L1D_prefetch_requested 61097231
Core_0_L1D_prefetch_issued 14514723
Core_0_L1D_prefetch_useful 357158
Core_0_L1D_prefetch_useless 2078
Core_0_L1D_prefetch_late 21754
Core_0_L1D_prefetch_accuracy 0.0246066
Core_0_L1D_prefetch_coverage 0.134829

Core_0_L2C_total_access 6792248
Core_0_L2C_total_hit 4432909
Core_0_L2C_total_miss 2359339
Core_0_L2C_total_MPKI 47.1868
Core_0_L2C_total_miss_rate 0.347358
Core_0_L2C_demand_access 1835311
Core_0_L2C_demand_hit 232493
Core_0_L2C_demand_miss 1602818
Core_0_L2C_demand_MPKI 32.0564
Core_0_L2C_demand_miss_rate 0.873322
Core_0_L2C_load_access 1743962
Core_0_L2C_load_hit 177792
Core_0_L2C_load_miss 1566170
Core_0_L2C_load_MPKI 31.3234
Core_0_L2C_load_miss_rate 0.898053
Core_0_L2C_rfo_access 91349
Core_0_L2C_rfo_hit 54701
Core_0_L2C_rfo_miss 36648
Core_0_L2C_rfo_MPKI 0.73296
Core_0_L2C_rfo_miss_rate 0.401187
Core_0_L2C_prefetch_access 4214064
Core_0_L2C_prefetch_hit 3457555
Core_0_L2C_prefetch_miss 756509
Core_0_L2C_prefetch_MPKI 15.1302
Core_0_L2C_prefetch_miss_rate 0.17952
Core_0_L2C_writeback_access 742873
Core_0_L2C_writeback_hit 742861
Core_0_L2C_writeback_miss 12
Core_0_L2C_writeback_MPKI 0.00024
Core_0_L2C_writeback_miss_rate 1.61535e-05
Core_0_L2C_prefetch_requested 1179873
Core_0_L2C_prefetch_issued 1168346
Core_0_L2C_prefetch_useful 176300
Core_0_L2C_prefetch_useless 2047
Core_0_L2C_prefetch_late 46666
Core_0_L2C_prefetch_accuracy 0.150897
Core_0_L2C_prefetch_coverage 0.099094

Core_0_LLC_total_access 2790753
Core_0_LLC_total_hit 481264
Core_0_LLC_total_miss 2309489
Core_0_LLC_total_MPKI 46.1898
Core_0_LLC_total_miss_rate 0.82755
Core_0_LLC_demand_access 1543996
Core_0_LLC_demand_hit 189544
Core_0_LLC_demand_miss 1354452
Core_0_LLC_demand_MPKI 27.089
Core_0_LLC_demand_miss_rate 0.877238
Core_0_LLC_load_access 1515619
Core_0_LLC_load_hit 185181
Core_0_LLC_load_miss 1330438
Core_0_LLC_load_MPKI 26.6088
Core_0_LLC_load_miss_rate 0.877818
Core_0_LLC_rfo_access 28377
Core_0_LLC_rfo_hit 4363
Core_0_LLC_rfo_miss 24014
Core_0_LLC_rfo_MPKI 0.48028
Core_0_LLC_rfo_miss_rate 0.846249
Core_0_LLC_prefetch_access 544463
Core_0_LLC_prefetch_hit 88915
Core_0_LLC_prefetch_miss 455548
Core_0_LLC_prefetch_MPKI 9.11096
Core_0_LLC_prefetch_miss_rate 0.836692
Core_0_LLC_writeback_access 702294
Core_0_LLC_writeback_hit 202805
Core_0_LLC_writeback_miss 499489
Core_0_LLC_writeback_MPKI 9.98978
Core_0_LLC_writeback_miss_rate 0.711225
Core_0_LLC_prefetch_requested 0
Core_0_LLC_prefetch_issued 0
Core_0_LLC_prefetch_useful 0
Core_0_LLC_prefetch_useless 0
Core_0_LLC_prefetch_late 0
Core_0_LLC_prefetch_accuracy 0
Core_0_LLC_prefetch_coverage 0

[DRAM Statistics]
Channel_0_RQ_row_buffer_hit 17432
Channel_0_RQ_row_buffer_miss 1746965
Channel_0_WQ_row_buffer_hit 168237
Channel_0_WQ_row_buffer_miss 429929
Channel_0_WQ_full 222
Channel_0_dbus_congested 6482093
DRAM_total_RQ_row_buffer_hit 17432
DRAM_total_RQ_row_buffer_miss 1746965
DRAM_total_WQ_row_buffer_hit 168237
DRAM_total_WQ_row_buffer_miss 429929
DRAM_total_WQ_full 222
DRAM_total_dbus_congested 6482093
DRAM_avg_congested_cycle 6.60322

====== DRAM_RQ_TRAFFIC ========
DRAM_RQ_READ_TRAFFIC_BREAKDOWN:
data_demand_read.count = 1342489
data_demand_read.share = 76.07%

inst_demand_read.count = 3
inst_demand_read.share = 0.00%

cache_inst_prefetch.count = 0
cache_inst_prefetch.share = 0.00%

cache_data_prefetch.count = 409651
cache_data_prefetch.share = 23.21%

stlb_data_demand.count = 11840
stlb_data_demand.share = 0.67%

stlb_inst_demand.count = 0
stlb_inst_demand.share = 0.00%

stlb_l1i_pref.count = 0
stlb_l1i_pref.share = 0.00%

stlb_l1d_pref.count = 810
stlb_l1d_pref.share = 0.05%

DRAM_RQ_READ_TRAFFIC_SUMMARY:
cache_demand.count = 1342492
cache_demand.share = 76.07%

cache_prefetch.count = 409651
cache_prefetch.share = 23.21%

stlb_demand.count = 11840
stlb_demand.share = 0.67%

stlb_prefetch.count = 810
stlb_prefetch.share = 0.05%

DRAM_RQ_READ_TRAFFIC_DEBUG:
total_classified_read.count = 1764793
unclassified_read.count = 0
total_read_with_other.count = 1764793

classified_plus_unclassified_check.count = 1764793
dram_rq_read_total_observed.count = 1764793
dram_rq_read_total_observed.per_1K_instructions = 35.2959

STLB_MISS_PTW_DRAM_TOUCH_BREAKDOWN:
stlb_miss_total.count = 720362

stlb_miss_touch_dram.count = 12644
stlb_miss_touch_dram.share = 1.76%

stlb_miss_no_dram_touch.count = 707718
stlb_miss_no_dram_touch.share = 98.24%

STLB_MISS_PTW_DRAM_TOUCH_DEBUG:
stlb_miss_touch_plus_no_touch.count = 720362
stlb_miss_total_check.count = 720362

======STLB miss causes ========
Core_0_STLB_miss_cause_breakdown
Core_0_STLB_cause_Demand_Data_miss 713913
Core_0_STLB_cause_Demand_Data_miss_rate 0.518537
Core_0_STLB_cause_Demand_Instruction_miss 0
Core_0_STLB_cause_Demand_Instruction_miss_rate 0
Core_0_STLB_cause_L1D_Prefetch_miss 6450
Core_0_STLB_cause_L1D_Prefetch_miss_rate 0.00468483
Core_0_STLB_cause_L1I_Prefetch_miss 0
Core_0_STLB_cause_L1I_Prefetch_miss_rate 0
Core_0_STLB_cause_Other_miss 0
Core_0_STLB_cause_Other_miss_rate 0
Core_0_STLB_Demand_miss 713913
Core_0_STLB_Demand_miss_rate 0.518537
Core_0_STLB_L1D_Prefetch_miss 6450
Core_0_STLB_L1D_Prefetch_miss_rate 0.00468483
Core_0_STLB_Other_miss 0
Core_0_STLB_Other_miss_rate 0
BERTI TO_L1: 37995041 TO_L2: 42819002 TO_L2_BC_MSHR: 6453028
BERTI AVG_LAT: 164.466 NUM_TRACK_LATENCY: 2631802 NUM_CANT_TRACK_LATENCY: 24
BERTI CROSS_PAGE 10098816 NO_CROSS_PAGE: 70715227
BERTI FOUND_BERTI: 15783474 NO_FOUND_BERTI: 6723943
BERTI AVERAGE_ISSUED: 3.33957
