[VMEM] WARNING: physical memory size is smaller than virtual memory size.

*** ChampSim Multicore Out-of-Order Simulator ***
Warmup Instructions: 20000000
Simulation Instructions: 50000000
Number of CPUs: 1
Page size: 4096
Core 0: /data2/zcq/champsim_traces_xsbench/xs.XXL100nuclide-648B.champsimtrace.xz
VBerti Prefetcher
BERTI HASH ENTANGLING
BERTI IP MASK ffff
Off-chip DRAM Size: 16 GiB Channels: 1 Width: 64-bit Data Rate: 3205 MT/s
Warmup halting CPU 0 at instruction 20000002 cycle 16244303 for remainder of phase
Warmup finished CPU 0 instructions: 20000002 cycles: 16244303 cumulative IPC: 1.231 (Simulation time: 00 hr 02 min 41 sec)
Warmup complete CPU 0 instructions: 20000002 cycles: 16244303 cumulative IPC: 1.231 (Simulation time: 00 hr 02 min 41 sec)
Simulation finished CPU 0 instructions: 50000000 cycles: 360078929 cumulative IPC: 0.1389 (Simulation time: 00 hr 24 min 06 sec)
Simulation complete CPU 0 instructions: 50000000 cycles: 360078929 cumulative IPC: 0.1389 (Simulation time: 00 hr 24 min 06 sec)

ChampSim completed all CPUs

=== Simulation ===
CPU 0 runs /data2/zcq/champsim_traces_xsbench/xs.XXL100nuclide-648B.champsimtrace.xz

Region of Interest Statistics

CPU 0 cumulative IPC: 0.1389 instructions: 50000000 cycles: 360078929
CPU 0 Branch Prediction Accuracy: 87.26% MPKI: 21.54 Average ROB Occupancy at Mispredict: 25.64
Branch type MPKI
BRANCH_DIRECT_JUMP: 0
BRANCH_INDIRECT: 0
BRANCH_CONDITIONAL: 21.54
BRANCH_DIRECT_CALL: 0
BRANCH_INDIRECT_CALL: 0
BRANCH_RETURN: 0

cpu0->cpu0_STLB TOTAL        ACCESS:    1994077 HIT:      63073 MISS:    1931004 MSHR_MERGE:          0
cpu0->cpu0_STLB LOAD         ACCESS:    1994077 HIT:      63073 MISS:    1931004 MSHR_MERGE:          0
cpu0->cpu0_STLB RFO          ACCESS:          0 HIT:          0 MISS:          0 MSHR_MERGE:          0
cpu0->cpu0_STLB PREFETCH     ACCESS:          0 HIT:          0 MISS:          0 MSHR_MERGE:          0
cpu0->cpu0_STLB WRITE        ACCESS:          0 HIT:          0 MISS:          0 MSHR_MERGE:          0
cpu0->cpu0_STLB TRANSLATION  ACCESS:          0 HIT:          0 MISS:          0 MSHR_MERGE:          0
cpu0->cpu0_STLB PREFETCH REQUESTED:          0 ISSUED:          0 USEFUL:          0 USELESS:          0 LATE:          0
cpu0->cpu0_STLB AVERAGE MISS LATENCY: 196.2 cycles
cpu0->cpu0_L2C TOTAL        ACCESS:    5296559 HIT:     725386 MISS:    4571173 MSHR_MERGE:       4193
cpu0->cpu0_L2C LOAD         ACCESS:    2990902 HIT:     101154 MISS:    2889748 MSHR_MERGE:          0
cpu0->cpu0_L2C RFO          ACCESS:      11090 HIT:      10740 MISS:        350 MSHR_MERGE:          0
cpu0->cpu0_L2C PREFETCH     ACCESS:     620525 HIT:     505494 MISS:     115031 MSHR_MERGE:       4193
cpu0->cpu0_L2C WRITE        ACCESS:      13153 HIT:      13129 MISS:         24 MSHR_MERGE:          0
cpu0->cpu0_L2C TRANSLATION  ACCESS:    1660889 HIT:      94869 MISS:    1566020 MSHR_MERGE:          0
cpu0->cpu0_L2C PREFETCH REQUESTED:     163632 ISSUED:     163632 USEFUL:       7025 USELESS:      67703 LATE:          0
cpu0->cpu0_L2C AVERAGE MISS LATENCY: 152.5 cycles
cpu0->cpu0_L1I TOTAL        ACCESS:      10735 HIT:      10735 MISS:          0 MSHR_MERGE:          0
cpu0->cpu0_L1I LOAD         ACCESS:      10735 HIT:      10735 MISS:          0 MSHR_MERGE:          0
cpu0->cpu0_L1I RFO          ACCESS:          0 HIT:          0 MISS:          0 MSHR_MERGE:          0
cpu0->cpu0_L1I PREFETCH     ACCESS:          0 HIT:          0 MISS:          0 MSHR_MERGE:          0
cpu0->cpu0_L1I WRITE        ACCESS:          0 HIT:          0 MISS:          0 MSHR_MERGE:          0
cpu0->cpu0_L1I TRANSLATION  ACCESS:          0 HIT:          0 MISS:          0 MSHR_MERGE:          0
cpu0->cpu0_L1I PREFETCH REQUESTED:          0 ISSUED:          0 USEFUL:          0 USELESS:          0 LATE:          0
cpu0->cpu0_L1I AVERAGE MISS LATENCY: - cycles
cpu0->cpu0_L1D TOTAL        ACCESS:   10959738 HIT:    4871671 MISS:    6088067 MSHR_MERGE:     968288
cpu0->cpu0_L1D LOAD         ACCESS:    4781949 HIT:    1741147 MISS:    3040802 MSHR_MERGE:      49900
cpu0->cpu0_L1D RFO          ACCESS:          0 HIT:          0 MISS:          0 MSHR_MERGE:          0
cpu0->cpu0_L1D PREFETCH     ACCESS:    1039995 HIT:     583101 MISS:     456894 MSHR_MERGE:          1
cpu0->cpu0_L1D WRITE        ACCESS:     903649 HIT:     875365 MISS:      28284 MSHR_MERGE:      17189
cpu0->cpu0_L1D TRANSLATION  ACCESS:    4234145 HIT:    1672058 MISS:    2562087 MSHR_MERGE:     901198
cpu0->cpu0_L1D PREFETCH REQUESTED:    1195145 ISSUED:    1039995 USEFUL:      17232 USELESS:      22287 LATE:          0
cpu0->cpu0_L1D AVERAGE MISS LATENCY: 154.8 cycles
cpu0->cpu0_ITLB TOTAL        ACCESS:       8671 HIT:       8671 MISS:          0 MSHR_MERGE:          0
cpu0->cpu0_ITLB LOAD         ACCESS:       8671 HIT:       8671 MISS:          0 MSHR_MERGE:          0
cpu0->cpu0_ITLB RFO          ACCESS:          0 HIT:          0 MISS:          0 MSHR_MERGE:          0
cpu0->cpu0_ITLB PREFETCH     ACCESS:          0 HIT:          0 MISS:          0 MSHR_MERGE:          0
cpu0->cpu0_ITLB WRITE        ACCESS:          0 HIT:          0 MISS:          0 MSHR_MERGE:          0
cpu0->cpu0_ITLB TRANSLATION  ACCESS:          0 HIT:          0 MISS:          0 MSHR_MERGE:          0
cpu0->cpu0_ITLB PREFETCH REQUESTED:          0 ISSUED:          0 USEFUL:          0 USELESS:          0 LATE:          0
cpu0->cpu0_ITLB AVERAGE MISS LATENCY: - cycles
cpu0->cpu0_DTLB TOTAL        ACCESS:    6403393 HIT:    4307833 MISS:    2095560 MSHR_MERGE:     101483
cpu0->cpu0_DTLB LOAD         ACCESS:    6403393 HIT:    4307833 MISS:    2095560 MSHR_MERGE:     101483
cpu0->cpu0_DTLB RFO          ACCESS:          0 HIT:          0 MISS:          0 MSHR_MERGE:          0
cpu0->cpu0_DTLB PREFETCH     ACCESS:          0 HIT:          0 MISS:          0 MSHR_MERGE:          0
cpu0->cpu0_DTLB WRITE        ACCESS:          0 HIT:          0 MISS:          0 MSHR_MERGE:          0
cpu0->cpu0_DTLB TRANSLATION  ACCESS:          0 HIT:          0 MISS:          0 MSHR_MERGE:          0
cpu0->cpu0_DTLB PREFETCH REQUESTED:          0 ISSUED:          0 USEFUL:          0 USELESS:          0 LATE:          0
cpu0->cpu0_DTLB AVERAGE MISS LATENCY: 196 cycles
cpu0->LLC TOTAL        ACCESS:    4568182 HIT:    1474252 MISS:    3093930 MSHR_MERGE:          0
cpu0->LLC LOAD         ACCESS:    2889748 HIT:     636237 MISS:    2253511 MSHR_MERGE:          0
cpu0->LLC RFO          ACCESS:        350 HIT:        349 MISS:          1 MSHR_MERGE:          0
cpu0->LLC PREFETCH     ACCESS:     110838 HIT:      41233 MISS:      69605 MSHR_MERGE:          0
cpu0->LLC WRITE        ACCESS:       1226 HIT:       1211 MISS:         15 MSHR_MERGE:          0
cpu0->LLC TRANSLATION  ACCESS:    1566020 HIT:     795222 MISS:     770798 MSHR_MERGE:          0
cpu0->LLC PREFETCH REQUESTED:          0 ISSUED:          0 USEFUL:          0 USELESS:          0 LATE:          0
cpu0->LLC AVERAGE MISS LATENCY: 201.6 cycles

DRAM Statistics

Channel 0 RQ ROW_BUFFER_HIT:      15762
  ROW_BUFFER_MISS:    3078153
  AVG DBUS CONGESTED CYCLE: 2.937
Channel 0 WQ ROW_BUFFER_HIT:          2
  ROW_BUFFER_MISS:         15
  FULL:          0
Channel 0 REFRESHES ISSUED:      30007

[ROI Statistics]
[System Configuration]
num_cpus 1
cpu_freq 4000
fetch_width 6
decode_width 6
dispatch_width 6
execute_width 6
lq_width 2
sq_width 2
retire_width 6
scheduler_size 128
branch_mispredict_penalty 15
rob_size 352
lq_size 128
sq_size 72
ifetch_buffer_size 64
decode_buffer_size 32
dispatch_buffer_size 32
register_file_size 288
decode_latency 1
dispatch_latency 1
schedule_latency 1
execute_latency 1
page_size 4096
block_size 64
core_0_itlb_set 16
core_0_itlb_way 4
core_0_itlb_rq_size 16
core_0_itlb_wq_size 16
core_0_itlb_pq_size 0
core_0_itlb_mshr_size 8
core_0_itlb_hit_latency 1
core_0_itlb_fill_latency 1
core_0_itlb_max_tag_check 2
core_0_itlb_max_fill 2
core_0_dtlb_set 16
core_0_dtlb_way 4
core_0_dtlb_rq_size 16
core_0_dtlb_wq_size 16
core_0_dtlb_pq_size 0
core_0_dtlb_mshr_size 8
core_0_dtlb_hit_latency 1
core_0_dtlb_fill_latency 1
core_0_dtlb_max_tag_check 2
core_0_dtlb_max_fill 2
core_0_stlb_set 128
core_0_stlb_way 12
core_0_stlb_rq_size 32
core_0_stlb_wq_size 32
core_0_stlb_pq_size 0
core_0_stlb_mshr_size 16
core_0_stlb_hit_latency 4
core_0_stlb_fill_latency 4
core_0_stlb_max_tag_check 1
core_0_stlb_max_fill 1
core_0_l1i_set 64
core_0_l1i_way 8
core_0_l1i_rq_size 64
core_0_l1i_wq_size 64
core_0_l1i_pq_size 32
core_0_l1i_mshr_size 8
core_0_l1i_hit_latency 2
core_0_l1i_fill_latency 2
core_0_l1i_max_tag_check 2
core_0_l1i_max_fill 2
core_0_l1d_set 64
core_0_l1d_way 12
core_0_l1d_rq_size 64
core_0_l1d_wq_size 64
core_0_l1d_pq_size 8
core_0_l1d_mshr_size 16
core_0_l1d_hit_latency 2
core_0_l1d_fill_latency 3
core_0_l1d_max_tag_check 2
core_0_l1d_max_fill 2
core_0_l2c_set 1024
core_0_l2c_way 8
core_0_l2c_rq_size 32
core_0_l2c_wq_size 32
core_0_l2c_pq_size 16
core_0_l2c_mshr_size 32
core_0_l2c_hit_latency 5
core_0_l2c_fill_latency 5
core_0_l2c_max_tag_check 1
core_0_l2c_max_fill 1
llc_set 2048
llc_way 16
llc_rq_size 32
llc_wq_size 32
llc_pq_size 32
llc_mshr_size 64
llc_hit_latency 10
llc_fill_latency 10
llc_max_tag_check 1
llc_max_fill 1
dram_channels 1
dram_ranks 1
dram_bankgroups 8
dram_banks 4
dram_rows 65536
dram_columns 1024
dram_channel_width 8
dram_rq_size 64
dram_wq_size 64
dram_size 17179869184
core_0_itlb_prefetcher no
core_0_dtlb_prefetcher no
core_0_stlb_prefetcher no
core_0_l1i_prefetcher next_line
core_0_l1d_prefetcher vberti
core_0_l2c_prefetcher ip_stride
llc_prefetcher no
llc_replacement drrip

Core_0_instructions 50000000
Core_0_cycles 360078929
Core_0_IPC 0.138858
Core_0_branch_prediction_accuracy 87.2577
Core_0_branch_MPKI 21.5401
Core_0_average_ROB_occupancy_at_mispredict 25.6445

Core_0_ITLB_total_access 8671
Core_0_ITLB_total_hit 8671
Core_0_ITLB_total_miss 0
Core_0_ITLB_total_MPKI 0
Core_0_ITLB_total_miss_rate 0
Core_0_ITLB_demand_access 8671
Core_0_ITLB_demand_hit 8671
Core_0_ITLB_demand_miss 0
Core_0_ITLB_demand_MPKI 0
Core_0_ITLB_demand_miss_rate 0
Core_0_ITLB_load_access 8671
Core_0_ITLB_load_hit 8671
Core_0_ITLB_load_miss 0
Core_0_ITLB_load_MPKI 0
Core_0_ITLB_load_miss_rate 0
Core_0_ITLB_rfo_access 0
Core_0_ITLB_rfo_hit 0
Core_0_ITLB_rfo_miss 0
Core_0_ITLB_rfo_MPKI 0
Core_0_ITLB_rfo_miss_rate 0
Core_0_ITLB_prefetch_access 0
Core_0_ITLB_prefetch_hit 0
Core_0_ITLB_prefetch_miss 0
Core_0_ITLB_prefetch_MPKI 0
Core_0_ITLB_prefetch_miss_rate 0
Core_0_ITLB_writeback_access 0
Core_0_ITLB_writeback_hit 0
Core_0_ITLB_writeback_miss 0
Core_0_ITLB_writeback_MPKI 0
Core_0_ITLB_writeback_miss_rate 0
Core_0_ITLB_prefetch_requested 0
Core_0_ITLB_prefetch_issued 0
Core_0_ITLB_prefetch_useful 0
Core_0_ITLB_prefetch_useless 0
Core_0_ITLB_prefetch_late 0
Core_0_ITLB_prefetch_accuracy 0
Core_0_ITLB_prefetch_coverage 0

Core_0_DTLB_total_access 6403393
Core_0_DTLB_total_hit 4307833
Core_0_DTLB_total_miss 2095560
Core_0_DTLB_total_MPKI 41.9112
Core_0_DTLB_total_miss_rate 0.327258
Core_0_DTLB_demand_access 6403393
Core_0_DTLB_demand_hit 4307833
Core_0_DTLB_demand_miss 2095560
Core_0_DTLB_demand_MPKI 41.9112
Core_0_DTLB_demand_miss_rate 0.327258
Core_0_DTLB_load_access 6403393
Core_0_DTLB_load_hit 4307833
Core_0_DTLB_load_miss 2095560
Core_0_DTLB_load_MPKI 41.9112
Core_0_DTLB_load_miss_rate 0.327258
Core_0_DTLB_rfo_access 0
Core_0_DTLB_rfo_hit 0
Core_0_DTLB_rfo_miss 0
Core_0_DTLB_rfo_MPKI 0
Core_0_DTLB_rfo_miss_rate 0
Core_0_DTLB_prefetch_access 0
Core_0_DTLB_prefetch_hit 0
Core_0_DTLB_prefetch_miss 0
Core_0_DTLB_prefetch_MPKI 0
Core_0_DTLB_prefetch_miss_rate 0
Core_0_DTLB_writeback_access 0
Core_0_DTLB_writeback_hit 0
Core_0_DTLB_writeback_miss 0
Core_0_DTLB_writeback_MPKI 0
Core_0_DTLB_writeback_miss_rate 0
Core_0_DTLB_prefetch_requested 0
Core_0_DTLB_prefetch_issued 0
Core_0_DTLB_prefetch_useful 0
Core_0_DTLB_prefetch_useless 0
Core_0_DTLB_prefetch_late 0
Core_0_DTLB_prefetch_accuracy 0
Core_0_DTLB_prefetch_coverage 0

Core_0_STLB_total_access 1994077
Core_0_STLB_total_hit 63073
Core_0_STLB_total_miss 1931004
Core_0_STLB_total_MPKI 38.6201
Core_0_STLB_total_miss_rate 0.96837
Core_0_STLB_demand_access 1994077
Core_0_STLB_demand_hit 63073
Core_0_STLB_demand_miss 1931004
Core_0_STLB_demand_MPKI 38.6201
Core_0_STLB_demand_miss_rate 0.96837
Core_0_STLB_load_access 1994077
Core_0_STLB_load_hit 63073
Core_0_STLB_load_miss 1931004
Core_0_STLB_load_MPKI 38.6201
Core_0_STLB_load_miss_rate 0.96837
Core_0_STLB_rfo_access 0
Core_0_STLB_rfo_hit 0
Core_0_STLB_rfo_miss 0
Core_0_STLB_rfo_MPKI 0
Core_0_STLB_rfo_miss_rate 0
Core_0_STLB_prefetch_access 0
Core_0_STLB_prefetch_hit 0
Core_0_STLB_prefetch_miss 0
Core_0_STLB_prefetch_MPKI 0
Core_0_STLB_prefetch_miss_rate 0
Core_0_STLB_writeback_access 0
Core_0_STLB_writeback_hit 0
Core_0_STLB_writeback_miss 0
Core_0_STLB_writeback_MPKI 0
Core_0_STLB_writeback_miss_rate 0
Core_0_STLB_prefetch_requested 0
Core_0_STLB_prefetch_issued 0
Core_0_STLB_prefetch_useful 0
Core_0_STLB_prefetch_useless 0
Core_0_STLB_prefetch_late 0
Core_0_STLB_prefetch_accuracy 0
Core_0_STLB_prefetch_coverage 0

Core_0_L1I_total_access 10735
Core_0_L1I_total_hit 10735
Core_0_L1I_total_miss 0
Core_0_L1I_total_MPKI 0
Core_0_L1I_total_miss_rate 0
Core_0_L1I_demand_access 10735
Core_0_L1I_demand_hit 10735
Core_0_L1I_demand_miss 0
Core_0_L1I_demand_MPKI 0
Core_0_L1I_demand_miss_rate 0
Core_0_L1I_load_access 10735
Core_0_L1I_load_hit 10735
Core_0_L1I_load_miss 0
Core_0_L1I_load_MPKI 0
Core_0_L1I_load_miss_rate 0
Core_0_L1I_rfo_access 0
Core_0_L1I_rfo_hit 0
Core_0_L1I_rfo_miss 0
Core_0_L1I_rfo_MPKI 0
Core_0_L1I_rfo_miss_rate 0
Core_0_L1I_prefetch_access 0
Core_0_L1I_prefetch_hit 0
Core_0_L1I_prefetch_miss 0
Core_0_L1I_prefetch_MPKI 0
Core_0_L1I_prefetch_miss_rate 0
Core_0_L1I_writeback_access 0
Core_0_L1I_writeback_hit 0
Core_0_L1I_writeback_miss 0
Core_0_L1I_writeback_MPKI 0
Core_0_L1I_writeback_miss_rate 0
Core_0_L1I_prefetch_requested 0
Core_0_L1I_prefetch_issued 0
Core_0_L1I_prefetch_useful 0
Core_0_L1I_prefetch_useless 0
Core_0_L1I_prefetch_late 0
Core_0_L1I_prefetch_accuracy 0
Core_0_L1I_prefetch_coverage 0

Core_0_L1D_total_access 6725593
Core_0_L1D_total_hit 3199613
Core_0_L1D_total_miss 3525980
Core_0_L1D_total_MPKI 70.5196
Core_0_L1D_total_miss_rate 0.524263
Core_0_L1D_demand_access 4781949
Core_0_L1D_demand_hit 1741147
Core_0_L1D_demand_miss 3040802
Core_0_L1D_demand_MPKI 60.816
Core_0_L1D_demand_miss_rate 0.635892
Core_0_L1D_load_access 4781949
Core_0_L1D_load_hit 1741147
Core_0_L1D_load_miss 3040802
Core_0_L1D_load_MPKI 60.816
Core_0_L1D_load_miss_rate 0.635892
Core_0_L1D_rfo_access 0
Core_0_L1D_rfo_hit 0
Core_0_L1D_rfo_miss 0
Core_0_L1D_rfo_MPKI 0
Core_0_L1D_rfo_miss_rate 0
Core_0_L1D_prefetch_access 1039995
Core_0_L1D_prefetch_hit 583101
Core_0_L1D_prefetch_miss 456894
Core_0_L1D_prefetch_MPKI 9.13788
Core_0_L1D_prefetch_miss_rate 0.439323
Core_0_L1D_writeback_access 903649
Core_0_L1D_writeback_hit 875365
Core_0_L1D_writeback_miss 28284
Core_0_L1D_writeback_MPKI 0.56568
Core_0_L1D_writeback_miss_rate 0.0312998
Core_0_L1D_prefetch_requested 1195145
Core_0_L1D_prefetch_issued 1039995
Core_0_L1D_prefetch_useful 17232
Core_0_L1D_prefetch_useless 22287
Core_0_L1D_prefetch_late 0
Core_0_L1D_prefetch_accuracy 0.0165693
Core_0_L1D_prefetch_coverage 0.00563499

Core_0_L2C_total_access 3635670
Core_0_L2C_total_hit 630517
Core_0_L2C_total_miss 3005153
Core_0_L2C_total_MPKI 60.1031
Core_0_L2C_total_miss_rate 0.826575
Core_0_L2C_demand_access 3001992
Core_0_L2C_demand_hit 111894
Core_0_L2C_demand_miss 2890098
Core_0_L2C_demand_MPKI 57.802
Core_0_L2C_demand_miss_rate 0.962727
Core_0_L2C_load_access 2990902
Core_0_L2C_load_hit 101154
Core_0_L2C_load_miss 2889748
Core_0_L2C_load_MPKI 57.795
Core_0_L2C_load_miss_rate 0.966179
Core_0_L2C_rfo_access 11090
Core_0_L2C_rfo_hit 10740
Core_0_L2C_rfo_miss 350
Core_0_L2C_rfo_MPKI 0.007
Core_0_L2C_rfo_miss_rate 0.03156
Core_0_L2C_prefetch_access 620525
Core_0_L2C_prefetch_hit 505494
Core_0_L2C_prefetch_miss 115031
Core_0_L2C_prefetch_MPKI 2.30062
Core_0_L2C_prefetch_miss_rate 0.185377
Core_0_L2C_writeback_access 13153
Core_0_L2C_writeback_hit 13129
Core_0_L2C_writeback_miss 24
Core_0_L2C_writeback_MPKI 0.00048
Core_0_L2C_writeback_miss_rate 0.00182468
Core_0_L2C_prefetch_requested 163632
Core_0_L2C_prefetch_issued 163632
Core_0_L2C_prefetch_useful 7025
Core_0_L2C_prefetch_useless 67703
Core_0_L2C_prefetch_late 0
Core_0_L2C_prefetch_accuracy 0.0429317
Core_0_L2C_prefetch_coverage 0.00242482

Core_0_LLC_total_access 3002162
Core_0_LLC_total_hit 679030
Core_0_LLC_total_miss 2323132
Core_0_LLC_total_MPKI 46.4626
Core_0_LLC_total_miss_rate 0.77382
Core_0_LLC_demand_access 2890098
Core_0_LLC_demand_hit 636586
Core_0_LLC_demand_miss 2253512
Core_0_LLC_demand_MPKI 45.0702
Core_0_LLC_demand_miss_rate 0.779735
Core_0_LLC_load_access 2889748
Core_0_LLC_load_hit 636237
Core_0_LLC_load_miss 2253511
Core_0_LLC_load_MPKI 45.0702
Core_0_LLC_load_miss_rate 0.77983
Core_0_LLC_rfo_access 350
Core_0_LLC_rfo_hit 349
Core_0_LLC_rfo_miss 1
Core_0_LLC_rfo_MPKI 2e-05
Core_0_LLC_rfo_miss_rate 0.00285714
Core_0_LLC_prefetch_access 110838
Core_0_LLC_prefetch_hit 41233
Core_0_LLC_prefetch_miss 69605
Core_0_LLC_prefetch_MPKI 1.3921
Core_0_LLC_prefetch_miss_rate 0.627989
Core_0_LLC_writeback_access 1226
Core_0_LLC_writeback_hit 1211
Core_0_LLC_writeback_miss 15
Core_0_LLC_writeback_MPKI 0.0003
Core_0_LLC_writeback_miss_rate 0.0122349
Core_0_LLC_prefetch_requested 0
Core_0_LLC_prefetch_issued 0
Core_0_LLC_prefetch_useful 0
Core_0_LLC_prefetch_useless 0
Core_0_LLC_prefetch_late 0
Core_0_LLC_prefetch_accuracy 0
Core_0_LLC_prefetch_coverage 0

[DRAM Statistics]
Channel_0_RQ_row_buffer_hit 15762
Channel_0_RQ_row_buffer_miss 3078153
Channel_0_WQ_row_buffer_hit 2
Channel_0_WQ_row_buffer_miss 15
Channel_0_WQ_full 0
Channel_0_dbus_congested 3297152
DRAM_total_RQ_row_buffer_hit 15762
DRAM_total_RQ_row_buffer_miss 3078153
DRAM_total_WQ_row_buffer_hit 2
DRAM_total_WQ_row_buffer_miss 15
DRAM_total_WQ_full 0
DRAM_total_dbus_congested 3297152
DRAM_avg_congested_cycle 2.93725

====== DRAM_RQ_TRAFFIC ========
DRAM_RQ_READ_TRAFFIC_BREAKDOWN:
data_demand_read.count = 2253512
data_demand_read.share = 72.84%

inst_demand_read.count = 0
inst_demand_read.share = 0.00%

cache_inst_prefetch.count = 0
cache_inst_prefetch.share = 0.00%

cache_data_prefetch.count = 69605
cache_data_prefetch.share = 2.25%

stlb_data_demand.count = 770792
stlb_data_demand.share = 24.91%

stlb_inst_demand.count = 0
stlb_inst_demand.share = 0.00%

stlb_l1i_pref.count = 0
stlb_l1i_pref.share = 0.00%

stlb_l1d_pref.count = 6
stlb_l1d_pref.share = 0.00%

DRAM_RQ_READ_TRAFFIC_SUMMARY:
cache_demand.count = 2253512
cache_demand.share = 72.84%

cache_prefetch.count = 69605
cache_prefetch.share = 2.25%

stlb_demand.count = 770792
stlb_demand.share = 24.91%

stlb_prefetch.count = 6
stlb_prefetch.share = 0.00%

DRAM_RQ_READ_TRAFFIC_DEBUG:
total_classified_read.count = 3093915
unclassified_read.count = 0
total_read_with_other.count = 3093915

classified_plus_unclassified_check.count = 3093915
dram_rq_read_total_observed.count = 3093915
dram_rq_read_total_observed.per_1K_instructions = 61.8783

STLB_MISS_PTW_DRAM_TOUCH_BREAKDOWN:
stlb_miss_total.count = 1931004

stlb_miss_touch_dram.count = 771722
stlb_miss_touch_dram.share = 39.96%

stlb_miss_no_dram_touch.count = 1159282
stlb_miss_no_dram_touch.share = 60.04%

STLB_MISS_PTW_DRAM_TOUCH_DEBUG:
stlb_miss_touch_plus_no_touch.count = 1931004
stlb_miss_total_check.count = 1931004

======STLB miss causes ========
Core_0_STLB_miss_cause_breakdown
Core_0_STLB_cause_Demand_Data_miss 1930086
Core_0_STLB_cause_Demand_Data_miss_rate 0.967909
Core_0_STLB_cause_Demand_Instruction_miss 0
Core_0_STLB_cause_Demand_Instruction_miss_rate 0
Core_0_STLB_cause_L1D_Prefetch_miss 918
Core_0_STLB_cause_L1D_Prefetch_miss_rate 0.000460363
Core_0_STLB_cause_L1I_Prefetch_miss 0
Core_0_STLB_cause_L1I_Prefetch_miss_rate 0
Core_0_STLB_cause_Other_miss 0
Core_0_STLB_cause_Other_miss_rate 0
Core_0_STLB_Demand_miss 1930086
Core_0_STLB_Demand_miss_rate 0.967909
Core_0_STLB_L1D_Prefetch_miss 918
Core_0_STLB_L1D_Prefetch_miss_rate 0.000460363
Core_0_STLB_Other_miss 0
Core_0_STLB_Other_miss_rate 0
BERTI TO_L1: 675922 TO_L2: 812958 TO_L2_BC_MSHR: 0
BERTI AVG_LAT: 126.666 NUM_TRACK_LATENCY: 4242351 NUM_CANT_TRACK_LATENCY: 0
BERTI CROSS_PAGE 151948 NO_CROSS_PAGE: 1336932
BERTI FOUND_BERTI: 5894897 NO_FOUND_BERTI: 1810486
BERTI AVERAGE_ISSUED: 3.05049
