[VMEM] WARNING: physical memory size is smaller than virtual memory size.

*** ChampSim Multicore Out-of-Order Simulator ***
Warmup Instructions: 50000000
Simulation Instructions: 100000000
Number of CPUs: 1
Page size: 4096
Core 0: /data0/tzh/champsim_traces/SPEC17/623.xalancbmk_s-700B.champsimtrace.xz
VBerti Prefetcher
BERTI HASH ENTANGLING
BERTI IP MASK ffff
Off-chip DRAM Size: 16 GiB Channels: 1 Width: 64-bit Data Rate: 3205 MT/s
Warmup halting CPU 0 at instruction 50000001 cycle 11871088 for remainder of phase
Warmup finished CPU 0 instructions: 50000001 cycles: 11871088 cumulative IPC: 4.212 (Simulation time: 00 hr 02 min 51 sec)
Warmup complete CPU 0 instructions: 50000001 cycles: 11871088 cumulative IPC: 4.212 (Simulation time: 00 hr 02 min 51 sec)
Simulation finished CPU 0 instructions: 100000000 cycles: 96225022 cumulative IPC: 1.039 (Simulation time: 00 hr 15 min 43 sec)
Simulation complete CPU 0 instructions: 100000000 cycles: 96225022 cumulative IPC: 1.039 (Simulation time: 00 hr 15 min 43 sec)

ChampSim completed all CPUs

=== Simulation ===
CPU 0 runs /data0/tzh/champsim_traces/SPEC17/623.xalancbmk_s-700B.champsimtrace.xz

Region of Interest Statistics

CPU 0 cumulative IPC: 1.039 instructions: 100000000 cycles: 96225022
CPU 0 Branch Prediction Accuracy: 98.01% MPKI: 5.598 Average ROB Occupancy at Mispredict: 50.89
Branch type MPKI
BRANCH_DIRECT_JUMP: 0.1109
BRANCH_INDIRECT: 0.3288
BRANCH_CONDITIONAL: 3.331
BRANCH_DIRECT_CALL: 0.00102
BRANCH_INDIRECT_CALL: 0.3785
BRANCH_RETURN: 1.448

cpu0->cpu0_STLB TOTAL        ACCESS:    3125177 HIT:    2943539 MISS:     181638 MSHR_MERGE:          0
cpu0->cpu0_STLB LOAD         ACCESS:    3125177 HIT:    2943539 MISS:     181638 MSHR_MERGE:          0
cpu0->cpu0_STLB RFO          ACCESS:          0 HIT:          0 MISS:          0 MSHR_MERGE:          0
cpu0->cpu0_STLB PREFETCH     ACCESS:          0 HIT:          0 MISS:          0 MSHR_MERGE:          0
cpu0->cpu0_STLB WRITE        ACCESS:          0 HIT:          0 MISS:          0 MSHR_MERGE:          0
cpu0->cpu0_STLB TRANSLATION  ACCESS:          0 HIT:          0 MISS:          0 MSHR_MERGE:          0
cpu0->cpu0_STLB PREFETCH REQUESTED:          0 ISSUED:          0 USEFUL:          0 USELESS:          0 LATE:          0 TOO_EARLY:          0
cpu0->cpu0_STLB AVERAGE MISS LATENCY: 22.49 cycles
cpu0->cpu0_L2C TOTAL        ACCESS:    6160385 HIT:    5822197 MISS:     338188 MSHR_MERGE:      23768
cpu0->cpu0_L2C LOAD         ACCESS:    5029828 HIT:    4841518 MISS:     188310 MSHR_MERGE:         51
cpu0->cpu0_L2C RFO          ACCESS:     102131 HIT:      34286 MISS:      67845 MSHR_MERGE:       3568
cpu0->cpu0_L2C PREFETCH     ACCESS:     661840 HIT:     595318 MISS:      66522 MSHR_MERGE:      20149
cpu0->cpu0_L2C WRITE        ACCESS:     195019 HIT:     195019 MISS:          0 MSHR_MERGE:          0
cpu0->cpu0_L2C TRANSLATION  ACCESS:     171567 HIT:     156056 MISS:      15511 MSHR_MERGE:          0
cpu0->cpu0_L2C PREFETCH REQUESTED:     286763 ISSUED:     281775 USEFUL:       9219 USELESS:       2635 LATE:        505 TOO_EARLY:        252
cpu0->cpu0_L2C AVERAGE MISS LATENCY: 65.13 cycles
cpu0->cpu0_L1I TOTAL        ACCESS:   18118611 HIT:   17776661 MISS:     341950 MSHR_MERGE:     100599
cpu0->cpu0_L1I LOAD         ACCESS:   18118611 HIT:   17776661 MISS:     341950 MSHR_MERGE:     100599
cpu0->cpu0_L1I RFO          ACCESS:          0 HIT:          0 MISS:          0 MSHR_MERGE:          0
cpu0->cpu0_L1I PREFETCH     ACCESS:          0 HIT:          0 MISS:          0 MSHR_MERGE:          0
cpu0->cpu0_L1I WRITE        ACCESS:          0 HIT:          0 MISS:          0 MSHR_MERGE:          0
cpu0->cpu0_L1I TRANSLATION  ACCESS:          0 HIT:          0 MISS:          0 MSHR_MERGE:          0
cpu0->cpu0_L1I PREFETCH REQUESTED:          0 ISSUED:          0 USEFUL:          0 USELESS:          0 LATE:          0 TOO_EARLY:          0
cpu0->cpu0_L1I AVERAGE MISS LATENCY: 9.49 cycles
cpu0->cpu0_L1D TOTAL        ACCESS:   33609925 HIT:   26911484 MISS:    6698441 MSHR_MERGE:    1252458
cpu0->cpu0_L1D LOAD         ACCESS:   20247208 HIT:   14507631 MISS:    5739577 MSHR_MERGE:     951100
cpu0->cpu0_L1D RFO          ACCESS:          0 HIT:          0 MISS:          0 MSHR_MERGE:          0
cpu0->cpu0_L1D PREFETCH     ACCESS:    6116542 HIT:    5724281 MISS:     392261 MSHR_MERGE:       8455
cpu0->cpu0_L1D WRITE        ACCESS:    6882931 HIT:    6488489 MISS:     394442 MSHR_MERGE:     292309
cpu0->cpu0_L1D TRANSLATION  ACCESS:     363244 HIT:     191083 MISS:     172161 MSHR_MERGE:        594
cpu0->cpu0_L1D PREFETCH REQUESTED:   32482096 ISSUED:    8843986 USEFUL:     156955 USELESS:      17514 LATE:       4296 TOO_EARLY:        740
cpu0->cpu0_L1D AVERAGE MISS LATENCY: 11.63 cycles
cpu0->cpu0_ITLB TOTAL        ACCESS:   16959234 HIT:   16868644 MISS:      90590 MSHR_MERGE:      52303
cpu0->cpu0_ITLB LOAD         ACCESS:   16959234 HIT:   16868644 MISS:      90590 MSHR_MERGE:      52303
cpu0->cpu0_ITLB RFO          ACCESS:          0 HIT:          0 MISS:          0 MSHR_MERGE:          0
cpu0->cpu0_ITLB PREFETCH     ACCESS:          0 HIT:          0 MISS:          0 MSHR_MERGE:          0
cpu0->cpu0_ITLB WRITE        ACCESS:          0 HIT:          0 MISS:          0 MSHR_MERGE:          0
cpu0->cpu0_ITLB TRANSLATION  ACCESS:          0 HIT:          0 MISS:          0 MSHR_MERGE:          0
cpu0->cpu0_ITLB PREFETCH REQUESTED:          0 ISSUED:          0 USEFUL:          0 USELESS:          0 LATE:          0 TOO_EARLY:          0
cpu0->cpu0_ITLB AVERAGE MISS LATENCY: 6.511 cycles
cpu0->cpu0_DTLB TOTAL        ACCESS:   30915537 HIT:   26299832 MISS:    4615705 MSHR_MERGE:    1528814
cpu0->cpu0_DTLB LOAD         ACCESS:   30915537 HIT:   26299832 MISS:    4615705 MSHR_MERGE:    1528814
cpu0->cpu0_DTLB RFO          ACCESS:          0 HIT:          0 MISS:          0 MSHR_MERGE:          0
cpu0->cpu0_DTLB PREFETCH     ACCESS:          0 HIT:          0 MISS:          0 MSHR_MERGE:          0
cpu0->cpu0_DTLB WRITE        ACCESS:          0 HIT:          0 MISS:          0 MSHR_MERGE:          0
cpu0->cpu0_DTLB TRANSLATION  ACCESS:          0 HIT:          0 MISS:          0 MSHR_MERGE:          0
cpu0->cpu0_DTLB PREFETCH REQUESTED:          0 ISSUED:          0 USEFUL:          0 USELESS:          0 LATE:          0 TOO_EARLY:          0
cpu0->cpu0_DTLB AVERAGE MISS LATENCY: 6.366 cycles
cpu0->LLC TOTAL        ACCESS:     431142 HIT:     315731 MISS:     115411 MSHR_MERGE:        677
cpu0->LLC LOAD         ACCESS:     188259 HIT:     166361 MISS:      21898 MSHR_MERGE:          0
cpu0->LLC RFO          ACCESS:      64277 HIT:      18724 MISS:      45553 MSHR_MERGE:         27
cpu0->LLC PREFETCH     ACCESS:      46373 HIT:      16703 MISS:      29670 MSHR_MERGE:        650
cpu0->LLC WRITE        ACCESS:     116722 HIT:     100260 MISS:      16462 MSHR_MERGE:          0
cpu0->LLC TRANSLATION  ACCESS:      15511 HIT:      13683 MISS:       1828 MSHR_MERGE:          0
cpu0->LLC PREFETCH REQUESTED:          0 ISSUED:          0 USEFUL:          0 USELESS:          0 LATE:          0 TOO_EARLY:          0
cpu0->LLC AVERAGE MISS LATENCY: 153.8 cycles

DRAM Statistics

Channel 0 RQ ROW_BUFFER_HIT:       3220
  ROW_BUFFER_MISS:      95052
  AVG DBUS CONGESTED CYCLE: 9.634
Channel 0 WQ ROW_BUFFER_HIT:       8790
  ROW_BUFFER_MISS:      75899
  FULL:          0
Channel 0 REFRESHES ISSUED:       8019

[ROI Statistics]
[System Configuration]
num_cpus 1
cpu_freq 4000
fetch_width 6
decode_width 6
dispatch_width 6
execute_width 6
lq_width 2
sq_width 2
retire_width 6
scheduler_size 128
branch_mispredict_penalty 15
rob_size 352
lq_size 128
sq_size 72
ifetch_buffer_size 64
decode_buffer_size 32
dispatch_buffer_size 32
register_file_size 288
decode_latency 1
dispatch_latency 1
schedule_latency 1
execute_latency 1
page_size 4096
block_size 64
core_0_itlb_set 16
core_0_itlb_way 4
core_0_itlb_rq_size 16
core_0_itlb_wq_size 16
core_0_itlb_pq_size 0
core_0_itlb_mshr_size 8
core_0_itlb_hit_latency 1
core_0_itlb_fill_latency 1
core_0_itlb_max_tag_check 2
core_0_itlb_max_fill 2
core_0_dtlb_set 16
core_0_dtlb_way 4
core_0_dtlb_rq_size 16
core_0_dtlb_wq_size 16
core_0_dtlb_pq_size 0
core_0_dtlb_mshr_size 8
core_0_dtlb_hit_latency 1
core_0_dtlb_fill_latency 1
core_0_dtlb_max_tag_check 2
core_0_dtlb_max_fill 2
core_0_stlb_set 128
core_0_stlb_way 12
core_0_stlb_rq_size 32
core_0_stlb_wq_size 32
core_0_stlb_pq_size 0
core_0_stlb_mshr_size 16
core_0_stlb_hit_latency 4
core_0_stlb_fill_latency 4
core_0_stlb_max_tag_check 1
core_0_stlb_max_fill 1
core_0_l1i_set 64
core_0_l1i_way 8
core_0_l1i_rq_size 64
core_0_l1i_wq_size 64
core_0_l1i_pq_size 32
core_0_l1i_mshr_size 8
core_0_l1i_hit_latency 2
core_0_l1i_fill_latency 2
core_0_l1i_max_tag_check 2
core_0_l1i_max_fill 2
core_0_l1d_set 64
core_0_l1d_way 12
core_0_l1d_rq_size 64
core_0_l1d_wq_size 64
core_0_l1d_pq_size 8
core_0_l1d_mshr_size 16
core_0_l1d_hit_latency 2
core_0_l1d_fill_latency 3
core_0_l1d_max_tag_check 2
core_0_l1d_max_fill 2
core_0_l2c_set 1024
core_0_l2c_way 8
core_0_l2c_rq_size 32
core_0_l2c_wq_size 32
core_0_l2c_pq_size 16
core_0_l2c_mshr_size 32
core_0_l2c_hit_latency 5
core_0_l2c_fill_latency 5
core_0_l2c_max_tag_check 1
core_0_l2c_max_fill 1
llc_set 2048
llc_way 16
llc_rq_size 32
llc_wq_size 32
llc_pq_size 32
llc_mshr_size 64
llc_hit_latency 10
llc_fill_latency 10
llc_max_tag_check 1
llc_max_fill 1
dram_channels 1
dram_ranks 1
dram_bankgroups 8
dram_banks 4
dram_rows 65536
dram_columns 1024
dram_channel_width 8
dram_rq_size 64
dram_wq_size 64
dram_size 17179869184
core_0_itlb_prefetcher no
core_0_dtlb_prefetcher no
core_0_stlb_prefetcher no
core_0_l1i_prefetcher next_line
core_0_l1d_prefetcher vberti
core_0_l2c_prefetcher ip_stride
llc_prefetcher no
llc_replacement drrip

Core_0_instructions 100000000
Core_0_cycles 96225022
Core_0_IPC 1.03923
Core_0_branch_prediction_accuracy 98.0138
Core_0_branch_MPKI 5.59818
Core_0_average_ROB_occupancy_at_mispredict 50.891

Core_0_ITLB_total_access 16959234
Core_0_ITLB_total_hit 16868644
Core_0_ITLB_total_miss 90590
Core_0_ITLB_total_MPKI 0.9059
Core_0_ITLB_total_miss_rate 0.00534163
Core_0_ITLB_demand_access 16959234
Core_0_ITLB_demand_hit 16868644
Core_0_ITLB_demand_miss 90590
Core_0_ITLB_demand_MPKI 0.9059
Core_0_ITLB_demand_miss_rate 0.00534163
Core_0_ITLB_load_access 16959234
Core_0_ITLB_load_hit 16868644
Core_0_ITLB_load_miss 90590
Core_0_ITLB_load_MPKI 0.9059
Core_0_ITLB_load_miss_rate 0.00534163
Core_0_ITLB_rfo_access 0
Core_0_ITLB_rfo_hit 0
Core_0_ITLB_rfo_miss 0
Core_0_ITLB_rfo_MPKI 0
Core_0_ITLB_rfo_miss_rate 0
Core_0_ITLB_prefetch_access 0
Core_0_ITLB_prefetch_hit 0
Core_0_ITLB_prefetch_miss 0
Core_0_ITLB_prefetch_MPKI 0
Core_0_ITLB_prefetch_miss_rate 0
Core_0_ITLB_writeback_access 0
Core_0_ITLB_writeback_hit 0
Core_0_ITLB_writeback_miss 0
Core_0_ITLB_writeback_MPKI 0
Core_0_ITLB_writeback_miss_rate 0
Core_0_ITLB_prefetch_requested 0
Core_0_ITLB_prefetch_issued 0
Core_0_ITLB_prefetch_useful 0
Core_0_ITLB_prefetch_useless 0
Core_0_ITLB_prefetch_late 0
Core_0_ITLB_prefetch_fill 0
Core_0_ITLB_prefetch_too_early 0
Core_0_ITLB_prefetch_too_early_among_fill 0
Core_0_ITLB_prefetch_too_early_among_useless 0
Core_0_ITLB_prefetch_pollution_evict 0
Core_0_ITLB_prefetch_pollution_demand 0
Core_0_ITLB_prefetch_pollution_among_prefetch_fill 0
Core_0_ITLB_prefetch_accuracy 0
Core_0_ITLB_prefetch_coverage 0

Core_0_DTLB_total_access 30915537
Core_0_DTLB_total_hit 26299832
Core_0_DTLB_total_miss 4615705
Core_0_DTLB_total_MPKI 46.157
Core_0_DTLB_total_miss_rate 0.1493
Core_0_DTLB_demand_access 30915537
Core_0_DTLB_demand_hit 26299832
Core_0_DTLB_demand_miss 4615705
Core_0_DTLB_demand_MPKI 46.157
Core_0_DTLB_demand_miss_rate 0.1493
Core_0_DTLB_load_access 30915537
Core_0_DTLB_load_hit 26299832
Core_0_DTLB_load_miss 4615705
Core_0_DTLB_load_MPKI 46.157
Core_0_DTLB_load_miss_rate 0.1493
Core_0_DTLB_rfo_access 0
Core_0_DTLB_rfo_hit 0
Core_0_DTLB_rfo_miss 0
Core_0_DTLB_rfo_MPKI 0
Core_0_DTLB_rfo_miss_rate 0
Core_0_DTLB_prefetch_access 0
Core_0_DTLB_prefetch_hit 0
Core_0_DTLB_prefetch_miss 0
Core_0_DTLB_prefetch_MPKI 0
Core_0_DTLB_prefetch_miss_rate 0
Core_0_DTLB_writeback_access 0
Core_0_DTLB_writeback_hit 0
Core_0_DTLB_writeback_miss 0
Core_0_DTLB_writeback_MPKI 0
Core_0_DTLB_writeback_miss_rate 0
Core_0_DTLB_prefetch_requested 0
Core_0_DTLB_prefetch_issued 0
Core_0_DTLB_prefetch_useful 0
Core_0_DTLB_prefetch_useless 0
Core_0_DTLB_prefetch_late 0
Core_0_DTLB_prefetch_fill 0
Core_0_DTLB_prefetch_too_early 0
Core_0_DTLB_prefetch_too_early_among_fill 0
Core_0_DTLB_prefetch_too_early_among_useless 0
Core_0_DTLB_prefetch_pollution_evict 0
Core_0_DTLB_prefetch_pollution_demand 0
Core_0_DTLB_prefetch_pollution_among_prefetch_fill 0
Core_0_DTLB_prefetch_accuracy 0
Core_0_DTLB_prefetch_coverage 0

Core_0_STLB_total_access 3125177
Core_0_STLB_total_hit 2943539
Core_0_STLB_total_miss 181638
Core_0_STLB_total_MPKI 1.81638
Core_0_STLB_total_miss_rate 0.0581209
Core_0_STLB_demand_access 3125177
Core_0_STLB_demand_hit 2943539
Core_0_STLB_demand_miss 181638
Core_0_STLB_demand_MPKI 1.81638
Core_0_STLB_demand_miss_rate 0.0581209
Core_0_STLB_load_access 3125177
Core_0_STLB_load_hit 2943539
Core_0_STLB_load_miss 181638
Core_0_STLB_load_MPKI 1.81638
Core_0_STLB_load_miss_rate 0.0581209
Core_0_STLB_rfo_access 0
Core_0_STLB_rfo_hit 0
Core_0_STLB_rfo_miss 0
Core_0_STLB_rfo_MPKI 0
Core_0_STLB_rfo_miss_rate 0
Core_0_STLB_prefetch_access 0
Core_0_STLB_prefetch_hit 0
Core_0_STLB_prefetch_miss 0
Core_0_STLB_prefetch_MPKI 0
Core_0_STLB_prefetch_miss_rate 0
Core_0_STLB_writeback_access 0
Core_0_STLB_writeback_hit 0
Core_0_STLB_writeback_miss 0
Core_0_STLB_writeback_MPKI 0
Core_0_STLB_writeback_miss_rate 0
Core_0_STLB_prefetch_requested 0
Core_0_STLB_prefetch_issued 0
Core_0_STLB_prefetch_useful 0
Core_0_STLB_prefetch_useless 0
Core_0_STLB_prefetch_late 0
Core_0_STLB_prefetch_fill 0
Core_0_STLB_prefetch_too_early 0
Core_0_STLB_prefetch_too_early_among_fill 0
Core_0_STLB_prefetch_too_early_among_useless 0
Core_0_STLB_prefetch_pollution_evict 0
Core_0_STLB_prefetch_pollution_demand 0
Core_0_STLB_prefetch_pollution_among_prefetch_fill 0
Core_0_STLB_prefetch_accuracy 0
Core_0_STLB_prefetch_coverage 0

Core_0_L1I_total_access 18118611
Core_0_L1I_total_hit 17776661
Core_0_L1I_total_miss 341950
Core_0_L1I_total_MPKI 3.4195
Core_0_L1I_total_miss_rate 0.0188729
Core_0_L1I_demand_access 18118611
Core_0_L1I_demand_hit 17776661
Core_0_L1I_demand_miss 341950
Core_0_L1I_demand_MPKI 3.4195
Core_0_L1I_demand_miss_rate 0.0188729
Core_0_L1I_load_access 18118611
Core_0_L1I_load_hit 17776661
Core_0_L1I_load_miss 341950
Core_0_L1I_load_MPKI 3.4195
Core_0_L1I_load_miss_rate 0.0188729
Core_0_L1I_rfo_access 0
Core_0_L1I_rfo_hit 0
Core_0_L1I_rfo_miss 0
Core_0_L1I_rfo_MPKI 0
Core_0_L1I_rfo_miss_rate 0
Core_0_L1I_prefetch_access 0
Core_0_L1I_prefetch_hit 0
Core_0_L1I_prefetch_miss 0
Core_0_L1I_prefetch_MPKI 0
Core_0_L1I_prefetch_miss_rate 0
Core_0_L1I_writeback_access 0
Core_0_L1I_writeback_hit 0
Core_0_L1I_writeback_miss 0
Core_0_L1I_writeback_MPKI 0
Core_0_L1I_writeback_miss_rate 0
Core_0_L1I_prefetch_requested 0
Core_0_L1I_prefetch_issued 0
Core_0_L1I_prefetch_useful 0
Core_0_L1I_prefetch_useless 0
Core_0_L1I_prefetch_late 0
Core_0_L1I_prefetch_fill 0
Core_0_L1I_prefetch_too_early 0
Core_0_L1I_prefetch_too_early_among_fill 0
Core_0_L1I_prefetch_too_early_among_useless 0
Core_0_L1I_prefetch_pollution_evict 0
Core_0_L1I_prefetch_pollution_demand 0
Core_0_L1I_prefetch_pollution_among_prefetch_fill 0
Core_0_L1I_prefetch_accuracy 0
Core_0_L1I_prefetch_coverage 0

Core_0_L1D_total_access 33246681
Core_0_L1D_total_hit 26720401
Core_0_L1D_total_miss 6526280
Core_0_L1D_total_MPKI 65.2628
Core_0_L1D_total_miss_rate 0.196299
Core_0_L1D_demand_access 20247208
Core_0_L1D_demand_hit 14507631
Core_0_L1D_demand_miss 5739577
Core_0_L1D_demand_MPKI 57.3958
Core_0_L1D_demand_miss_rate 0.283475
Core_0_L1D_load_access 20247208
Core_0_L1D_load_hit 14507631
Core_0_L1D_load_miss 5739577
Core_0_L1D_load_MPKI 57.3958
Core_0_L1D_load_miss_rate 0.283475
Core_0_L1D_rfo_access 0
Core_0_L1D_rfo_hit 0
Core_0_L1D_rfo_miss 0
Core_0_L1D_rfo_MPKI 0
Core_0_L1D_rfo_miss_rate 0
Core_0_L1D_prefetch_access 6116542
Core_0_L1D_prefetch_hit 5724281
Core_0_L1D_prefetch_miss 392261
Core_0_L1D_prefetch_MPKI 3.92261
Core_0_L1D_prefetch_miss_rate 0.0641312
Core_0_L1D_writeback_access 6882931
Core_0_L1D_writeback_hit 6488489
Core_0_L1D_writeback_miss 394442
Core_0_L1D_writeback_MPKI 3.94442
Core_0_L1D_writeback_miss_rate 0.0573073
Core_0_L1D_prefetch_requested 32482096
Core_0_L1D_prefetch_issued 8843986
Core_0_L1D_prefetch_useful 156955
Core_0_L1D_prefetch_useless 17514
Core_0_L1D_prefetch_late 4296
Core_0_L1D_prefetch_fill 170170
Core_0_L1D_prefetch_too_early 740
Core_0_L1D_prefetch_too_early_among_fill 0.00434859
Core_0_L1D_prefetch_too_early_among_useless 0.0422519
Core_0_L1D_prefetch_pollution_evict 161904
Core_0_L1D_prefetch_pollution_demand 161904
Core_0_L1D_cross_page_pf_translation_only_requested 8986097
Core_0_L1D_cross_page_pf_translation_only_issued 2727444
Core_0_L1D_cross_page_pf_translation_only_dropped 2727444
Core_0_L1D_prefetch_pollution_among_prefetch_fill 0.951425
Core_0_L1D_prefetch_accuracy 0.0177471
Core_0_L1D_prefetch_coverage 0.0266182

Core_0_L2C_total_access 5988818
Core_0_L2C_total_hit 5666141
Core_0_L2C_total_miss 322677
Core_0_L2C_total_MPKI 3.22677
Core_0_L2C_total_miss_rate 0.0538799
Core_0_L2C_demand_access 5131959
Core_0_L2C_demand_hit 4875804
Core_0_L2C_demand_miss 256155
Core_0_L2C_demand_MPKI 2.56155
Core_0_L2C_demand_miss_rate 0.0499137
Core_0_L2C_load_access 5029828
Core_0_L2C_load_hit 4841518
Core_0_L2C_load_miss 188310
Core_0_L2C_load_MPKI 1.8831
Core_0_L2C_load_miss_rate 0.0374387
Core_0_L2C_rfo_access 102131
Core_0_L2C_rfo_hit 34286
Core_0_L2C_rfo_miss 67845
Core_0_L2C_rfo_MPKI 0.67845
Core_0_L2C_rfo_miss_rate 0.664294
Core_0_L2C_prefetch_access 661840
Core_0_L2C_prefetch_hit 595318
Core_0_L2C_prefetch_miss 66522
Core_0_L2C_prefetch_MPKI 0.66522
Core_0_L2C_prefetch_miss_rate 0.100511
Core_0_L2C_writeback_access 195019
Core_0_L2C_writeback_hit 195019
Core_0_L2C_writeback_miss 0
Core_0_L2C_writeback_MPKI 0
Core_0_L2C_writeback_miss_rate 0
Core_0_L2C_prefetch_requested 286763
Core_0_L2C_prefetch_issued 281775
Core_0_L2C_prefetch_useful 9219
Core_0_L2C_prefetch_useless 2635
Core_0_L2C_prefetch_late 505
Core_0_L2C_prefetch_fill 41237
Core_0_L2C_prefetch_too_early 252
Core_0_L2C_prefetch_too_early_among_fill 0.00611102
Core_0_L2C_prefetch_too_early_among_useless 0.0956357
Core_0_L2C_prefetch_pollution_evict 13803
Core_0_L2C_prefetch_pollution_demand 13779
Core_0_L2C_prefetch_pollution_among_prefetch_fill 0.334724
Core_0_L2C_prefetch_accuracy 0.0327176
Core_0_L2C_prefetch_coverage 0.0347397

Core_0_LLC_total_access 415631
Core_0_LLC_total_hit 302048
Core_0_LLC_total_miss 113583
Core_0_LLC_total_MPKI 1.13583
Core_0_LLC_total_miss_rate 0.273278
Core_0_LLC_demand_access 252536
Core_0_LLC_demand_hit 185085
Core_0_LLC_demand_miss 67451
Core_0_LLC_demand_MPKI 0.67451
Core_0_LLC_demand_miss_rate 0.267095
Core_0_LLC_load_access 188259
Core_0_LLC_load_hit 166361
Core_0_LLC_load_miss 21898
Core_0_LLC_load_MPKI 0.21898
Core_0_LLC_load_miss_rate 0.116318
Core_0_LLC_rfo_access 64277
Core_0_LLC_rfo_hit 18724
Core_0_LLC_rfo_miss 45553
Core_0_LLC_rfo_MPKI 0.45553
Core_0_LLC_rfo_miss_rate 0.708698
Core_0_LLC_prefetch_access 46373
Core_0_LLC_prefetch_hit 16703
Core_0_LLC_prefetch_miss 29670
Core_0_LLC_prefetch_MPKI 0.2967
Core_0_LLC_prefetch_miss_rate 0.639812
Core_0_LLC_writeback_access 116722
Core_0_LLC_writeback_hit 100260
Core_0_LLC_writeback_miss 16462
Core_0_LLC_writeback_MPKI 0.16462
Core_0_LLC_writeback_miss_rate 0.141036
Core_0_LLC_prefetch_requested 0
Core_0_LLC_prefetch_issued 0
Core_0_LLC_prefetch_useful 0
Core_0_LLC_prefetch_useless 0
Core_0_LLC_prefetch_late 0
Core_0_LLC_prefetch_fill 28993
Core_0_LLC_prefetch_too_early 0
Core_0_LLC_prefetch_too_early_among_fill 0
Core_0_LLC_prefetch_too_early_among_useless 0
Core_0_LLC_prefetch_pollution_evict 10137
Core_0_LLC_prefetch_pollution_demand 10137
Core_0_LLC_prefetch_pollution_among_prefetch_fill 0.349636
Core_0_LLC_prefetch_accuracy 0
Core_0_LLC_prefetch_coverage 0

[DRAM Statistics]
Channel_0_RQ_row_buffer_hit 3220
Channel_0_RQ_row_buffer_miss 95052
Channel_0_WQ_row_buffer_hit 8790
Channel_0_WQ_row_buffer_miss 75899
Channel_0_WQ_full 0
Channel_0_dbus_congested 474821
DRAM_total_RQ_row_buffer_hit 3220
DRAM_total_RQ_row_buffer_miss 95052
DRAM_total_WQ_row_buffer_hit 8790
DRAM_total_WQ_row_buffer_miss 75899
DRAM_total_WQ_full 0
DRAM_total_dbus_congested 474821
DRAM_avg_congested_cycle 9.63449

====== DRAM_RQ_TRAFFIC ========
DRAM_RQ_READ_TRAFFIC_BREAKDOWN:
data_demand_read.count = 65070
data_demand_read.share = 66.21%

inst_demand_read.count = 2354
inst_demand_read.share = 2.40%

cache_inst_prefetch.count = 0
cache_inst_prefetch.share = 0.00%

cache_data_prefetch.count = 29020
cache_data_prefetch.share = 29.53%

stlb_data_demand.count = 1658
stlb_data_demand.share = 1.69%

stlb_inst_demand.count = 64
stlb_inst_demand.share = 0.07%

stlb_l1i_pref.count = 0
stlb_l1i_pref.share = 0.00%

stlb_l1d_pref.count = 106
stlb_l1d_pref.share = 0.11%

DRAM_RQ_READ_TRAFFIC_SUMMARY:
cache_demand.count = 67424
cache_demand.share = 68.61%

cache_prefetch.count = 29020
cache_prefetch.share = 29.53%

stlb_demand.count = 1722
stlb_demand.share = 1.75%

stlb_prefetch.count = 106
stlb_prefetch.share = 0.11%

DRAM_RQ_READ_TRAFFIC_DEBUG:
total_classified_read.count = 98272
unclassified_read.count = 0
total_read_with_other.count = 98272

classified_plus_unclassified_check.count = 98272
dram_rq_read_total_observed.count = 98272
dram_rq_read_total_observed.per_1K_instructions = 0.98272

STLB_MISS_PTW_DRAM_TOUCH_BREAKDOWN:
stlb_miss_total.count = 181638

stlb_miss_touch_dram.count = 1828
stlb_miss_touch_dram.share = 1.01%

stlb_miss_no_dram_touch.count = 179810
stlb_miss_no_dram_touch.share = 98.99%

STLB_MISS_PTW_DRAM_TOUCH_DEBUG:
stlb_miss_touch_plus_no_touch.count = 181638
stlb_miss_total_check.count = 181638

======STLB miss causes ========
Core_0_STLB_miss_cause_breakdown
Core_0_STLB_cause_Demand_Data_miss 174828
Core_0_STLB_cause_Demand_Data_miss_rate 0.0559418
Core_0_STLB_cause_Demand_Instruction_miss 1767
Core_0_STLB_cause_Demand_Instruction_miss_rate 0.000565408
Core_0_STLB_cause_L1D_Prefetch_miss 5043
Core_0_STLB_cause_L1D_Prefetch_miss_rate 0.00161367
Core_0_STLB_cause_L1D_Prefetch_Same_Page_miss 0
Core_0_STLB_cause_L1D_Prefetch_Same_Page_miss_rate 0
Core_0_STLB_cause_L1D_Prefetch_Cross_Page_miss 5043
Core_0_STLB_cause_L1D_Prefetch_Cross_Page_miss_rate 0.00161367
Core_0_STLB_cause_L1I_Prefetch_miss 0
Core_0_STLB_cause_L1I_Prefetch_miss_rate 0
Core_0_STLB_cause_Other_miss 0
Core_0_STLB_cause_Other_miss_rate 0
Core_0_STLB_Demand_miss 176595
Core_0_STLB_Demand_miss_rate 0.0565072
Core_0_STLB_L1D_Prefetch_miss 5043
Core_0_STLB_L1D_Prefetch_miss_rate 0.00161367
Core_0_STLB_Other_miss 0
Core_0_STLB_Other_miss_rate 0

========== vBerti-TLB Cross-page Flow Stats ==========

Core_0_vBerti_Requested 32482096
Core_0_vBerti_Cross_page_prefetch_in_Requested 8986097
Core_0_vBerti_Same_page_prefetch_in_Requested 23495999
Core_0_vBerti_Cross_page_prefetch_of_Requested 0.276648
Core_0_vBerti_Issued 8843986
Core_0_vBerti_InPQ_Same_page_prefetch 6116542
Core_0_vBerti_InPQ_Cross_page_prefetch 2727444
Core_0_vBerti_PQ_Drop_Rate 0.727727
Core_0_vBerti_InPQ_Cross_page_prefetch_of_Requested 0.0839676
Core_0_vBerti_Cross_page_PQ_Drop_rate 0.696482
Core_0_vBerti_Cross_page_prefetch_of_Issued 0.308395
Core_0_CP_PF_PQFULL_drop 6258653
Core_0_CP_PF_PQFULL_TLB_rescue_enqueued 0
Core_0_CP_PF_PQFULL_TLB_rescue_issued 0
Core_0_CP_PF_PQFULL_TLB_rescue_translated 0

========= DTLB_vBerti Prefetch Stats =========
Core_0_DTLB_demand_access 25635060
Core_0_DTLB_demand_hit 21109236
Core_0_DTLB_demand_miss 4525824
Core_0_DTLB_demand_mshr_merge 1513558
Core_0_DTLB_demand_fill 3013115
Core_0_DTLB_demand_miss_rate 0.176548
Core_0_DTLB_demand_mpki 45.2582
Core_0_DTLB_vberti_prefetch_access 5280477
Core_0_DTLB_vberti_prefetch_hit 5190596
Core_0_DTLB_vberti_prefetch_miss 89881
Core_0_DTLB_vberti_prefetch_mshr_merge 15256
Core_0_DTLB_vberti_prefetch_fill 73775
Core_0_DTLB_vberti_prefetch_miss_rate 0.0170214
Core_0_DTLB_vberti_prefetch_mpki 0.89881

=== DTLB_vBerti Same/Cross-page Prefetch Stats ===
Core_0_DTLB_vberti_same_page_prefetch 3275966
Core_0_DTLB_vberti_same_page_prefetch_hit 3275965
Core_0_DTLB_vberti_same_page_prefetch_miss 1
Core_0_DTLB_vberti_same_page_prefetch_mshr_merge 0
Core_0_DTLB_vberti_same_page_prefetch_fill 1
Core_0_DTLB_vberti_same_page_prefetch_miss_rate 3.05253e-07
Core_0_DTLB_vberti_same_page_prefetch_mpki 1e-05
Core_0_DTLB_vberti_cross_page_prefetch 2004511
Core_0_DTLB_vberti_cross_page_prefetch_hit 1914631
Core_0_DTLB_vberti_cross_page_prefetch_miss 89880
Core_0_DTLB_vberti_cross_page_prefetch_mshr_merge 15256
Core_0_DTLB_vberti_cross_page_prefetch_fill 73774
Core_0_DTLB_vberti_cross_page_prefetch_miss_rate 0.0448389
Core_0_DTLB_vberti_cross_page_prefetch_mpki 0.8988
Core_0_DTLB_same_page_prefetch_miss_rate 3.05253e-07
Core_0_DTLB_same_page_prefetch_mpki 1e-05
Core_0_DTLB_cross_page_prefetch_miss_rate 0.0448389
Core_0_DTLB_cross_page_prefetch_mpki 0.8988
Core_0_DTLB_cross_page_prefetch_issued 2004511
Core_0_DTLB_cross_page_prefetch_lookups 2004511
Core_0_DTLB_cross_page_prefetch_useful 24291
Core_0_DTLB_cross_page_prefetch_useless 50333
Core_0_DTLB_cross_page_prefetch_late 850
Core_0_DTLB_cross_page_prefetch_too_early 6637
Core_0_DTLB_cross_page_prefetch_too_early_among_fill 0.0899639
Core_0_DTLB_cross_page_prefetch_too_early_among_useless 0.131862
Core_0_DTLB_cross_page_prefetch_pollution_evict 65061
Core_0_DTLB_cross_page_prefetch_pollution_demand 64322
Core_0_DTLB_cross_page_prefetch_pollution_among_prefetch_fill 0.881896
Core_0_DTLB_cross_page_prefetch_accuracy 0.0121182
Core_0_DTLB_cross_page_prefetch_coverage 0.00533855

========= STLB_vBerti Prefetch Stats =========
Core_0_STLB_demand_access 3050552
Core_0_STLB_demand_hit 2873957
Core_0_STLB_demand_miss 176595
Core_0_STLB_demand_mshr_merge 0
Core_0_STLB_demand_fill 176595
Core_0_STLB_demand_miss_rate 0.0578895
Core_0_STLB_demand_mpki 1.76595
Core_0_STLB_vberti_prefetch_access 74625
Core_0_STLB_vberti_prefetch_hit 69582
Core_0_STLB_vberti_prefetch_miss 5043
Core_0_STLB_vberti_prefetch_mshr_merge 0
Core_0_STLB_vberti_prefetch_fill 5043
Core_0_STLB_vberti_prefetch_miss_rate 0.0675779
Core_0_STLB_vberti_prefetch_mpki 0.05043

=== STLB_vBerti Same/Cross-page Prefetch Stats ===
Core_0_STLB_vberti_same_page_prefetch 1
Core_0_STLB_vberti_same_page_prefetch_hit 1
Core_0_STLB_vberti_same_page_prefetch_miss 0
Core_0_STLB_vberti_same_page_prefetch_mshr_merge 0
Core_0_STLB_vberti_same_page_prefetch_fill 0
Core_0_STLB_vberti_same_page_prefetch_miss_rate 0
Core_0_STLB_vberti_same_page_prefetch_mpki 0
Core_0_STLB_vberti_cross_page_prefetch 74624
Core_0_STLB_vberti_cross_page_prefetch_hit 69581
Core_0_STLB_vberti_cross_page_prefetch_miss 5043
Core_0_STLB_vberti_cross_page_prefetch_mshr_merge 0
Core_0_STLB_vberti_cross_page_prefetch_fill 5043
Core_0_STLB_vberti_cross_page_prefetch_miss_rate 0.0675788
Core_0_STLB_vberti_cross_page_prefetch_mpki 0.05043
Core_0_STLB_same_page_prefetch_miss_rate 0
Core_0_STLB_same_page_prefetch_mpki 0
Core_0_STLB_cross_page_prefetch_miss_rate 0.0675788
Core_0_STLB_cross_page_prefetch_mpki 0.05043
Core_0_STLB_cross_page_prefetch_issued 74624
Core_0_STLB_cross_page_prefetch_lookups 74624
Core_0_STLB_cross_page_prefetch_useful 1973
Core_0_STLB_cross_page_prefetch_useless 3070
Core_0_STLB_cross_page_prefetch_late 0
Core_0_STLB_cross_page_prefetch_too_early 233
Core_0_STLB_cross_page_prefetch_too_early_among_fill 0.0462027
Core_0_STLB_cross_page_prefetch_too_early_among_useless 0.0758958
Core_0_STLB_cross_page_prefetch_pollution_evict 3867
Core_0_STLB_cross_page_prefetch_pollution_demand 3732
Core_0_STLB_cross_page_prefetch_pollution_among_prefetch_fill 0.766805
Core_0_STLB_cross_page_prefetch_accuracy 0.0264392
Core_0_STLB_cross_page_prefetch_coverage 0.011049

========= STLB Cross-page Prefetch Buffer Stats =========
Core_0_STLB_raw_demand_miss 174828
Core_0_CP_PB_insert 0
Core_0_CP_PB_demand_hit 0
Core_0_STLB_PB_demand_miss 174828
Core_0_CP_PB_coverage 0
Core_0_STLB_raw_demand_mpki 1.74828
Core_0_STLB_PB_demand_mpki 1.74828
Core_0_CP_PB_demand_hit_mpki 0

Core_0_TLB_demand_miss_rate 0.00688881
Core_0_TLB_demand_mpki 1.76595
Core_0_TLB_same_page_prefetch_miss_rate 0
Core_0_TLB_same_page_prefetch_mpki 0
Core_0_TLB_cross_page_prefetch_miss_rate 0.00251583
Core_0_TLB_cross_page_prefetch_mpki 0.05043
Core_0_TLB_cross_page_prefetch_issued 2004511
Core_0_TLB_cross_page_prefetch_lookups 2004511
Core_0_TLB_cross_page_prefetch_useful 494
Core_0_TLB_cross_page_prefetch_useless 41411
Core_0_TLB_cross_page_prefetch_late 2
Core_0_TLB_cross_page_prefetch_too_early 4872
Core_0_TLB_cross_page_prefetch_too_early_among_fill 0.0618141
Core_0_TLB_cross_page_prefetch_too_early_among_useless 0.11765
Core_0_TLB_cross_page_prefetch_accuracy 0.000246444
Core_0_TLB_cross_page_prefetch_coverage 0.00278956
====== vBerti internal metric ========
Core_0_vBerti_end_to_end_issued 6116542
Core_0_vBerti_end_to_end_useful 16315
Core_0_vBerti_end_to_end_late 4390
Core_0_vBerti_end_to_end_accuracy 0.00266736
Core_0_vBerti_end_to_end_timely_accuracy 0.00194963
BERTI TO_L1: 16740399 TO_L2: 6755600 TO_L2_BC_MSHR: 47438
BERTI AVG_LAT: 13.2611 NUM_TRACK_LATENCY: 5063907 NUM_CANT_TRACK_LATENCY: 0
BERTI CROSS_PAGE 8986097 NO_CROSS_PAGE: 23495999
BERTI FOUND_BERTI: 14643665 NO_FOUND_BERTI: 12748006
BERTI AVERAGE_ISSUED: 2.36713
