[VMEM] WARNING: physical memory size is smaller than virtual memory size.

*** ChampSim Multicore Out-of-Order Simulator ***
Warmup Instructions: 20000000
Simulation Instructions: 50000000
Number of CPUs: 1
Page size: 4096
STLB ideal mode: off
STLB ideal fill: off
Core 0: /data0/tzh/champsim_traces/QMM/compute_fp_5_new.xz
 L1D Berti prefetcher
Off-chip DRAM Size: 16 GiB Channels: 1 Width: 64-bit Data Rate: 3205 MT/s
Warmup halting CPU 0 at instruction 20000002 cycle 6656570 for remainder of phase
Warmup finished CPU 0 instructions: 20000002 cycles: 6656570 cumulative IPC: 3.005 (Simulation time: 00 hr 01 min 19 sec)
Warmup complete CPU 0 instructions: 20000002 cycles: 6656570 cumulative IPC: 3.005 (Simulation time: 00 hr 01 min 19 sec)
*** Reached end of trace: (0, "/data0/tzh/champsim_traces/QMM/compute_fp_5_new.xz")
[BTB] WARNING: target of return is a lower address than the corresponding call. This is usually a problem with your trace.
*** Reached end of trace: (0, "/data0/tzh/champsim_traces/QMM/compute_fp_5_new.xz")
[BTB] WARNING: target of return is a lower address than the corresponding call. This is usually a problem with your trace.
Simulation finished CPU 0 instructions: 50000003 cycles: 54685134 cumulative IPC: 0.9143 (Simulation time: 00 hr 09 min 45 sec)
Simulation complete CPU 0 instructions: 50000003 cycles: 54685134 cumulative IPC: 0.9143 (Simulation time: 00 hr 09 min 45 sec)

ChampSim completed all CPUs

=== Simulation ===
CPU 0 runs /data0/tzh/champsim_traces/QMM/compute_fp_5_new.xz

Region of Interest Statistics

CPU 0 cumulative IPC: 0.9143 instructions: 50000003 cycles: 54685134
CPU 0 Branch Prediction Accuracy: 100% MPKI: 0.00054 Average ROB Occupancy at Mispredict: 279.1
Branch type MPKI
BRANCH_DIRECT_JUMP: 0
BRANCH_INDIRECT: 0.0001
BRANCH_CONDITIONAL: 0.00038
BRANCH_DIRECT_CALL: 0
BRANCH_INDIRECT_CALL: 2e-05
BRANCH_RETURN: 4e-05

cpu0->cpu0_STLB TOTAL        ACCESS:     368619 HIT:     242864 MISS:     125755 MSHR_MERGE:          0
cpu0->cpu0_STLB LOAD         ACCESS:     368619 HIT:     242864 MISS:     125755 MSHR_MERGE:          0
cpu0->cpu0_STLB RFO          ACCESS:          0 HIT:          0 MISS:          0 MSHR_MERGE:          0
cpu0->cpu0_STLB PREFETCH     ACCESS:          0 HIT:          0 MISS:          0 MSHR_MERGE:          0
cpu0->cpu0_STLB WRITE        ACCESS:          0 HIT:          0 MISS:          0 MSHR_MERGE:          0
cpu0->cpu0_STLB TRANSLATION  ACCESS:          0 HIT:          0 MISS:          0 MSHR_MERGE:          0
cpu0->cpu0_STLB PREFETCH REQUESTED:          0 ISSUED:          0 USEFUL:          0 USELESS:          0 LATE:          0
cpu0->cpu0_STLB AVERAGE MISS LATENCY: 80.31 cycles
cpu0->cpu0_L2C TOTAL        ACCESS:    3134534 HIT:     965814 MISS:    2168720 MSHR_MERGE:     445938
cpu0->cpu0_L2C LOAD         ACCESS:     807292 HIT:     460799 MISS:     346493 MSHR_MERGE:       4656
cpu0->cpu0_L2C RFO          ACCESS:     298992 HIT:       1203 MISS:     297789 MSHR_MERGE:          0
cpu0->cpu0_L2C PREFETCH     ACCESS:    1680568 HIT:     172612 MISS:    1507956 MSHR_MERGE:     441282
cpu0->cpu0_L2C WRITE        ACCESS:     327672 HIT:     327664 MISS:          8 MSHR_MERGE:          0
cpu0->cpu0_L2C TRANSLATION  ACCESS:      20010 HIT:       3536 MISS:      16474 MSHR_MERGE:          0
cpu0->cpu0_L2C PREFETCH REQUESTED:     709112 ISSUED:     709112 USEFUL:     147531 USELESS:     173424 LATE:       4656
cpu0->cpu0_L2C AVERAGE MISS LATENCY: 322.9 cycles
cpu0->cpu0_L1I TOTAL        ACCESS:    7383363 HIT:    7383329 MISS:         34 MSHR_MERGE:          7
cpu0->cpu0_L1I LOAD         ACCESS:    7383363 HIT:    7383329 MISS:         34 MSHR_MERGE:          7
cpu0->cpu0_L1I RFO          ACCESS:          0 HIT:          0 MISS:          0 MSHR_MERGE:          0
cpu0->cpu0_L1I PREFETCH     ACCESS:          0 HIT:          0 MISS:          0 MSHR_MERGE:          0
cpu0->cpu0_L1I WRITE        ACCESS:          0 HIT:          0 MISS:          0 MSHR_MERGE:          0
cpu0->cpu0_L1I TRANSLATION  ACCESS:          0 HIT:          0 MISS:          0 MSHR_MERGE:          0
cpu0->cpu0_L1I PREFETCH REQUESTED:          0 ISSUED:          0 USEFUL:          0 USELESS:          0 LATE:          0
cpu0->cpu0_L1I AVERAGE MISS LATENCY: 229.2 cycles
cpu0->cpu0_L1D TOTAL        ACCESS:   10248668 HIT:    5763530 MISS:    4485138 MSHR_MERGE:    2387322
cpu0->cpu0_L1D LOAD         ACCESS:    4858341 HIT:    3197024 MISS:    1661317 MSHR_MERGE:     854052
cpu0->cpu0_L1D RFO          ACCESS:          0 HIT:          0 MISS:          0 MSHR_MERGE:          0
cpu0->cpu0_L1D PREFETCH     ACCESS:    1107051 HIT:      83663 MISS:    1023388 MSHR_MERGE:      51932
cpu0->cpu0_L1D WRITE        ACCESS:    4031478 HIT:    2251086 MISS:    1780392 MSHR_MERGE:    1481307
cpu0->cpu0_L1D TRANSLATION  ACCESS:     251798 HIT:     231757 MISS:      20041 MSHR_MERGE:         31
cpu0->cpu0_L1D PREFETCH REQUESTED:    1116162 ISSUED:    1107050 USEFUL:     919445 USELESS:      52029 LATE:     131800
cpu0->cpu0_L1D AVERAGE MISS LATENCY: 197.5 cycles
cpu0->cpu0_ITLB TOTAL        ACCESS:    6745445 HIT:    6745262 MISS:        183 MSHR_MERGE:        138
cpu0->cpu0_ITLB LOAD         ACCESS:    6745445 HIT:    6745262 MISS:        183 MSHR_MERGE:        138
cpu0->cpu0_ITLB RFO          ACCESS:          0 HIT:          0 MISS:          0 MSHR_MERGE:          0
cpu0->cpu0_ITLB PREFETCH     ACCESS:          0 HIT:          0 MISS:          0 MSHR_MERGE:          0
cpu0->cpu0_ITLB WRITE        ACCESS:          0 HIT:          0 MISS:          0 MSHR_MERGE:          0
cpu0->cpu0_ITLB TRANSLATION  ACCESS:          0 HIT:          0 MISS:          0 MSHR_MERGE:          0
cpu0->cpu0_ITLB PREFETCH REQUESTED:          0 ISSUED:          0 USEFUL:          0 USELESS:          0 LATE:          0
cpu0->cpu0_ITLB AVERAGE MISS LATENCY: 346 cycles
cpu0->cpu0_DTLB TOTAL        ACCESS:    9103869 HIT:    8238496 MISS:     865373 MSHR_MERGE:     496799
cpu0->cpu0_DTLB LOAD         ACCESS:    9103869 HIT:    8238496 MISS:     865373 MSHR_MERGE:     496799
cpu0->cpu0_DTLB RFO          ACCESS:          0 HIT:          0 MISS:          0 MSHR_MERGE:          0
cpu0->cpu0_DTLB PREFETCH     ACCESS:          0 HIT:          0 MISS:          0 MSHR_MERGE:          0
cpu0->cpu0_DTLB WRITE        ACCESS:          0 HIT:          0 MISS:          0 MSHR_MERGE:          0
cpu0->cpu0_DTLB TRANSLATION  ACCESS:          0 HIT:          0 MISS:          0 MSHR_MERGE:          0
cpu0->cpu0_DTLB PREFETCH REQUESTED:          0 ISSUED:          0 USEFUL:          0 USELESS:          0 LATE:          0
cpu0->cpu0_DTLB AVERAGE MISS LATENCY: 32.7 cycles
cpu0->LLC TOTAL        ACCESS:    2044411 HIT:      93302 MISS:    1951109 MSHR_MERGE:      77533
cpu0->LLC LOAD         ACCESS:     341837 HIT:       8673 MISS:     333164 MSHR_MERGE:        395
cpu0->LLC RFO          ACCESS:     297788 HIT:       1013 MISS:     296775 MSHR_MERGE:          0
cpu0->LLC PREFETCH     ACCESS:    1066672 HIT:      27201 MISS:    1039471 MSHR_MERGE:      77138
cpu0->LLC WRITE        ACCESS:     321640 HIT:      55322 MISS:     266318 MSHR_MERGE:          0
cpu0->LLC TRANSLATION  ACCESS:      16474 HIT:       1093 MISS:      15381 MSHR_MERGE:          0
cpu0->LLC PREFETCH REQUESTED:          0 ISSUED:          0 USEFUL:          0 USELESS:          0 LATE:          0
cpu0->LLC AVERAGE MISS LATENCY: 224 cycles

DRAM Statistics

Channel 0 RQ ROW_BUFFER_HIT:     197154
  ROW_BUFFER_MISS:    1410085
  AVG DBUS CONGESTED CYCLE: 5.421
Channel 0 WQ ROW_BUFFER_HIT:      32766
  ROW_BUFFER_MISS:     284006
  FULL:          0
Channel 0 REFRESHES ISSUED:       4557

[ROI Statistics]
[System Configuration]
num_cpus 1
cpu_freq 4000
fetch_width 6
decode_width 6
dispatch_width 6
execute_width 6
lq_width 2
sq_width 2
retire_width 6
scheduler_size 128
branch_mispredict_penalty 15
rob_size 352
lq_size 128
sq_size 72
ifetch_buffer_size 64
decode_buffer_size 32
dispatch_buffer_size 32
register_file_size 288
decode_latency 1
dispatch_latency 1
schedule_latency 1
execute_latency 1
page_size 4096
block_size 64
core_0_itlb_set 16
core_0_itlb_way 4
core_0_itlb_rq_size 16
core_0_itlb_wq_size 16
core_0_itlb_pq_size 0
core_0_itlb_mshr_size 8
core_0_itlb_hit_latency 1
core_0_itlb_fill_latency 1
core_0_itlb_max_tag_check 2
core_0_itlb_max_fill 2
core_0_dtlb_set 16
core_0_dtlb_way 4
core_0_dtlb_rq_size 16
core_0_dtlb_wq_size 16
core_0_dtlb_pq_size 0
core_0_dtlb_mshr_size 8
core_0_dtlb_hit_latency 1
core_0_dtlb_fill_latency 1
core_0_dtlb_max_tag_check 2
core_0_dtlb_max_fill 2
core_0_stlb_set 128
core_0_stlb_way 12
core_0_stlb_rq_size 32
core_0_stlb_wq_size 32
core_0_stlb_pq_size 0
core_0_stlb_mshr_size 16
core_0_stlb_hit_latency 4
core_0_stlb_fill_latency 4
core_0_stlb_max_tag_check 1
core_0_stlb_max_fill 1
core_0_l1i_set 64
core_0_l1i_way 8
core_0_l1i_rq_size 64
core_0_l1i_wq_size 64
core_0_l1i_pq_size 32
core_0_l1i_mshr_size 8
core_0_l1i_hit_latency 2
core_0_l1i_fill_latency 2
core_0_l1i_max_tag_check 2
core_0_l1i_max_fill 2
core_0_l1d_set 64
core_0_l1d_way 12
core_0_l1d_rq_size 64
core_0_l1d_wq_size 64
core_0_l1d_pq_size 8
core_0_l1d_mshr_size 16
core_0_l1d_hit_latency 2
core_0_l1d_fill_latency 3
core_0_l1d_max_tag_check 2
core_0_l1d_max_fill 2
core_0_l2c_set 1024
core_0_l2c_way 8
core_0_l2c_rq_size 32
core_0_l2c_wq_size 32
core_0_l2c_pq_size 16
core_0_l2c_mshr_size 32
core_0_l2c_hit_latency 5
core_0_l2c_fill_latency 5
core_0_l2c_max_tag_check 1
core_0_l2c_max_fill 1
llc_set 2048
llc_way 16
llc_rq_size 32
llc_wq_size 32
llc_pq_size 32
llc_mshr_size 64
llc_hit_latency 10
llc_fill_latency 10
llc_max_tag_check 1
llc_max_fill 1
dram_channels 1
dram_ranks 1
dram_bankgroups 8
dram_banks 4
dram_rows 65536
dram_columns 1024
dram_channel_width 8
dram_rq_size 64
dram_wq_size 64
dram_size 17179869184
core_0_itlb_prefetcher no
core_0_dtlb_prefetcher no
core_0_stlb_prefetcher no
core_0_l1i_prefetcher next_line
core_0_l1d_prefetcher berti
core_0_l2c_prefetcher ip_stride
llc_prefetcher no
llc_replacement drrip

Core_0_instructions 50000003
Core_0_cycles 54685134
Core_0_IPC 0.914325
Core_0_branch_prediction_accuracy 99.9984
Core_0_branch_MPKI 0.00054
Core_0_average_ROB_occupancy_at_mispredict 279.111

Core_0_ITLB_total_access 6745445
Core_0_ITLB_total_hit 6745262
Core_0_ITLB_total_miss 183
Core_0_ITLB_total_MPKI 0.00366
Core_0_ITLB_total_miss_rate 2.71294e-05
Core_0_ITLB_demand_access 6745445
Core_0_ITLB_demand_hit 6745262
Core_0_ITLB_demand_miss 183
Core_0_ITLB_demand_MPKI 0.00366
Core_0_ITLB_demand_miss_rate 2.71294e-05
Core_0_ITLB_load_access 6745445
Core_0_ITLB_load_hit 6745262
Core_0_ITLB_load_miss 183
Core_0_ITLB_load_MPKI 0.00366
Core_0_ITLB_load_miss_rate 2.71294e-05
Core_0_ITLB_rfo_access 0
Core_0_ITLB_rfo_hit 0
Core_0_ITLB_rfo_miss 0
Core_0_ITLB_rfo_MPKI 0
Core_0_ITLB_rfo_miss_rate 0
Core_0_ITLB_prefetch_access 0
Core_0_ITLB_prefetch_hit 0
Core_0_ITLB_prefetch_miss 0
Core_0_ITLB_prefetch_MPKI 0
Core_0_ITLB_prefetch_miss_rate 0
Core_0_ITLB_writeback_access 0
Core_0_ITLB_writeback_hit 0
Core_0_ITLB_writeback_miss 0
Core_0_ITLB_writeback_MPKI 0
Core_0_ITLB_writeback_miss_rate 0
Core_0_ITLB_prefetch_requested 0
Core_0_ITLB_prefetch_issued 0
Core_0_ITLB_prefetch_useful 0
Core_0_ITLB_prefetch_useless 0
Core_0_ITLB_prefetch_late 0
Core_0_ITLB_prefetch_accuracy 0
Core_0_ITLB_prefetch_coverage 0

Core_0_DTLB_total_access 9103869
Core_0_DTLB_total_hit 8238496
Core_0_DTLB_total_miss 865373
Core_0_DTLB_total_MPKI 17.3075
Core_0_DTLB_total_miss_rate 0.0950555
Core_0_DTLB_demand_access 9103869
Core_0_DTLB_demand_hit 8238496
Core_0_DTLB_demand_miss 865373
Core_0_DTLB_demand_MPKI 17.3075
Core_0_DTLB_demand_miss_rate 0.0950555
Core_0_DTLB_load_access 9103869
Core_0_DTLB_load_hit 8238496
Core_0_DTLB_load_miss 865373
Core_0_DTLB_load_MPKI 17.3075
Core_0_DTLB_load_miss_rate 0.0950555
Core_0_DTLB_rfo_access 0
Core_0_DTLB_rfo_hit 0
Core_0_DTLB_rfo_miss 0
Core_0_DTLB_rfo_MPKI 0
Core_0_DTLB_rfo_miss_rate 0
Core_0_DTLB_prefetch_access 0
Core_0_DTLB_prefetch_hit 0
Core_0_DTLB_prefetch_miss 0
Core_0_DTLB_prefetch_MPKI 0
Core_0_DTLB_prefetch_miss_rate 0
Core_0_DTLB_writeback_access 0
Core_0_DTLB_writeback_hit 0
Core_0_DTLB_writeback_miss 0
Core_0_DTLB_writeback_MPKI 0
Core_0_DTLB_writeback_miss_rate 0
Core_0_DTLB_prefetch_requested 0
Core_0_DTLB_prefetch_issued 0
Core_0_DTLB_prefetch_useful 0
Core_0_DTLB_prefetch_useless 0
Core_0_DTLB_prefetch_late 0
Core_0_DTLB_prefetch_accuracy 0
Core_0_DTLB_prefetch_coverage 0

Core_0_STLB_total_access 368619
Core_0_STLB_total_hit 242864
Core_0_STLB_total_miss 125755
Core_0_STLB_total_MPKI 2.5151
Core_0_STLB_total_miss_rate 0.341152
Core_0_STLB_demand_access 368619
Core_0_STLB_demand_hit 242864
Core_0_STLB_demand_miss 125755
Core_0_STLB_demand_MPKI 2.5151
Core_0_STLB_demand_miss_rate 0.341152
Core_0_STLB_load_access 368619
Core_0_STLB_load_hit 242864
Core_0_STLB_load_miss 125755
Core_0_STLB_load_MPKI 2.5151
Core_0_STLB_load_miss_rate 0.341152
Core_0_STLB_rfo_access 0
Core_0_STLB_rfo_hit 0
Core_0_STLB_rfo_miss 0
Core_0_STLB_rfo_MPKI 0
Core_0_STLB_rfo_miss_rate 0
Core_0_STLB_prefetch_access 0
Core_0_STLB_prefetch_hit 0
Core_0_STLB_prefetch_miss 0
Core_0_STLB_prefetch_MPKI 0
Core_0_STLB_prefetch_miss_rate 0
Core_0_STLB_writeback_access 0
Core_0_STLB_writeback_hit 0
Core_0_STLB_writeback_miss 0
Core_0_STLB_writeback_MPKI 0
Core_0_STLB_writeback_miss_rate 0
Core_0_STLB_prefetch_requested 0
Core_0_STLB_prefetch_issued 0
Core_0_STLB_prefetch_useful 0
Core_0_STLB_prefetch_useless 0
Core_0_STLB_prefetch_late 0
Core_0_STLB_prefetch_accuracy 0
Core_0_STLB_prefetch_coverage 0

Core_0_L1I_total_access 7383363
Core_0_L1I_total_hit 7383329
Core_0_L1I_total_miss 34
Core_0_L1I_total_MPKI 0.00068
Core_0_L1I_total_miss_rate 4.60495e-06
Core_0_L1I_demand_access 7383363
Core_0_L1I_demand_hit 7383329
Core_0_L1I_demand_miss 34
Core_0_L1I_demand_MPKI 0.00068
Core_0_L1I_demand_miss_rate 4.60495e-06
Core_0_L1I_load_access 7383363
Core_0_L1I_load_hit 7383329
Core_0_L1I_load_miss 34
Core_0_L1I_load_MPKI 0.00068
Core_0_L1I_load_miss_rate 4.60495e-06
Core_0_L1I_rfo_access 0
Core_0_L1I_rfo_hit 0
Core_0_L1I_rfo_miss 0
Core_0_L1I_rfo_MPKI 0
Core_0_L1I_rfo_miss_rate 0
Core_0_L1I_prefetch_access 0
Core_0_L1I_prefetch_hit 0
Core_0_L1I_prefetch_miss 0
Core_0_L1I_prefetch_MPKI 0
Core_0_L1I_prefetch_miss_rate 0
Core_0_L1I_writeback_access 0
Core_0_L1I_writeback_hit 0
Core_0_L1I_writeback_miss 0
Core_0_L1I_writeback_MPKI 0
Core_0_L1I_writeback_miss_rate 0
Core_0_L1I_prefetch_requested 0
Core_0_L1I_prefetch_issued 0
Core_0_L1I_prefetch_useful 0
Core_0_L1I_prefetch_useless 0
Core_0_L1I_prefetch_late 0
Core_0_L1I_prefetch_accuracy 0
Core_0_L1I_prefetch_coverage 0

Core_0_L1D_total_access 9996870
Core_0_L1D_total_hit 5531773
Core_0_L1D_total_miss 4465097
Core_0_L1D_total_MPKI 89.3019
Core_0_L1D_total_miss_rate 0.44665
Core_0_L1D_demand_access 4858341
Core_0_L1D_demand_hit 3197024
Core_0_L1D_demand_miss 1661317
Core_0_L1D_demand_MPKI 33.2263
Core_0_L1D_demand_miss_rate 0.341952
Core_0_L1D_load_access 4858341
Core_0_L1D_load_hit 3197024
Core_0_L1D_load_miss 1661317
Core_0_L1D_load_MPKI 33.2263
Core_0_L1D_load_miss_rate 0.341952
Core_0_L1D_rfo_access 0
Core_0_L1D_rfo_hit 0
Core_0_L1D_rfo_miss 0
Core_0_L1D_rfo_MPKI 0
Core_0_L1D_rfo_miss_rate 0
Core_0_L1D_prefetch_access 1107051
Core_0_L1D_prefetch_hit 83663
Core_0_L1D_prefetch_miss 1023388
Core_0_L1D_prefetch_MPKI 20.4678
Core_0_L1D_prefetch_miss_rate 0.924427
Core_0_L1D_writeback_access 4031478
Core_0_L1D_writeback_hit 2251086
Core_0_L1D_writeback_miss 1780392
Core_0_L1D_writeback_MPKI 35.6078
Core_0_L1D_writeback_miss_rate 0.441623
Core_0_L1D_prefetch_requested 1116162
Core_0_L1D_prefetch_issued 1107050
Core_0_L1D_prefetch_useful 919445
Core_0_L1D_prefetch_useless 52029
Core_0_L1D_prefetch_late 131800
Core_0_L1D_prefetch_accuracy 0.830536
Core_0_L1D_prefetch_coverage 0.356269

Core_0_L2C_total_access 3114524
Core_0_L2C_total_hit 962278
Core_0_L2C_total_miss 2152246
Core_0_L2C_total_MPKI 43.0449
Core_0_L2C_total_miss_rate 0.691035
Core_0_L2C_demand_access 1106284
Core_0_L2C_demand_hit 462002
Core_0_L2C_demand_miss 644282
Core_0_L2C_demand_MPKI 12.8856
Core_0_L2C_demand_miss_rate 0.582384
Core_0_L2C_load_access 807292
Core_0_L2C_load_hit 460799
Core_0_L2C_load_miss 346493
Core_0_L2C_load_MPKI 6.92986
Core_0_L2C_load_miss_rate 0.429204
Core_0_L2C_rfo_access 298992
Core_0_L2C_rfo_hit 1203
Core_0_L2C_rfo_miss 297789
Core_0_L2C_rfo_MPKI 5.95578
Core_0_L2C_rfo_miss_rate 0.995976
Core_0_L2C_prefetch_access 1680568
Core_0_L2C_prefetch_hit 172612
Core_0_L2C_prefetch_miss 1507956
Core_0_L2C_prefetch_MPKI 30.1591
Core_0_L2C_prefetch_miss_rate 0.897289
Core_0_L2C_writeback_access 327672
Core_0_L2C_writeback_hit 327664
Core_0_L2C_writeback_miss 8
Core_0_L2C_writeback_MPKI 0.00016
Core_0_L2C_writeback_miss_rate 2.44147e-05
Core_0_L2C_prefetch_requested 709112
Core_0_L2C_prefetch_issued 709112
Core_0_L2C_prefetch_useful 147531
Core_0_L2C_prefetch_useless 173424
Core_0_L2C_prefetch_late 4656
Core_0_L2C_prefetch_accuracy 0.20805
Core_0_L2C_prefetch_coverage 0.186321

Core_0_LLC_total_access 2027937
Core_0_LLC_total_hit 92209
Core_0_LLC_total_miss 1935728
Core_0_LLC_total_MPKI 38.7146
Core_0_LLC_total_miss_rate 0.954531
Core_0_LLC_demand_access 639625
Core_0_LLC_demand_hit 9686
Core_0_LLC_demand_miss 629939
Core_0_LLC_demand_MPKI 12.5988
Core_0_LLC_demand_miss_rate 0.984857
Core_0_LLC_load_access 341837
Core_0_LLC_load_hit 8673
Core_0_LLC_load_miss 333164
Core_0_LLC_load_MPKI 6.66328
Core_0_LLC_load_miss_rate 0.974628
Core_0_LLC_rfo_access 297788
Core_0_LLC_rfo_hit 1013
Core_0_LLC_rfo_miss 296775
Core_0_LLC_rfo_MPKI 5.9355
Core_0_LLC_rfo_miss_rate 0.996598
Core_0_LLC_prefetch_access 1066672
Core_0_LLC_prefetch_hit 27201
Core_0_LLC_prefetch_miss 1039471
Core_0_LLC_prefetch_MPKI 20.7894
Core_0_LLC_prefetch_miss_rate 0.974499
Core_0_LLC_writeback_access 321640
Core_0_LLC_writeback_hit 55322
Core_0_LLC_writeback_miss 266318
Core_0_LLC_writeback_MPKI 5.32636
Core_0_LLC_writeback_miss_rate 0.828
Core_0_LLC_prefetch_requested 0
Core_0_LLC_prefetch_issued 0
Core_0_LLC_prefetch_useful 0
Core_0_LLC_prefetch_useless 0
Core_0_LLC_prefetch_late 0
Core_0_LLC_prefetch_accuracy 0
Core_0_LLC_prefetch_coverage 0

[DRAM Statistics]
Channel_0_RQ_row_buffer_hit 197154
Channel_0_RQ_row_buffer_miss 1410085
Channel_0_WQ_row_buffer_hit 32766
Channel_0_WQ_row_buffer_miss 284006
Channel_0_WQ_full 0
Channel_0_dbus_congested 4566246
DRAM_total_RQ_row_buffer_hit 197154
DRAM_total_RQ_row_buffer_miss 1410085
DRAM_total_WQ_row_buffer_hit 32766
DRAM_total_WQ_row_buffer_miss 284006
DRAM_total_WQ_full 0
DRAM_total_dbus_congested 4566246
DRAM_avg_congested_cycle 5.42134

======STLB miss causes ========
Core_0_STLB_miss_cause_breakdown
Core_0_STLB_cause_Demand_Data_miss 118256
Core_0_STLB_cause_Demand_Data_miss_rate 0.320808
Core_0_STLB_cause_Demand_Instruction_miss 45
Core_0_STLB_cause_Demand_Instruction_miss_rate 0.000122077
Core_0_STLB_cause_L1D_Prefetch_miss 7454
Core_0_STLB_cause_L1D_Prefetch_miss_rate 0.0202214
Core_0_STLB_cause_L1I_Prefetch_miss 0
Core_0_STLB_cause_L1I_Prefetch_miss_rate 0
Core_0_STLB_cause_Other_miss 0
Core_0_STLB_cause_Other_miss_rate 0
Core_0_STLB_Demand_miss 118301
Core_0_STLB_Demand_miss_rate 0.32093
Core_0_STLB_L1D_Prefetch_miss 7454
Core_0_STLB_L1D_Prefetch_miss_rate 0.0202214
Core_0_STLB_Other_miss 0
Core_0_STLB_Other_miss_rate 0
