[VMEM] WARNING: physical memory size is smaller than virtual memory size.

*** ChampSim Multicore Out-of-Order Simulator ***
Warmup Instructions: 20000000
Simulation Instructions: 50000000
Number of CPUs: 1
Page size: 4096
STLB ideal mode: off
STLB ideal fill: off
Core 0: /data0/tzh/champsim_traces/Ligra/ligra_Radii.com-lj.ungraph.gcc_6.3.0_O3.drop_25000M.length_250M.champsimtrace.xz
 L1D Berti prefetcher
Off-chip DRAM Size: 16 GiB Channels: 1 Width: 64-bit Data Rate: 3205 MT/s
Warmup halting CPU 0 at instruction 20000000 cycle 6857512 for remainder of phase
Warmup finished CPU 0 instructions: 20000000 cycles: 6857512 cumulative IPC: 2.917 (Simulation time: 00 hr 01 min 22 sec)
Warmup complete CPU 0 instructions: 20000000 cycles: 6857512 cumulative IPC: 2.917 (Simulation time: 00 hr 01 min 22 sec)
Simulation finished CPU 0 instructions: 50000004 cycles: 176493915 cumulative IPC: 0.2833 (Simulation time: 00 hr 17 min 41 sec)
Simulation complete CPU 0 instructions: 50000004 cycles: 176493915 cumulative IPC: 0.2833 (Simulation time: 00 hr 17 min 41 sec)

ChampSim completed all CPUs

=== Simulation ===
CPU 0 runs /data0/tzh/champsim_traces/Ligra/ligra_Radii.com-lj.ungraph.gcc_6.3.0_O3.drop_25000M.length_250M.champsimtrace.xz

Region of Interest Statistics

CPU 0 cumulative IPC: 0.2833 instructions: 50000004 cycles: 176493915
CPU 0 Branch Prediction Accuracy: 90.09% MPKI: 16.71 Average ROB Occupancy at Mispredict: 28.65
Branch type MPKI
BRANCH_DIRECT_JUMP: 0.00048
BRANCH_INDIRECT: 0
BRANCH_CONDITIONAL: 16.71
BRANCH_DIRECT_CALL: 0.00038
BRANCH_INDIRECT_CALL: 0
BRANCH_RETURN: 0.0004

cpu0->cpu0_STLB TOTAL        ACCESS:    1190721 HIT:     246871 MISS:     943850 MSHR_MERGE:          0
cpu0->cpu0_STLB LOAD         ACCESS:    1190721 HIT:     246871 MISS:     943850 MSHR_MERGE:          0
cpu0->cpu0_STLB RFO          ACCESS:          0 HIT:          0 MISS:          0 MSHR_MERGE:          0
cpu0->cpu0_STLB PREFETCH     ACCESS:          0 HIT:          0 MISS:          0 MSHR_MERGE:          0
cpu0->cpu0_STLB WRITE        ACCESS:          0 HIT:          0 MISS:          0 MSHR_MERGE:          0
cpu0->cpu0_STLB TRANSLATION  ACCESS:          0 HIT:          0 MISS:          0 MSHR_MERGE:          0
cpu0->cpu0_STLB PREFETCH REQUESTED:          0 ISSUED:          0 USEFUL:          0 USELESS:          0 LATE:          0
cpu0->cpu0_STLB AVERAGE MISS LATENCY: 81.91 cycles
cpu0->cpu0_L2C TOTAL        ACCESS:    4480000 HIT:    1698415 MISS:    2781585 MSHR_MERGE:     183385
cpu0->cpu0_L2C LOAD         ACCESS:    1502292 HIT:      66410 MISS:    1435882 MSHR_MERGE:       7231
cpu0->cpu0_L2C RFO          ACCESS:     355726 HIT:       3441 MISS:     352285 MSHR_MERGE:          0
cpu0->cpu0_L2C PREFETCH     ACCESS:    1088592 HIT:     284892 MISS:     803700 MSHR_MERGE:     176154
cpu0->cpu0_L2C WRITE        ACCESS:     760657 HIT:     760612 MISS:         45 MSHR_MERGE:          0
cpu0->cpu0_L2C TRANSLATION  ACCESS:     772733 HIT:     583060 MISS:     189673 MSHR_MERGE:          0
cpu0->cpu0_L2C PREFETCH REQUESTED:     558824 ISSUED:     558818 USEFUL:     178686 USELESS:      80616 LATE:       7231
cpu0->cpu0_L2C AVERAGE MISS LATENCY: 283.7 cycles
cpu0->cpu0_L1I TOTAL        ACCESS:    2406871 HIT:    2406791 MISS:         80 MSHR_MERGE:         13
cpu0->cpu0_L1I LOAD         ACCESS:    2406871 HIT:    2406791 MISS:         80 MSHR_MERGE:         13
cpu0->cpu0_L1I RFO          ACCESS:          0 HIT:          0 MISS:          0 MSHR_MERGE:          0
cpu0->cpu0_L1I PREFETCH     ACCESS:          0 HIT:          0 MISS:          0 MSHR_MERGE:          0
cpu0->cpu0_L1I WRITE        ACCESS:          0 HIT:          0 MISS:          0 MSHR_MERGE:          0
cpu0->cpu0_L1I TRANSLATION  ACCESS:          0 HIT:          0 MISS:          0 MSHR_MERGE:          0
cpu0->cpu0_L1I PREFETCH REQUESTED:          0 ISSUED:          0 USEFUL:          0 USELESS:          0 LATE:          0
cpu0->cpu0_L1I AVERAGE MISS LATENCY: 239 cycles
cpu0->cpu0_L1D TOTAL        ACCESS:   17255650 HIT:   11996345 MISS:    5259305 MSHR_MERGE:    2098822
cpu0->cpu0_L1D LOAD         ACCESS:   10273716 HIT:    8165525 MISS:    2108191 MSHR_MERGE:     605966
cpu0->cpu0_L1D RFO          ACCESS:          0 HIT:          0 MISS:          0 MSHR_MERGE:          0
cpu0->cpu0_L1D PREFETCH     ACCESS:     612108 HIT:      68293 MISS:     543815 MSHR_MERGE:      14043
cpu0->cpu0_L1D WRITE        ACCESS:    4448360 HIT:    2617148 MISS:    1831212 MSHR_MERGE:    1475459
cpu0->cpu0_L1D TRANSLATION  ACCESS:    1921466 HIT:    1145379 MISS:     776087 MSHR_MERGE:       3354
cpu0->cpu0_L1D PREFETCH REQUESTED:     616838 ISSUED:     612100 USEFUL:     330634 USELESS:     199096 LATE:      28385
cpu0->cpu0_L1D AVERAGE MISS LATENCY: 221.3 cycles
cpu0->cpu0_ITLB TOTAL        ACCESS:    2068036 HIT:    2068030 MISS:          6 MSHR_MERGE:          2
cpu0->cpu0_ITLB LOAD         ACCESS:    2068036 HIT:    2068030 MISS:          6 MSHR_MERGE:          2
cpu0->cpu0_ITLB RFO          ACCESS:          0 HIT:          0 MISS:          0 MSHR_MERGE:          0
cpu0->cpu0_ITLB PREFETCH     ACCESS:          0 HIT:          0 MISS:          0 MSHR_MERGE:          0
cpu0->cpu0_ITLB WRITE        ACCESS:          0 HIT:          0 MISS:          0 MSHR_MERGE:          0
cpu0->cpu0_ITLB TRANSLATION  ACCESS:          0 HIT:          0 MISS:          0 MSHR_MERGE:          0
cpu0->cpu0_ITLB PREFETCH REQUESTED:          0 ISSUED:          0 USEFUL:          0 USELESS:          0 LATE:          0
cpu0->cpu0_ITLB AVERAGE MISS LATENCY: 460.2 cycles
cpu0->cpu0_DTLB TOTAL        ACCESS:   14875737 HIT:   13322412 MISS:    1553325 MSHR_MERGE:     362610
cpu0->cpu0_DTLB LOAD         ACCESS:   14875737 HIT:   13322412 MISS:    1553325 MSHR_MERGE:     362610
cpu0->cpu0_DTLB RFO          ACCESS:          0 HIT:          0 MISS:          0 MSHR_MERGE:          0
cpu0->cpu0_DTLB PREFETCH     ACCESS:          0 HIT:          0 MISS:          0 MSHR_MERGE:          0
cpu0->cpu0_DTLB WRITE        ACCESS:          0 HIT:          0 MISS:          0 MSHR_MERGE:          0
cpu0->cpu0_DTLB TRANSLATION  ACCESS:          0 HIT:          0 MISS:          0 MSHR_MERGE:          0
cpu0->cpu0_DTLB PREFETCH REQUESTED:          0 ISSUED:          0 USEFUL:          0 USELESS:          0 LATE:          0
cpu0->cpu0_DTLB AVERAGE MISS LATENCY: 70.73 cycles
cpu0->LLC TOTAL        ACCESS:    3352023 HIT:     806965 MISS:    2545058 MSHR_MERGE:       6940
cpu0->LLC LOAD         ACCESS:    1428651 HIT:      48457 MISS:    1380194 MSHR_MERGE:       1748
cpu0->LLC RFO          ACCESS:     352285 HIT:      12382 MISS:     339903 MSHR_MERGE:          0
cpu0->LLC PREFETCH     ACCESS:     627542 HIT:      46930 MISS:     580612 MSHR_MERGE:       5192
cpu0->LLC WRITE        ACCESS:     753872 HIT:     544254 MISS:     209618 MSHR_MERGE:          0
cpu0->LLC TRANSLATION  ACCESS:     189673 HIT:     154942 MISS:      34731 MSHR_MERGE:          0
cpu0->LLC PREFETCH REQUESTED:          0 ISSUED:          0 USEFUL:          0 USELESS:          0 LATE:          0
cpu0->LLC AVERAGE MISS LATENCY: 269.8 cycles

DRAM Statistics

Channel 0 RQ ROW_BUFFER_HIT:      49014
  ROW_BUFFER_MISS:    2279278
  AVG DBUS CONGESTED CYCLE: 7.176
Channel 0 WQ ROW_BUFFER_HIT:     169082
  ROW_BUFFER_MISS:     561705
  FULL:          0
Channel 0 REFRESHES ISSUED:      14708

[ROI Statistics]
[System Configuration]
num_cpus 1
cpu_freq 4000
fetch_width 6
decode_width 6
dispatch_width 6
execute_width 6
lq_width 2
sq_width 2
retire_width 6
scheduler_size 128
branch_mispredict_penalty 15
rob_size 352
lq_size 128
sq_size 72
ifetch_buffer_size 64
decode_buffer_size 32
dispatch_buffer_size 32
register_file_size 288
decode_latency 1
dispatch_latency 1
schedule_latency 1
execute_latency 1
page_size 4096
block_size 64
core_0_itlb_set 16
core_0_itlb_way 4
core_0_itlb_rq_size 16
core_0_itlb_wq_size 16
core_0_itlb_pq_size 0
core_0_itlb_mshr_size 8
core_0_itlb_hit_latency 1
core_0_itlb_fill_latency 1
core_0_itlb_max_tag_check 2
core_0_itlb_max_fill 2
core_0_dtlb_set 16
core_0_dtlb_way 4
core_0_dtlb_rq_size 16
core_0_dtlb_wq_size 16
core_0_dtlb_pq_size 0
core_0_dtlb_mshr_size 8
core_0_dtlb_hit_latency 1
core_0_dtlb_fill_latency 1
core_0_dtlb_max_tag_check 2
core_0_dtlb_max_fill 2
core_0_stlb_set 128
core_0_stlb_way 12
core_0_stlb_rq_size 32
core_0_stlb_wq_size 32
core_0_stlb_pq_size 0
core_0_stlb_mshr_size 16
core_0_stlb_hit_latency 4
core_0_stlb_fill_latency 4
core_0_stlb_max_tag_check 1
core_0_stlb_max_fill 1
core_0_l1i_set 64
core_0_l1i_way 8
core_0_l1i_rq_size 64
core_0_l1i_wq_size 64
core_0_l1i_pq_size 32
core_0_l1i_mshr_size 8
core_0_l1i_hit_latency 2
core_0_l1i_fill_latency 2
core_0_l1i_max_tag_check 2
core_0_l1i_max_fill 2
core_0_l1d_set 64
core_0_l1d_way 12
core_0_l1d_rq_size 64
core_0_l1d_wq_size 64
core_0_l1d_pq_size 8
core_0_l1d_mshr_size 16
core_0_l1d_hit_latency 2
core_0_l1d_fill_latency 3
core_0_l1d_max_tag_check 2
core_0_l1d_max_fill 2
core_0_l2c_set 1024
core_0_l2c_way 8
core_0_l2c_rq_size 32
core_0_l2c_wq_size 32
core_0_l2c_pq_size 16
core_0_l2c_mshr_size 32
core_0_l2c_hit_latency 5
core_0_l2c_fill_latency 5
core_0_l2c_max_tag_check 1
core_0_l2c_max_fill 1
llc_set 2048
llc_way 16
llc_rq_size 32
llc_wq_size 32
llc_pq_size 32
llc_mshr_size 64
llc_hit_latency 10
llc_fill_latency 10
llc_max_tag_check 1
llc_max_fill 1
dram_channels 1
dram_ranks 1
dram_bankgroups 8
dram_banks 4
dram_rows 65536
dram_columns 1024
dram_channel_width 8
dram_rq_size 64
dram_wq_size 64
dram_size 17179869184
core_0_itlb_prefetcher no
core_0_dtlb_prefetcher no
core_0_stlb_prefetcher no
core_0_l1i_prefetcher next_line
core_0_l1d_prefetcher berti
core_0_l2c_prefetcher ip_stride
llc_prefetcher no
llc_replacement drrip

Core_0_instructions 50000004
Core_0_cycles 176493915
Core_0_IPC 0.283296
Core_0_branch_prediction_accuracy 90.0859
Core_0_branch_MPKI 16.7121
Core_0_average_ROB_occupancy_at_mispredict 28.6493

Core_0_ITLB_total_access 2068036
Core_0_ITLB_total_hit 2068030
Core_0_ITLB_total_miss 6
Core_0_ITLB_total_MPKI 0.00012
Core_0_ITLB_total_miss_rate 2.9013e-06
Core_0_ITLB_demand_access 2068036
Core_0_ITLB_demand_hit 2068030
Core_0_ITLB_demand_miss 6
Core_0_ITLB_demand_MPKI 0.00012
Core_0_ITLB_demand_miss_rate 2.9013e-06
Core_0_ITLB_load_access 2068036
Core_0_ITLB_load_hit 2068030
Core_0_ITLB_load_miss 6
Core_0_ITLB_load_MPKI 0.00012
Core_0_ITLB_load_miss_rate 2.9013e-06
Core_0_ITLB_rfo_access 0
Core_0_ITLB_rfo_hit 0
Core_0_ITLB_rfo_miss 0
Core_0_ITLB_rfo_MPKI 0
Core_0_ITLB_rfo_miss_rate 0
Core_0_ITLB_prefetch_access 0
Core_0_ITLB_prefetch_hit 0
Core_0_ITLB_prefetch_miss 0
Core_0_ITLB_prefetch_MPKI 0
Core_0_ITLB_prefetch_miss_rate 0
Core_0_ITLB_writeback_access 0
Core_0_ITLB_writeback_hit 0
Core_0_ITLB_writeback_miss 0
Core_0_ITLB_writeback_MPKI 0
Core_0_ITLB_writeback_miss_rate 0
Core_0_ITLB_prefetch_requested 0
Core_0_ITLB_prefetch_issued 0
Core_0_ITLB_prefetch_useful 0
Core_0_ITLB_prefetch_useless 0
Core_0_ITLB_prefetch_late 0
Core_0_ITLB_prefetch_accuracy 0
Core_0_ITLB_prefetch_coverage 0

Core_0_DTLB_total_access 14875737
Core_0_DTLB_total_hit 13322412
Core_0_DTLB_total_miss 1553325
Core_0_DTLB_total_MPKI 31.0665
Core_0_DTLB_total_miss_rate 0.10442
Core_0_DTLB_demand_access 14875737
Core_0_DTLB_demand_hit 13322412
Core_0_DTLB_demand_miss 1553325
Core_0_DTLB_demand_MPKI 31.0665
Core_0_DTLB_demand_miss_rate 0.10442
Core_0_DTLB_load_access 14875737
Core_0_DTLB_load_hit 13322412
Core_0_DTLB_load_miss 1553325
Core_0_DTLB_load_MPKI 31.0665
Core_0_DTLB_load_miss_rate 0.10442
Core_0_DTLB_rfo_access 0
Core_0_DTLB_rfo_hit 0
Core_0_DTLB_rfo_miss 0
Core_0_DTLB_rfo_MPKI 0
Core_0_DTLB_rfo_miss_rate 0
Core_0_DTLB_prefetch_access 0
Core_0_DTLB_prefetch_hit 0
Core_0_DTLB_prefetch_miss 0
Core_0_DTLB_prefetch_MPKI 0
Core_0_DTLB_prefetch_miss_rate 0
Core_0_DTLB_writeback_access 0
Core_0_DTLB_writeback_hit 0
Core_0_DTLB_writeback_miss 0
Core_0_DTLB_writeback_MPKI 0
Core_0_DTLB_writeback_miss_rate 0
Core_0_DTLB_prefetch_requested 0
Core_0_DTLB_prefetch_issued 0
Core_0_DTLB_prefetch_useful 0
Core_0_DTLB_prefetch_useless 0
Core_0_DTLB_prefetch_late 0
Core_0_DTLB_prefetch_accuracy 0
Core_0_DTLB_prefetch_coverage 0

Core_0_STLB_total_access 1190721
Core_0_STLB_total_hit 246871
Core_0_STLB_total_miss 943850
Core_0_STLB_total_MPKI 18.877
Core_0_STLB_total_miss_rate 0.792671
Core_0_STLB_demand_access 1190721
Core_0_STLB_demand_hit 246871
Core_0_STLB_demand_miss 943850
Core_0_STLB_demand_MPKI 18.877
Core_0_STLB_demand_miss_rate 0.792671
Core_0_STLB_load_access 1190721
Core_0_STLB_load_hit 246871
Core_0_STLB_load_miss 943850
Core_0_STLB_load_MPKI 18.877
Core_0_STLB_load_miss_rate 0.792671
Core_0_STLB_rfo_access 0
Core_0_STLB_rfo_hit 0
Core_0_STLB_rfo_miss 0
Core_0_STLB_rfo_MPKI 0
Core_0_STLB_rfo_miss_rate 0
Core_0_STLB_prefetch_access 0
Core_0_STLB_prefetch_hit 0
Core_0_STLB_prefetch_miss 0
Core_0_STLB_prefetch_MPKI 0
Core_0_STLB_prefetch_miss_rate 0
Core_0_STLB_writeback_access 0
Core_0_STLB_writeback_hit 0
Core_0_STLB_writeback_miss 0
Core_0_STLB_writeback_MPKI 0
Core_0_STLB_writeback_miss_rate 0
Core_0_STLB_prefetch_requested 0
Core_0_STLB_prefetch_issued 0
Core_0_STLB_prefetch_useful 0
Core_0_STLB_prefetch_useless 0
Core_0_STLB_prefetch_late 0
Core_0_STLB_prefetch_accuracy 0
Core_0_STLB_prefetch_coverage 0

Core_0_L1I_total_access 2406871
Core_0_L1I_total_hit 2406791
Core_0_L1I_total_miss 80
Core_0_L1I_total_MPKI 0.0016
Core_0_L1I_total_miss_rate 3.32382e-05
Core_0_L1I_demand_access 2406871
Core_0_L1I_demand_hit 2406791
Core_0_L1I_demand_miss 80
Core_0_L1I_demand_MPKI 0.0016
Core_0_L1I_demand_miss_rate 3.32382e-05
Core_0_L1I_load_access 2406871
Core_0_L1I_load_hit 2406791
Core_0_L1I_load_miss 80
Core_0_L1I_load_MPKI 0.0016
Core_0_L1I_load_miss_rate 3.32382e-05
Core_0_L1I_rfo_access 0
Core_0_L1I_rfo_hit 0
Core_0_L1I_rfo_miss 0
Core_0_L1I_rfo_MPKI 0
Core_0_L1I_rfo_miss_rate 0
Core_0_L1I_prefetch_access 0
Core_0_L1I_prefetch_hit 0
Core_0_L1I_prefetch_miss 0
Core_0_L1I_prefetch_MPKI 0
Core_0_L1I_prefetch_miss_rate 0
Core_0_L1I_writeback_access 0
Core_0_L1I_writeback_hit 0
Core_0_L1I_writeback_miss 0
Core_0_L1I_writeback_MPKI 0
Core_0_L1I_writeback_miss_rate 0
Core_0_L1I_prefetch_requested 0
Core_0_L1I_prefetch_issued 0
Core_0_L1I_prefetch_useful 0
Core_0_L1I_prefetch_useless 0
Core_0_L1I_prefetch_late 0
Core_0_L1I_prefetch_accuracy 0
Core_0_L1I_prefetch_coverage 0

Core_0_L1D_total_access 15334184
Core_0_L1D_total_hit 10850966
Core_0_L1D_total_miss 4483218
Core_0_L1D_total_MPKI 89.6644
Core_0_L1D_total_miss_rate 0.292368
Core_0_L1D_demand_access 10273716
Core_0_L1D_demand_hit 8165525
Core_0_L1D_demand_miss 2108191
Core_0_L1D_demand_MPKI 42.1638
Core_0_L1D_demand_miss_rate 0.205202
Core_0_L1D_load_access 10273716
Core_0_L1D_load_hit 8165525
Core_0_L1D_load_miss 2108191
Core_0_L1D_load_MPKI 42.1638
Core_0_L1D_load_miss_rate 0.205202
Core_0_L1D_rfo_access 0
Core_0_L1D_rfo_hit 0
Core_0_L1D_rfo_miss 0
Core_0_L1D_rfo_MPKI 0
Core_0_L1D_rfo_miss_rate 0
Core_0_L1D_prefetch_access 612108
Core_0_L1D_prefetch_hit 68293
Core_0_L1D_prefetch_miss 543815
Core_0_L1D_prefetch_MPKI 10.8763
Core_0_L1D_prefetch_miss_rate 0.88843
Core_0_L1D_writeback_access 4448360
Core_0_L1D_writeback_hit 2617148
Core_0_L1D_writeback_miss 1831212
Core_0_L1D_writeback_MPKI 36.6242
Core_0_L1D_writeback_miss_rate 0.41166
Core_0_L1D_prefetch_requested 616838
Core_0_L1D_prefetch_issued 612100
Core_0_L1D_prefetch_useful 330634
Core_0_L1D_prefetch_useless 199096
Core_0_L1D_prefetch_late 28385
Core_0_L1D_prefetch_accuracy 0.540163
Core_0_L1D_prefetch_coverage 0.135571

Core_0_L2C_total_access 3707267
Core_0_L2C_total_hit 1115355
Core_0_L2C_total_miss 2591912
Core_0_L2C_total_MPKI 51.8382
Core_0_L2C_total_miss_rate 0.699144
Core_0_L2C_demand_access 1858018
Core_0_L2C_demand_hit 69851
Core_0_L2C_demand_miss 1788167
Core_0_L2C_demand_MPKI 35.7633
Core_0_L2C_demand_miss_rate 0.962406
Core_0_L2C_load_access 1502292
Core_0_L2C_load_hit 66410
Core_0_L2C_load_miss 1435882
Core_0_L2C_load_MPKI 28.7176
Core_0_L2C_load_miss_rate 0.955794
Core_0_L2C_rfo_access 355726
Core_0_L2C_rfo_hit 3441
Core_0_L2C_rfo_miss 352285
Core_0_L2C_rfo_MPKI 7.0457
Core_0_L2C_rfo_miss_rate 0.990327
Core_0_L2C_prefetch_access 1088592
Core_0_L2C_prefetch_hit 284892
Core_0_L2C_prefetch_miss 803700
Core_0_L2C_prefetch_MPKI 16.074
Core_0_L2C_prefetch_miss_rate 0.738293
Core_0_L2C_writeback_access 760657
Core_0_L2C_writeback_hit 760612
Core_0_L2C_writeback_miss 45
Core_0_L2C_writeback_MPKI 0.0009
Core_0_L2C_writeback_miss_rate 5.91594e-05
Core_0_L2C_prefetch_requested 558824
Core_0_L2C_prefetch_issued 558818
Core_0_L2C_prefetch_useful 178686
Core_0_L2C_prefetch_useless 80616
Core_0_L2C_prefetch_late 7231
Core_0_L2C_prefetch_accuracy 0.319757
Core_0_L2C_prefetch_coverage 0.0908487

Core_0_LLC_total_access 3162350
Core_0_LLC_total_hit 652023
Core_0_LLC_total_miss 2510327
Core_0_LLC_total_MPKI 50.2065
Core_0_LLC_total_miss_rate 0.793817
Core_0_LLC_demand_access 1780936
Core_0_LLC_demand_hit 60839
Core_0_LLC_demand_miss 1720097
Core_0_LLC_demand_MPKI 34.4019
Core_0_LLC_demand_miss_rate 0.965839
Core_0_LLC_load_access 1428651
Core_0_LLC_load_hit 48457
Core_0_LLC_load_miss 1380194
Core_0_LLC_load_MPKI 27.6039
Core_0_LLC_load_miss_rate 0.966082
Core_0_LLC_rfo_access 352285
Core_0_LLC_rfo_hit 12382
Core_0_LLC_rfo_miss 339903
Core_0_LLC_rfo_MPKI 6.79806
Core_0_LLC_rfo_miss_rate 0.964852
Core_0_LLC_prefetch_access 627542
Core_0_LLC_prefetch_hit 46930
Core_0_LLC_prefetch_miss 580612
Core_0_LLC_prefetch_MPKI 11.6122
Core_0_LLC_prefetch_miss_rate 0.925216
Core_0_LLC_writeback_access 753872
Core_0_LLC_writeback_hit 544254
Core_0_LLC_writeback_miss 209618
Core_0_LLC_writeback_MPKI 4.19236
Core_0_LLC_writeback_miss_rate 0.278055
Core_0_LLC_prefetch_requested 0
Core_0_LLC_prefetch_issued 0
Core_0_LLC_prefetch_useful 0
Core_0_LLC_prefetch_useless 0
Core_0_LLC_prefetch_late 0
Core_0_LLC_prefetch_accuracy 0
Core_0_LLC_prefetch_coverage 0

[DRAM Statistics]
Channel_0_RQ_row_buffer_hit 49014
Channel_0_RQ_row_buffer_miss 2279278
Channel_0_WQ_row_buffer_hit 169082
Channel_0_WQ_row_buffer_miss 561705
Channel_0_WQ_full 0
Channel_0_dbus_congested 8620773
DRAM_total_RQ_row_buffer_hit 49014
DRAM_total_RQ_row_buffer_miss 2279278
DRAM_total_WQ_row_buffer_hit 169082
DRAM_total_WQ_row_buffer_miss 561705
DRAM_total_WQ_full 0
DRAM_total_dbus_congested 8620773
DRAM_avg_congested_cycle 7.17555

======STLB miss causes ========
Core_0_STLB_miss_cause_breakdown
Core_0_STLB_cause_Demand_Data_miss 931326
Core_0_STLB_cause_Demand_Data_miss_rate 0.782153
Core_0_STLB_cause_Demand_Instruction_miss 4
Core_0_STLB_cause_Demand_Instruction_miss_rate 3.35931e-06
Core_0_STLB_cause_L1D_Prefetch_miss 12520
Core_0_STLB_cause_L1D_Prefetch_miss_rate 0.0105146
Core_0_STLB_cause_L1I_Prefetch_miss 0
Core_0_STLB_cause_L1I_Prefetch_miss_rate 0
Core_0_STLB_cause_Other_miss 0
Core_0_STLB_cause_Other_miss_rate 0
Core_0_STLB_Demand_miss 931330
Core_0_STLB_Demand_miss_rate 0.782156
Core_0_STLB_L1D_Prefetch_miss 12520
Core_0_STLB_L1D_Prefetch_miss_rate 0.0105146
Core_0_STLB_Other_miss 0
Core_0_STLB_Other_miss_rate 0
