[VMEM] WARNING: physical memory size is smaller than virtual memory size.

*** ChampSim Multicore Out-of-Order Simulator ***
Warmup Instructions: 20000000
Simulation Instructions: 50000000
Number of CPUs: 1
Page size: 4096
STLB ideal mode: off
STLB ideal fill: off
Core 0: /data0/tzh/champsim_traces/PARSEC/parsec_2.1.canneal.simlarge.prebuilt.drop_500M.length_250M.champsimtrace.xz
 L1D Berti prefetcher
Off-chip DRAM Size: 16 GiB Channels: 1 Width: 64-bit Data Rate: 3205 MT/s
Warmup halting CPU 0 at instruction 20000002 cycle 4893116 for remainder of phase
Warmup finished CPU 0 instructions: 20000002 cycles: 4893116 cumulative IPC: 4.087 (Simulation time: 00 hr 01 min 08 sec)
Warmup complete CPU 0 instructions: 20000002 cycles: 4893116 cumulative IPC: 4.087 (Simulation time: 00 hr 01 min 08 sec)
Simulation finished CPU 0 instructions: 50000000 cycles: 73801347 cumulative IPC: 0.6775 (Simulation time: 00 hr 07 min 46 sec)
Simulation complete CPU 0 instructions: 50000000 cycles: 73801347 cumulative IPC: 0.6775 (Simulation time: 00 hr 07 min 46 sec)

ChampSim completed all CPUs

=== Simulation ===
CPU 0 runs /data0/tzh/champsim_traces/PARSEC/parsec_2.1.canneal.simlarge.prebuilt.drop_500M.length_250M.champsimtrace.xz

Region of Interest Statistics

CPU 0 cumulative IPC: 0.6775 instructions: 50000000 cycles: 73801347
CPU 0 Branch Prediction Accuracy: 95.86% MPKI: 8.194 Average ROB Occupancy at Mispredict: 72.04
Branch type MPKI
BRANCH_DIRECT_JUMP: 6e-05
BRANCH_INDIRECT: 0.232
BRANCH_CONDITIONAL: 7.799
BRANCH_DIRECT_CALL: 0.1627
BRANCH_INDIRECT_CALL: 0.00024
BRANCH_RETURN: 4e-05

cpu0->cpu0_STLB TOTAL        ACCESS:     323119 HIT:     243702 MISS:      79417 MSHR_MERGE:          0
cpu0->cpu0_STLB LOAD         ACCESS:     323119 HIT:     243702 MISS:      79417 MSHR_MERGE:          0
cpu0->cpu0_STLB RFO          ACCESS:          0 HIT:          0 MISS:          0 MSHR_MERGE:          0
cpu0->cpu0_STLB PREFETCH     ACCESS:          0 HIT:          0 MISS:          0 MSHR_MERGE:          0
cpu0->cpu0_STLB WRITE        ACCESS:          0 HIT:          0 MISS:          0 MSHR_MERGE:          0
cpu0->cpu0_STLB TRANSLATION  ACCESS:          0 HIT:          0 MISS:          0 MSHR_MERGE:          0
cpu0->cpu0_STLB PREFETCH REQUESTED:          0 ISSUED:          0 USEFUL:          0 USELESS:          0 LATE:          0
cpu0->cpu0_STLB AVERAGE MISS LATENCY: 28.53 cycles
cpu0->cpu0_L2C TOTAL        ACCESS:     933715 HIT:     369825 MISS:     563890 MSHR_MERGE:        338
cpu0->cpu0_L2C LOAD         ACCESS:     430621 HIT:     140100 MISS:     290521 MSHR_MERGE:          1
cpu0->cpu0_L2C RFO          ACCESS:      17920 HIT:       4329 MISS:      13591 MSHR_MERGE:          0
cpu0->cpu0_L2C PREFETCH     ACCESS:     313930 HIT:      78842 MISS:     235088 MSHR_MERGE:        337
cpu0->cpu0_L2C WRITE        ACCESS:     102233 HIT:     101936 MISS:        297 MSHR_MERGE:          0
cpu0->cpu0_L2C TRANSLATION  ACCESS:      69011 HIT:      44618 MISS:      24393 MSHR_MERGE:          0
cpu0->cpu0_L2C PREFETCH REQUESTED:      15088 ISSUED:      15088 USEFUL:       5473 USELESS:       6440 LATE:          1
cpu0->cpu0_L2C AVERAGE MISS LATENCY: 132.3 cycles
cpu0->cpu0_L1I TOTAL        ACCESS:    5399265 HIT:    5388476 MISS:      10789 MSHR_MERGE:        226
cpu0->cpu0_L1I LOAD         ACCESS:    5399265 HIT:    5388476 MISS:      10789 MSHR_MERGE:        226
cpu0->cpu0_L1I RFO          ACCESS:          0 HIT:          0 MISS:          0 MSHR_MERGE:          0
cpu0->cpu0_L1I PREFETCH     ACCESS:          0 HIT:          0 MISS:          0 MSHR_MERGE:          0
cpu0->cpu0_L1I WRITE        ACCESS:          0 HIT:          0 MISS:          0 MSHR_MERGE:          0
cpu0->cpu0_L1I TRANSLATION  ACCESS:          0 HIT:          0 MISS:          0 MSHR_MERGE:          0
cpu0->cpu0_L1I PREFETCH REQUESTED:          0 ISSUED:          0 USEFUL:          0 USELESS:          0 LATE:          0
cpu0->cpu0_L1I AVERAGE MISS LATENCY: 7.806 cycles
cpu0->cpu0_L1D TOTAL        ACCESS:   15779374 HIT:   14859730 MISS:     919644 MSHR_MERGE:     113811
cpu0->cpu0_L1D LOAD         ACCESS:    9469473 HIT:    9002351 MISS:     467122 MSHR_MERGE:      47062
cpu0->cpu0_L1D RFO          ACCESS:          0 HIT:          0 MISS:          0 MSHR_MERGE:          0
cpu0->cpu0_L1D PREFETCH     ACCESS:     722930 HIT:     414970 MISS:     307960 MSHR_MERGE:       9118
cpu0->cpu0_L1D WRITE        ACCESS:    5428219 HIT:    5352751 MISS:      75468 MSHR_MERGE:      57548
cpu0->cpu0_L1D TRANSLATION  ACCESS:     158752 HIT:      89658 MISS:      69094 MSHR_MERGE:         83
cpu0->cpu0_L1D PREFETCH REQUESTED:     723214 ISSUED:     722930 USEFUL:      89197 USELESS:     209565 LATE:      23758
cpu0->cpu0_L1D AVERAGE MISS LATENCY: 93.05 cycles
cpu0->cpu0_ITLB TOTAL        ACCESS:    4703912 HIT:    4703873 MISS:         39 MSHR_MERGE:         13
cpu0->cpu0_ITLB LOAD         ACCESS:    4703912 HIT:    4703873 MISS:         39 MSHR_MERGE:         13
cpu0->cpu0_ITLB RFO          ACCESS:          0 HIT:          0 MISS:          0 MSHR_MERGE:          0
cpu0->cpu0_ITLB PREFETCH     ACCESS:          0 HIT:          0 MISS:          0 MSHR_MERGE:          0
cpu0->cpu0_ITLB WRITE        ACCESS:          0 HIT:          0 MISS:          0 MSHR_MERGE:          0
cpu0->cpu0_ITLB TRANSLATION  ACCESS:          0 HIT:          0 MISS:          0 MSHR_MERGE:          0
cpu0->cpu0_ITLB PREFETCH REQUESTED:          0 ISSUED:          0 USEFUL:          0 USELESS:          0 LATE:          0
cpu0->cpu0_ITLB AVERAGE MISS LATENCY: 107 cycles
cpu0->cpu0_DTLB TOTAL        ACCESS:   14875381 HIT:   14493800 MISS:     381581 MSHR_MERGE:      58488
cpu0->cpu0_DTLB LOAD         ACCESS:   14875381 HIT:   14493800 MISS:     381581 MSHR_MERGE:      58488
cpu0->cpu0_DTLB RFO          ACCESS:          0 HIT:          0 MISS:          0 MSHR_MERGE:          0
cpu0->cpu0_DTLB PREFETCH     ACCESS:          0 HIT:          0 MISS:          0 MSHR_MERGE:          0
cpu0->cpu0_DTLB WRITE        ACCESS:          0 HIT:          0 MISS:          0 MSHR_MERGE:          0
cpu0->cpu0_DTLB TRANSLATION  ACCESS:          0 HIT:          0 MISS:          0 MSHR_MERGE:          0
cpu0->cpu0_DTLB PREFETCH REQUESTED:          0 ISSUED:          0 USEFUL:          0 USELESS:          0 LATE:          0
cpu0->cpu0_DTLB AVERAGE MISS LATENCY: 12.25 cycles
cpu0->LLC TOTAL        ACCESS:     660647 HIT:     277325 MISS:     383322 MSHR_MERGE:          0
cpu0->LLC LOAD         ACCESS:     290520 HIT:     102941 MISS:     187579 MSHR_MERGE:          0
cpu0->LLC RFO          ACCESS:      13591 HIT:         62 MISS:      13529 MSHR_MERGE:          0
cpu0->LLC PREFETCH     ACCESS:     234751 HIT:      64540 MISS:     170211 MSHR_MERGE:          0
cpu0->LLC WRITE        ACCESS:      97392 HIT:      86378 MISS:      11014 MSHR_MERGE:          0
cpu0->LLC TRANSLATION  ACCESS:      24393 HIT:      23404 MISS:        989 MSHR_MERGE:          0
cpu0->LLC PREFETCH REQUESTED:          0 ISSUED:          0 USEFUL:          0 USELESS:          0 LATE:          0
cpu0->LLC AVERAGE MISS LATENCY: 180.5 cycles

DRAM Statistics

Channel 0 RQ ROW_BUFFER_HIT:        431
  ROW_BUFFER_MISS:     371877
  AVG DBUS CONGESTED CYCLE: 18.79
Channel 0 WQ ROW_BUFFER_HIT:      36731
  ROW_BUFFER_MISS:      60378
  FULL:          0
Channel 0 REFRESHES ISSUED:       6150

[ROI Statistics]
[System Configuration]
num_cpus 1
cpu_freq 4000
fetch_width 6
decode_width 6
dispatch_width 6
execute_width 6
lq_width 2
sq_width 2
retire_width 6
scheduler_size 128
branch_mispredict_penalty 15
rob_size 352
lq_size 128
sq_size 72
ifetch_buffer_size 64
decode_buffer_size 32
dispatch_buffer_size 32
register_file_size 288
decode_latency 1
dispatch_latency 1
schedule_latency 1
execute_latency 1
page_size 4096
block_size 64
core_0_itlb_set 16
core_0_itlb_way 4
core_0_itlb_rq_size 16
core_0_itlb_wq_size 16
core_0_itlb_pq_size 0
core_0_itlb_mshr_size 8
core_0_itlb_hit_latency 1
core_0_itlb_fill_latency 1
core_0_itlb_max_tag_check 2
core_0_itlb_max_fill 2
core_0_dtlb_set 16
core_0_dtlb_way 4
core_0_dtlb_rq_size 16
core_0_dtlb_wq_size 16
core_0_dtlb_pq_size 0
core_0_dtlb_mshr_size 8
core_0_dtlb_hit_latency 1
core_0_dtlb_fill_latency 1
core_0_dtlb_max_tag_check 2
core_0_dtlb_max_fill 2
core_0_stlb_set 128
core_0_stlb_way 12
core_0_stlb_rq_size 32
core_0_stlb_wq_size 32
core_0_stlb_pq_size 0
core_0_stlb_mshr_size 16
core_0_stlb_hit_latency 4
core_0_stlb_fill_latency 4
core_0_stlb_max_tag_check 1
core_0_stlb_max_fill 1
core_0_l1i_set 64
core_0_l1i_way 8
core_0_l1i_rq_size 64
core_0_l1i_wq_size 64
core_0_l1i_pq_size 32
core_0_l1i_mshr_size 8
core_0_l1i_hit_latency 2
core_0_l1i_fill_latency 2
core_0_l1i_max_tag_check 2
core_0_l1i_max_fill 2
core_0_l1d_set 64
core_0_l1d_way 12
core_0_l1d_rq_size 64
core_0_l1d_wq_size 64
core_0_l1d_pq_size 8
core_0_l1d_mshr_size 16
core_0_l1d_hit_latency 2
core_0_l1d_fill_latency 3
core_0_l1d_max_tag_check 2
core_0_l1d_max_fill 2
core_0_l2c_set 1024
core_0_l2c_way 8
core_0_l2c_rq_size 32
core_0_l2c_wq_size 32
core_0_l2c_pq_size 16
core_0_l2c_mshr_size 32
core_0_l2c_hit_latency 5
core_0_l2c_fill_latency 5
core_0_l2c_max_tag_check 1
core_0_l2c_max_fill 1
llc_set 2048
llc_way 16
llc_rq_size 32
llc_wq_size 32
llc_pq_size 32
llc_mshr_size 64
llc_hit_latency 10
llc_fill_latency 10
llc_max_tag_check 1
llc_max_fill 1
dram_channels 1
dram_ranks 1
dram_bankgroups 8
dram_banks 4
dram_rows 65536
dram_columns 1024
dram_channel_width 8
dram_rq_size 64
dram_wq_size 64
dram_size 17179869184
core_0_itlb_prefetcher no
core_0_dtlb_prefetcher no
core_0_stlb_prefetcher no
core_0_l1i_prefetcher next_line
core_0_l1d_prefetcher berti
core_0_l2c_prefetcher ip_stride
llc_prefetcher no
llc_replacement drrip

Core_0_instructions 50000000
Core_0_cycles 73801347
Core_0_IPC 0.677494
Core_0_branch_prediction_accuracy 95.8599
Core_0_branch_MPKI 8.19356
Core_0_average_ROB_occupancy_at_mispredict 72.0352

Core_0_ITLB_total_access 4703912
Core_0_ITLB_total_hit 4703873
Core_0_ITLB_total_miss 39
Core_0_ITLB_total_MPKI 0.00078
Core_0_ITLB_total_miss_rate 8.29097e-06
Core_0_ITLB_demand_access 4703912
Core_0_ITLB_demand_hit 4703873
Core_0_ITLB_demand_miss 39
Core_0_ITLB_demand_MPKI 0.00078
Core_0_ITLB_demand_miss_rate 8.29097e-06
Core_0_ITLB_load_access 4703912
Core_0_ITLB_load_hit 4703873
Core_0_ITLB_load_miss 39
Core_0_ITLB_load_MPKI 0.00078
Core_0_ITLB_load_miss_rate 8.29097e-06
Core_0_ITLB_rfo_access 0
Core_0_ITLB_rfo_hit 0
Core_0_ITLB_rfo_miss 0
Core_0_ITLB_rfo_MPKI 0
Core_0_ITLB_rfo_miss_rate 0
Core_0_ITLB_prefetch_access 0
Core_0_ITLB_prefetch_hit 0
Core_0_ITLB_prefetch_miss 0
Core_0_ITLB_prefetch_MPKI 0
Core_0_ITLB_prefetch_miss_rate 0
Core_0_ITLB_writeback_access 0
Core_0_ITLB_writeback_hit 0
Core_0_ITLB_writeback_miss 0
Core_0_ITLB_writeback_MPKI 0
Core_0_ITLB_writeback_miss_rate 0
Core_0_ITLB_prefetch_requested 0
Core_0_ITLB_prefetch_issued 0
Core_0_ITLB_prefetch_useful 0
Core_0_ITLB_prefetch_useless 0
Core_0_ITLB_prefetch_late 0
Core_0_ITLB_prefetch_accuracy 0
Core_0_ITLB_prefetch_coverage 0

Core_0_DTLB_total_access 14875381
Core_0_DTLB_total_hit 14493800
Core_0_DTLB_total_miss 381581
Core_0_DTLB_total_MPKI 7.63162
Core_0_DTLB_total_miss_rate 0.0256518
Core_0_DTLB_demand_access 14875381
Core_0_DTLB_demand_hit 14493800
Core_0_DTLB_demand_miss 381581
Core_0_DTLB_demand_MPKI 7.63162
Core_0_DTLB_demand_miss_rate 0.0256518
Core_0_DTLB_load_access 14875381
Core_0_DTLB_load_hit 14493800
Core_0_DTLB_load_miss 381581
Core_0_DTLB_load_MPKI 7.63162
Core_0_DTLB_load_miss_rate 0.0256518
Core_0_DTLB_rfo_access 0
Core_0_DTLB_rfo_hit 0
Core_0_DTLB_rfo_miss 0
Core_0_DTLB_rfo_MPKI 0
Core_0_DTLB_rfo_miss_rate 0
Core_0_DTLB_prefetch_access 0
Core_0_DTLB_prefetch_hit 0
Core_0_DTLB_prefetch_miss 0
Core_0_DTLB_prefetch_MPKI 0
Core_0_DTLB_prefetch_miss_rate 0
Core_0_DTLB_writeback_access 0
Core_0_DTLB_writeback_hit 0
Core_0_DTLB_writeback_miss 0
Core_0_DTLB_writeback_MPKI 0
Core_0_DTLB_writeback_miss_rate 0
Core_0_DTLB_prefetch_requested 0
Core_0_DTLB_prefetch_issued 0
Core_0_DTLB_prefetch_useful 0
Core_0_DTLB_prefetch_useless 0
Core_0_DTLB_prefetch_late 0
Core_0_DTLB_prefetch_accuracy 0
Core_0_DTLB_prefetch_coverage 0

Core_0_STLB_total_access 323119
Core_0_STLB_total_hit 243702
Core_0_STLB_total_miss 79417
Core_0_STLB_total_MPKI 1.58834
Core_0_STLB_total_miss_rate 0.245783
Core_0_STLB_demand_access 323119
Core_0_STLB_demand_hit 243702
Core_0_STLB_demand_miss 79417
Core_0_STLB_demand_MPKI 1.58834
Core_0_STLB_demand_miss_rate 0.245783
Core_0_STLB_load_access 323119
Core_0_STLB_load_hit 243702
Core_0_STLB_load_miss 79417
Core_0_STLB_load_MPKI 1.58834
Core_0_STLB_load_miss_rate 0.245783
Core_0_STLB_rfo_access 0
Core_0_STLB_rfo_hit 0
Core_0_STLB_rfo_miss 0
Core_0_STLB_rfo_MPKI 0
Core_0_STLB_rfo_miss_rate 0
Core_0_STLB_prefetch_access 0
Core_0_STLB_prefetch_hit 0
Core_0_STLB_prefetch_miss 0
Core_0_STLB_prefetch_MPKI 0
Core_0_STLB_prefetch_miss_rate 0
Core_0_STLB_writeback_access 0
Core_0_STLB_writeback_hit 0
Core_0_STLB_writeback_miss 0
Core_0_STLB_writeback_MPKI 0
Core_0_STLB_writeback_miss_rate 0
Core_0_STLB_prefetch_requested 0
Core_0_STLB_prefetch_issued 0
Core_0_STLB_prefetch_useful 0
Core_0_STLB_prefetch_useless 0
Core_0_STLB_prefetch_late 0
Core_0_STLB_prefetch_accuracy 0
Core_0_STLB_prefetch_coverage 0

Core_0_L1I_total_access 5399265
Core_0_L1I_total_hit 5388476
Core_0_L1I_total_miss 10789
Core_0_L1I_total_MPKI 0.21578
Core_0_L1I_total_miss_rate 0.00199823
Core_0_L1I_demand_access 5399265
Core_0_L1I_demand_hit 5388476
Core_0_L1I_demand_miss 10789
Core_0_L1I_demand_MPKI 0.21578
Core_0_L1I_demand_miss_rate 0.00199823
Core_0_L1I_load_access 5399265
Core_0_L1I_load_hit 5388476
Core_0_L1I_load_miss 10789
Core_0_L1I_load_MPKI 0.21578
Core_0_L1I_load_miss_rate 0.00199823
Core_0_L1I_rfo_access 0
Core_0_L1I_rfo_hit 0
Core_0_L1I_rfo_miss 0
Core_0_L1I_rfo_MPKI 0
Core_0_L1I_rfo_miss_rate 0
Core_0_L1I_prefetch_access 0
Core_0_L1I_prefetch_hit 0
Core_0_L1I_prefetch_miss 0
Core_0_L1I_prefetch_MPKI 0
Core_0_L1I_prefetch_miss_rate 0
Core_0_L1I_writeback_access 0
Core_0_L1I_writeback_hit 0
Core_0_L1I_writeback_miss 0
Core_0_L1I_writeback_MPKI 0
Core_0_L1I_writeback_miss_rate 0
Core_0_L1I_prefetch_requested 0
Core_0_L1I_prefetch_issued 0
Core_0_L1I_prefetch_useful 0
Core_0_L1I_prefetch_useless 0
Core_0_L1I_prefetch_late 0
Core_0_L1I_prefetch_accuracy 0
Core_0_L1I_prefetch_coverage 0

Core_0_L1D_total_access 15620622
Core_0_L1D_total_hit 14770072
Core_0_L1D_total_miss 850550
Core_0_L1D_total_MPKI 17.011
Core_0_L1D_total_miss_rate 0.0544505
Core_0_L1D_demand_access 9469473
Core_0_L1D_demand_hit 9002351
Core_0_L1D_demand_miss 467122
Core_0_L1D_demand_MPKI 9.34244
Core_0_L1D_demand_miss_rate 0.0493292
Core_0_L1D_load_access 9469473
Core_0_L1D_load_hit 9002351
Core_0_L1D_load_miss 467122
Core_0_L1D_load_MPKI 9.34244
Core_0_L1D_load_miss_rate 0.0493292
Core_0_L1D_rfo_access 0
Core_0_L1D_rfo_hit 0
Core_0_L1D_rfo_miss 0
Core_0_L1D_rfo_MPKI 0
Core_0_L1D_rfo_miss_rate 0
Core_0_L1D_prefetch_access 722930
Core_0_L1D_prefetch_hit 414970
Core_0_L1D_prefetch_miss 307960
Core_0_L1D_prefetch_MPKI 6.1592
Core_0_L1D_prefetch_miss_rate 0.425989
Core_0_L1D_writeback_access 5428219
Core_0_L1D_writeback_hit 5352751
Core_0_L1D_writeback_miss 75468
Core_0_L1D_writeback_MPKI 1.50936
Core_0_L1D_writeback_miss_rate 0.0139029
Core_0_L1D_prefetch_requested 723214
Core_0_L1D_prefetch_issued 722930
Core_0_L1D_prefetch_useful 89197
Core_0_L1D_prefetch_useless 209565
Core_0_L1D_prefetch_late 23758
Core_0_L1D_prefetch_accuracy 0.123383
Core_0_L1D_prefetch_coverage 0.160334

Core_0_L2C_total_access 864704
Core_0_L2C_total_hit 325207
Core_0_L2C_total_miss 539497
Core_0_L2C_total_MPKI 10.7899
Core_0_L2C_total_miss_rate 0.623909
Core_0_L2C_demand_access 448541
Core_0_L2C_demand_hit 144429
Core_0_L2C_demand_miss 304112
Core_0_L2C_demand_MPKI 6.08224
Core_0_L2C_demand_miss_rate 0.678003
Core_0_L2C_load_access 430621
Core_0_L2C_load_hit 140100
Core_0_L2C_load_miss 290521
Core_0_L2C_load_MPKI 5.81042
Core_0_L2C_load_miss_rate 0.674656
Core_0_L2C_rfo_access 17920
Core_0_L2C_rfo_hit 4329
Core_0_L2C_rfo_miss 13591
Core_0_L2C_rfo_MPKI 0.27182
Core_0_L2C_rfo_miss_rate 0.758426
Core_0_L2C_prefetch_access 313930
Core_0_L2C_prefetch_hit 78842
Core_0_L2C_prefetch_miss 235088
Core_0_L2C_prefetch_MPKI 4.70176
Core_0_L2C_prefetch_miss_rate 0.748855
Core_0_L2C_writeback_access 102233
Core_0_L2C_writeback_hit 101936
Core_0_L2C_writeback_miss 297
Core_0_L2C_writeback_MPKI 0.00594
Core_0_L2C_writeback_miss_rate 0.00290513
Core_0_L2C_prefetch_requested 15088
Core_0_L2C_prefetch_issued 15088
Core_0_L2C_prefetch_useful 5473
Core_0_L2C_prefetch_useless 6440
Core_0_L2C_prefetch_late 1
Core_0_L2C_prefetch_accuracy 0.362739
Core_0_L2C_prefetch_coverage 0.0176785

Core_0_LLC_total_access 636254
Core_0_LLC_total_hit 253921
Core_0_LLC_total_miss 382333
Core_0_LLC_total_MPKI 7.64666
Core_0_LLC_total_miss_rate 0.600913
Core_0_LLC_demand_access 304111
Core_0_LLC_demand_hit 103003
Core_0_LLC_demand_miss 201108
Core_0_LLC_demand_MPKI 4.02216
Core_0_LLC_demand_miss_rate 0.661298
Core_0_LLC_load_access 290520
Core_0_LLC_load_hit 102941
Core_0_LLC_load_miss 187579
Core_0_LLC_load_MPKI 3.75158
Core_0_LLC_load_miss_rate 0.645666
Core_0_LLC_rfo_access 13591
Core_0_LLC_rfo_hit 62
Core_0_LLC_rfo_miss 13529
Core_0_LLC_rfo_MPKI 0.27058
Core_0_LLC_rfo_miss_rate 0.995438
Core_0_LLC_prefetch_access 234751
Core_0_LLC_prefetch_hit 64540
Core_0_LLC_prefetch_miss 170211
Core_0_LLC_prefetch_MPKI 3.40422
Core_0_LLC_prefetch_miss_rate 0.72507
Core_0_LLC_writeback_access 97392
Core_0_LLC_writeback_hit 86378
Core_0_LLC_writeback_miss 11014
Core_0_LLC_writeback_MPKI 0.22028
Core_0_LLC_writeback_miss_rate 0.113089
Core_0_LLC_prefetch_requested 0
Core_0_LLC_prefetch_issued 0
Core_0_LLC_prefetch_useful 0
Core_0_LLC_prefetch_useless 0
Core_0_LLC_prefetch_late 0
Core_0_LLC_prefetch_accuracy 0
Core_0_LLC_prefetch_coverage 0

[DRAM Statistics]
Channel_0_RQ_row_buffer_hit 431
Channel_0_RQ_row_buffer_miss 371877
Channel_0_WQ_row_buffer_hit 36731
Channel_0_WQ_row_buffer_miss 60378
Channel_0_WQ_full 0
Channel_0_dbus_congested 1276909
DRAM_total_RQ_row_buffer_hit 431
DRAM_total_RQ_row_buffer_miss 371877
DRAM_total_WQ_row_buffer_hit 36731
DRAM_total_WQ_row_buffer_miss 60378
DRAM_total_WQ_full 0
DRAM_total_dbus_congested 1276909
DRAM_avg_congested_cycle 18.789

======STLB miss causes ========
Core_0_STLB_miss_cause_breakdown
Core_0_STLB_cause_Demand_Data_miss 74325
Core_0_STLB_cause_Demand_Data_miss_rate 0.230024
Core_0_STLB_cause_Demand_Instruction_miss 26
Core_0_STLB_cause_Demand_Instruction_miss_rate 8.04657e-05
Core_0_STLB_cause_L1D_Prefetch_miss 5066
Core_0_STLB_cause_L1D_Prefetch_miss_rate 0.0156784
Core_0_STLB_cause_L1I_Prefetch_miss 0
Core_0_STLB_cause_L1I_Prefetch_miss_rate 0
Core_0_STLB_cause_Other_miss 0
Core_0_STLB_cause_Other_miss_rate 0
Core_0_STLB_Demand_miss 74351
Core_0_STLB_Demand_miss_rate 0.230104
Core_0_STLB_L1D_Prefetch_miss 5066
Core_0_STLB_L1D_Prefetch_miss_rate 0.0156784
Core_0_STLB_Other_miss 0
Core_0_STLB_Other_miss_rate 0
