[VMEM] WARNING: physical memory size is smaller than virtual memory size.

*** ChampSim Multicore Out-of-Order Simulator ***
Warmup Instructions: 50000000
Simulation Instructions: 100000000
Number of CPUs: 1
Page size: 4096
Core 0: /data0/tzh/champsim_traces/SPEC06/410.bwaves-2097B.champsimtrace.xz
Off-chip DRAM Size: 16 GiB Channels: 1 Width: 64-bit Data Rate: 3205 MT/s
Warmup halting CPU 0 at instruction 50000002 cycle 12855760 for remainder of phase
Warmup finished CPU 0 instructions: 50000002 cycles: 12855760 cumulative IPC: 3.889 (Simulation time: 00 hr 03 min 28 sec)
Warmup complete CPU 0 instructions: 50000002 cycles: 12855760 cumulative IPC: 3.889 (Simulation time: 00 hr 03 min 28 sec)
Simulation finished CPU 0 instructions: 100000001 cycles: 91669849 cumulative IPC: 1.091 (Simulation time: 00 hr 22 min 12 sec)
Simulation complete CPU 0 instructions: 100000001 cycles: 91669849 cumulative IPC: 1.091 (Simulation time: 00 hr 22 min 12 sec)

ChampSim completed all CPUs

=== Simulation ===
CPU 0 runs /data0/tzh/champsim_traces/SPEC06/410.bwaves-2097B.champsimtrace.xz

Region of Interest Statistics

CPU 0 cumulative IPC: 1.091 instructions: 100000001 cycles: 91669849
CPU 0 Branch Prediction Accuracy: 99.96% MPKI: 0.01176 Average ROB Occupancy at Mispredict: 323.9
Branch type MPKI
BRANCH_DIRECT_JUMP: 0
BRANCH_INDIRECT: 0
BRANCH_CONDITIONAL: 0.01176
BRANCH_DIRECT_CALL: 0
BRANCH_INDIRECT_CALL: 0
BRANCH_RETURN: 0

cpu0->cpu0_STLB TOTAL        ACCESS:     102901 HIT:      75066 MISS:      27835 MSHR_MERGE:          0
cpu0->cpu0_STLB LOAD         ACCESS:     102901 HIT:      75066 MISS:      27835 MSHR_MERGE:          0
cpu0->cpu0_STLB RFO          ACCESS:          0 HIT:          0 MISS:          0 MSHR_MERGE:          0
cpu0->cpu0_STLB PREFETCH     ACCESS:          0 HIT:          0 MISS:          0 MSHR_MERGE:          0
cpu0->cpu0_STLB WRITE        ACCESS:          0 HIT:          0 MISS:          0 MSHR_MERGE:          0
cpu0->cpu0_STLB TRANSLATION  ACCESS:          0 HIT:          0 MISS:          0 MSHR_MERGE:          0
cpu0->cpu0_STLB PREFETCH REQUESTED:          0 ISSUED:          0 USEFUL:          0 USELESS:          0 LATE:          0
cpu0->cpu0_STLB AVERAGE MISS LATENCY: 247 cycles
cpu0->cpu0_L2C TOTAL        ACCESS:    1982170 HIT:     143435 MISS:    1838735 MSHR_MERGE:          0
cpu0->cpu0_L2C LOAD         ACCESS:    1882240 HIT:      94180 MISS:    1788060 MSHR_MERGE:          0
cpu0->cpu0_L2C RFO          ACCESS:      47054 HIT:          0 MISS:      47054 MSHR_MERGE:          0
cpu0->cpu0_L2C PREFETCH     ACCESS:          0 HIT:          0 MISS:          0 MSHR_MERGE:          0
cpu0->cpu0_L2C WRITE        ACCESS:      47055 HIT:      47055 MISS:          0 MSHR_MERGE:          0
cpu0->cpu0_L2C TRANSLATION  ACCESS:       5821 HIT:       2200 MISS:       3621 MSHR_MERGE:          0
cpu0->cpu0_L2C PREFETCH REQUESTED:          0 ISSUED:          0 USEFUL:          0 USELESS:          0 LATE:          0
cpu0->cpu0_L2C AVERAGE MISS LATENCY: 273.3 cycles
cpu0->cpu0_L1I TOTAL        ACCESS:   20258132 HIT:   20258132 MISS:          0 MSHR_MERGE:          0
cpu0->cpu0_L1I LOAD         ACCESS:   20258132 HIT:   20258132 MISS:          0 MSHR_MERGE:          0
cpu0->cpu0_L1I RFO          ACCESS:          0 HIT:          0 MISS:          0 MSHR_MERGE:          0
cpu0->cpu0_L1I PREFETCH     ACCESS:          0 HIT:          0 MISS:          0 MSHR_MERGE:          0
cpu0->cpu0_L1I WRITE        ACCESS:          0 HIT:          0 MISS:          0 MSHR_MERGE:          0
cpu0->cpu0_L1I TRANSLATION  ACCESS:          0 HIT:          0 MISS:          0 MSHR_MERGE:          0
cpu0->cpu0_L1I PREFETCH REQUESTED:          0 ISSUED:          0 USEFUL:          0 USELESS:          0 LATE:          0
cpu0->cpu0_L1I AVERAGE MISS LATENCY: - cycles
cpu0->cpu0_L1D TOTAL        ACCESS:   36582858 HIT:   34075819 MISS:    2507039 MSHR_MERGE:     571921
cpu0->cpu0_L1D LOAD         ACCESS:   29040893 HIT:   26669503 MISS:    2371390 MSHR_MERGE:     489147
cpu0->cpu0_L1D RFO          ACCESS:          0 HIT:          0 MISS:          0 MSHR_MERGE:          0
cpu0->cpu0_L1D PREFETCH     ACCESS:          0 HIT:          0 MISS:          0 MSHR_MERGE:          0
cpu0->cpu0_L1D WRITE        ACCESS:    7486241 HIT:    7356413 MISS:     129828 MSHR_MERGE:      82774
cpu0->cpu0_L1D TRANSLATION  ACCESS:      55724 HIT:      49903 MISS:       5821 MSHR_MERGE:          0
cpu0->cpu0_L1D PREFETCH REQUESTED:          0 ISSUED:          0 USEFUL:          0 USELESS:          0 LATE:          0
cpu0->cpu0_L1D AVERAGE MISS LATENCY: 268.7 cycles
cpu0->cpu0_ITLB TOTAL        ACCESS:   17135722 HIT:   17135722 MISS:          0 MSHR_MERGE:          0
cpu0->cpu0_ITLB LOAD         ACCESS:   17135722 HIT:   17135722 MISS:          0 MSHR_MERGE:          0
cpu0->cpu0_ITLB RFO          ACCESS:          0 HIT:          0 MISS:          0 MSHR_MERGE:          0
cpu0->cpu0_ITLB PREFETCH     ACCESS:          0 HIT:          0 MISS:          0 MSHR_MERGE:          0
cpu0->cpu0_ITLB WRITE        ACCESS:          0 HIT:          0 MISS:          0 MSHR_MERGE:          0
cpu0->cpu0_ITLB TRANSLATION  ACCESS:          0 HIT:          0 MISS:          0 MSHR_MERGE:          0
cpu0->cpu0_ITLB PREFETCH REQUESTED:          0 ISSUED:          0 USEFUL:          0 USELESS:          0 LATE:          0
cpu0->cpu0_ITLB AVERAGE MISS LATENCY: - cycles
cpu0->cpu0_DTLB TOTAL        ACCESS:   34789027 HIT:   34653334 MISS:     135693 MSHR_MERGE:      32792
cpu0->cpu0_DTLB LOAD         ACCESS:   34789027 HIT:   34653334 MISS:     135693 MSHR_MERGE:      32792
cpu0->cpu0_DTLB RFO          ACCESS:          0 HIT:          0 MISS:          0 MSHR_MERGE:          0
cpu0->cpu0_DTLB PREFETCH     ACCESS:          0 HIT:          0 MISS:          0 MSHR_MERGE:          0
cpu0->cpu0_DTLB WRITE        ACCESS:          0 HIT:          0 MISS:          0 MSHR_MERGE:          0
cpu0->cpu0_DTLB TRANSLATION  ACCESS:          0 HIT:          0 MISS:          0 MSHR_MERGE:          0
cpu0->cpu0_DTLB PREFETCH REQUESTED:          0 ISSUED:          0 USEFUL:          0 USELESS:          0 LATE:          0
cpu0->cpu0_DTLB AVERAGE MISS LATENCY: 72.1 cycles
cpu0->LLC TOTAL        ACCESS:    1885796 HIT:      11260 MISS:    1874536 MSHR_MERGE:          0
cpu0->LLC LOAD         ACCESS:    1788060 HIT:       3913 MISS:    1784147 MSHR_MERGE:          0
cpu0->LLC RFO          ACCESS:      47054 HIT:          0 MISS:      47054 MSHR_MERGE:          0
cpu0->LLC PREFETCH     ACCESS:          0 HIT:          0 MISS:          0 MSHR_MERGE:          0
cpu0->LLC WRITE        ACCESS:      47061 HIT:       7328 MISS:      39733 MSHR_MERGE:          0
cpu0->LLC TRANSLATION  ACCESS:       3621 HIT:         19 MISS:       3602 MSHR_MERGE:          0
cpu0->LLC PREFETCH REQUESTED:          0 ISSUED:          0 USEFUL:          0 USELESS:          0 LATE:          0
cpu0->LLC AVERAGE MISS LATENCY: 252.6 cycles

DRAM Statistics

Channel 0 RQ ROW_BUFFER_HIT:          2
  ROW_BUFFER_MISS:    1834797
  AVG DBUS CONGESTED CYCLE: 4.333
Channel 0 WQ ROW_BUFFER_HIT:       5468
  ROW_BUFFER_MISS:      41657
  FULL:          0
Channel 0 REFRESHES ISSUED:       7639

[ROI Statistics]
[System Configuration]
num_cpus 1
cpu_freq 4000
fetch_width 6
decode_width 6
dispatch_width 6
execute_width 6
lq_width 2
sq_width 2
retire_width 6
scheduler_size 128
branch_mispredict_penalty 15
rob_size 352
lq_size 128
sq_size 72
ifetch_buffer_size 64
decode_buffer_size 32
dispatch_buffer_size 32
register_file_size 288
decode_latency 1
dispatch_latency 1
schedule_latency 1
execute_latency 1
page_size 4096
block_size 64
core_0_itlb_set 16
core_0_itlb_way 4
core_0_itlb_rq_size 16
core_0_itlb_wq_size 16
core_0_itlb_pq_size 0
core_0_itlb_mshr_size 8
core_0_itlb_hit_latency 1
core_0_itlb_fill_latency 1
core_0_itlb_max_tag_check 2
core_0_itlb_max_fill 2
core_0_dtlb_set 16
core_0_dtlb_way 4
core_0_dtlb_rq_size 16
core_0_dtlb_wq_size 16
core_0_dtlb_pq_size 0
core_0_dtlb_mshr_size 8
core_0_dtlb_hit_latency 1
core_0_dtlb_fill_latency 1
core_0_dtlb_max_tag_check 2
core_0_dtlb_max_fill 2
core_0_stlb_set 128
core_0_stlb_way 12
core_0_stlb_rq_size 32
core_0_stlb_wq_size 32
core_0_stlb_pq_size 0
core_0_stlb_mshr_size 16
core_0_stlb_hit_latency 4
core_0_stlb_fill_latency 4
core_0_stlb_max_tag_check 1
core_0_stlb_max_fill 1
core_0_l1i_set 64
core_0_l1i_way 8
core_0_l1i_rq_size 64
core_0_l1i_wq_size 64
core_0_l1i_pq_size 32
core_0_l1i_mshr_size 8
core_0_l1i_hit_latency 2
core_0_l1i_fill_latency 2
core_0_l1i_max_tag_check 2
core_0_l1i_max_fill 2
core_0_l1d_set 64
core_0_l1d_way 12
core_0_l1d_rq_size 64
core_0_l1d_wq_size 64
core_0_l1d_pq_size 8
core_0_l1d_mshr_size 16
core_0_l1d_hit_latency 2
core_0_l1d_fill_latency 3
core_0_l1d_max_tag_check 2
core_0_l1d_max_fill 2
core_0_l2c_set 1024
core_0_l2c_way 8
core_0_l2c_rq_size 32
core_0_l2c_wq_size 32
core_0_l2c_pq_size 16
core_0_l2c_mshr_size 32
core_0_l2c_hit_latency 5
core_0_l2c_fill_latency 5
core_0_l2c_max_tag_check 1
core_0_l2c_max_fill 1
llc_set 2048
llc_way 16
llc_rq_size 32
llc_wq_size 32
llc_pq_size 32
llc_mshr_size 64
llc_hit_latency 10
llc_fill_latency 10
llc_max_tag_check 1
llc_max_fill 1
dram_channels 1
dram_ranks 1
dram_bankgroups 8
dram_banks 4
dram_rows 65536
dram_columns 1024
dram_channel_width 8
dram_rq_size 64
dram_wq_size 64
dram_size 17179869184
core_0_itlb_prefetcher no
core_0_dtlb_prefetcher no
core_0_stlb_prefetcher no
core_0_l1i_prefetcher no
core_0_l1d_prefetcher no
core_0_l2c_prefetcher no
llc_prefetcher no
llc_replacement drrip

Core_0_instructions 100000001
Core_0_cycles 91669849
Core_0_IPC 1.09087
Core_0_branch_prediction_accuracy 99.9578
Core_0_branch_MPKI 0.01176
Core_0_average_ROB_occupancy_at_mispredict 323.891

Core_0_ITLB_total_access 17135722
Core_0_ITLB_total_hit 17135722
Core_0_ITLB_total_miss 0
Core_0_ITLB_total_MPKI 0
Core_0_ITLB_total_miss_rate 0
Core_0_ITLB_demand_access 17135722
Core_0_ITLB_demand_hit 17135722
Core_0_ITLB_demand_miss 0
Core_0_ITLB_demand_MPKI 0
Core_0_ITLB_demand_miss_rate 0
Core_0_ITLB_load_access 17135722
Core_0_ITLB_load_hit 17135722
Core_0_ITLB_load_miss 0
Core_0_ITLB_load_MPKI 0
Core_0_ITLB_load_miss_rate 0
Core_0_ITLB_rfo_access 0
Core_0_ITLB_rfo_hit 0
Core_0_ITLB_rfo_miss 0
Core_0_ITLB_rfo_MPKI 0
Core_0_ITLB_rfo_miss_rate 0
Core_0_ITLB_prefetch_access 0
Core_0_ITLB_prefetch_hit 0
Core_0_ITLB_prefetch_miss 0
Core_0_ITLB_prefetch_MPKI 0
Core_0_ITLB_prefetch_miss_rate 0
Core_0_ITLB_writeback_access 0
Core_0_ITLB_writeback_hit 0
Core_0_ITLB_writeback_miss 0
Core_0_ITLB_writeback_MPKI 0
Core_0_ITLB_writeback_miss_rate 0
Core_0_ITLB_prefetch_requested 0
Core_0_ITLB_prefetch_issued 0
Core_0_ITLB_prefetch_useful 0
Core_0_ITLB_prefetch_useless 0
Core_0_ITLB_prefetch_late 0
Core_0_ITLB_prefetch_accuracy 0
Core_0_ITLB_prefetch_coverage 0

Core_0_DTLB_total_access 34789027
Core_0_DTLB_total_hit 34653334
Core_0_DTLB_total_miss 135693
Core_0_DTLB_total_MPKI 1.35693
Core_0_DTLB_total_miss_rate 0.00390045
Core_0_DTLB_demand_access 34789027
Core_0_DTLB_demand_hit 34653334
Core_0_DTLB_demand_miss 135693
Core_0_DTLB_demand_MPKI 1.35693
Core_0_DTLB_demand_miss_rate 0.00390045
Core_0_DTLB_load_access 34789027
Core_0_DTLB_load_hit 34653334
Core_0_DTLB_load_miss 135693
Core_0_DTLB_load_MPKI 1.35693
Core_0_DTLB_load_miss_rate 0.00390045
Core_0_DTLB_rfo_access 0
Core_0_DTLB_rfo_hit 0
Core_0_DTLB_rfo_miss 0
Core_0_DTLB_rfo_MPKI 0
Core_0_DTLB_rfo_miss_rate 0
Core_0_DTLB_prefetch_access 0
Core_0_DTLB_prefetch_hit 0
Core_0_DTLB_prefetch_miss 0
Core_0_DTLB_prefetch_MPKI 0
Core_0_DTLB_prefetch_miss_rate 0
Core_0_DTLB_writeback_access 0
Core_0_DTLB_writeback_hit 0
Core_0_DTLB_writeback_miss 0
Core_0_DTLB_writeback_MPKI 0
Core_0_DTLB_writeback_miss_rate 0
Core_0_DTLB_prefetch_requested 0
Core_0_DTLB_prefetch_issued 0
Core_0_DTLB_prefetch_useful 0
Core_0_DTLB_prefetch_useless 0
Core_0_DTLB_prefetch_late 0
Core_0_DTLB_prefetch_accuracy 0
Core_0_DTLB_prefetch_coverage 0

Core_0_STLB_total_access 102901
Core_0_STLB_total_hit 75066
Core_0_STLB_total_miss 27835
Core_0_STLB_total_MPKI 0.27835
Core_0_STLB_total_miss_rate 0.270503
Core_0_STLB_demand_access 102901
Core_0_STLB_demand_hit 75066
Core_0_STLB_demand_miss 27835
Core_0_STLB_demand_MPKI 0.27835
Core_0_STLB_demand_miss_rate 0.270503
Core_0_STLB_load_access 102901
Core_0_STLB_load_hit 75066
Core_0_STLB_load_miss 27835
Core_0_STLB_load_MPKI 0.27835
Core_0_STLB_load_miss_rate 0.270503
Core_0_STLB_rfo_access 0
Core_0_STLB_rfo_hit 0
Core_0_STLB_rfo_miss 0
Core_0_STLB_rfo_MPKI 0
Core_0_STLB_rfo_miss_rate 0
Core_0_STLB_prefetch_access 0
Core_0_STLB_prefetch_hit 0
Core_0_STLB_prefetch_miss 0
Core_0_STLB_prefetch_MPKI 0
Core_0_STLB_prefetch_miss_rate 0
Core_0_STLB_writeback_access 0
Core_0_STLB_writeback_hit 0
Core_0_STLB_writeback_miss 0
Core_0_STLB_writeback_MPKI 0
Core_0_STLB_writeback_miss_rate 0
Core_0_STLB_prefetch_requested 0
Core_0_STLB_prefetch_issued 0
Core_0_STLB_prefetch_useful 0
Core_0_STLB_prefetch_useless 0
Core_0_STLB_prefetch_late 0
Core_0_STLB_prefetch_accuracy 0
Core_0_STLB_prefetch_coverage 0

Core_0_L1I_total_access 20258132
Core_0_L1I_total_hit 20258132
Core_0_L1I_total_miss 0
Core_0_L1I_total_MPKI 0
Core_0_L1I_total_miss_rate 0
Core_0_L1I_demand_access 20258132
Core_0_L1I_demand_hit 20258132
Core_0_L1I_demand_miss 0
Core_0_L1I_demand_MPKI 0
Core_0_L1I_demand_miss_rate 0
Core_0_L1I_load_access 20258132
Core_0_L1I_load_hit 20258132
Core_0_L1I_load_miss 0
Core_0_L1I_load_MPKI 0
Core_0_L1I_load_miss_rate 0
Core_0_L1I_rfo_access 0
Core_0_L1I_rfo_hit 0
Core_0_L1I_rfo_miss 0
Core_0_L1I_rfo_MPKI 0
Core_0_L1I_rfo_miss_rate 0
Core_0_L1I_prefetch_access 0
Core_0_L1I_prefetch_hit 0
Core_0_L1I_prefetch_miss 0
Core_0_L1I_prefetch_MPKI 0
Core_0_L1I_prefetch_miss_rate 0
Core_0_L1I_writeback_access 0
Core_0_L1I_writeback_hit 0
Core_0_L1I_writeback_miss 0
Core_0_L1I_writeback_MPKI 0
Core_0_L1I_writeback_miss_rate 0
Core_0_L1I_prefetch_requested 0
Core_0_L1I_prefetch_issued 0
Core_0_L1I_prefetch_useful 0
Core_0_L1I_prefetch_useless 0
Core_0_L1I_prefetch_late 0
Core_0_L1I_prefetch_accuracy 0
Core_0_L1I_prefetch_coverage 0

Core_0_L1D_total_access 36527134
Core_0_L1D_total_hit 34025916
Core_0_L1D_total_miss 2501218
Core_0_L1D_total_MPKI 25.0122
Core_0_L1D_total_miss_rate 0.0684756
Core_0_L1D_demand_access 29040893
Core_0_L1D_demand_hit 26669503
Core_0_L1D_demand_miss 2371390
Core_0_L1D_demand_MPKI 23.7139
Core_0_L1D_demand_miss_rate 0.0816569
Core_0_L1D_load_access 29040893
Core_0_L1D_load_hit 26669503
Core_0_L1D_load_miss 2371390
Core_0_L1D_load_MPKI 23.7139
Core_0_L1D_load_miss_rate 0.0816569
Core_0_L1D_rfo_access 0
Core_0_L1D_rfo_hit 0
Core_0_L1D_rfo_miss 0
Core_0_L1D_rfo_MPKI 0
Core_0_L1D_rfo_miss_rate 0
Core_0_L1D_prefetch_access 0
Core_0_L1D_prefetch_hit 0
Core_0_L1D_prefetch_miss 0
Core_0_L1D_prefetch_MPKI 0
Core_0_L1D_prefetch_miss_rate 0
Core_0_L1D_writeback_access 7486241
Core_0_L1D_writeback_hit 7356413
Core_0_L1D_writeback_miss 129828
Core_0_L1D_writeback_MPKI 1.29828
Core_0_L1D_writeback_miss_rate 0.0173422
Core_0_L1D_prefetch_requested 0
Core_0_L1D_prefetch_issued 0
Core_0_L1D_prefetch_useful 0
Core_0_L1D_prefetch_useless 0
Core_0_L1D_prefetch_late 0
Core_0_L1D_prefetch_accuracy 0
Core_0_L1D_prefetch_coverage 0

Core_0_L2C_total_access 1976349
Core_0_L2C_total_hit 141235
Core_0_L2C_total_miss 1835114
Core_0_L2C_total_MPKI 18.3511
Core_0_L2C_total_miss_rate 0.928537
Core_0_L2C_demand_access 1929294
Core_0_L2C_demand_hit 94180
Core_0_L2C_demand_miss 1835114
Core_0_L2C_demand_MPKI 18.3511
Core_0_L2C_demand_miss_rate 0.951184
Core_0_L2C_load_access 1882240
Core_0_L2C_load_hit 94180
Core_0_L2C_load_miss 1788060
Core_0_L2C_load_MPKI 17.8806
Core_0_L2C_load_miss_rate 0.949964
Core_0_L2C_rfo_access 47054
Core_0_L2C_rfo_hit 0
Core_0_L2C_rfo_miss 47054
Core_0_L2C_rfo_MPKI 0.47054
Core_0_L2C_rfo_miss_rate 1
Core_0_L2C_prefetch_access 0
Core_0_L2C_prefetch_hit 0
Core_0_L2C_prefetch_miss 0
Core_0_L2C_prefetch_MPKI 0
Core_0_L2C_prefetch_miss_rate 0
Core_0_L2C_writeback_access 47055
Core_0_L2C_writeback_hit 47055
Core_0_L2C_writeback_miss 0
Core_0_L2C_writeback_MPKI 0
Core_0_L2C_writeback_miss_rate 0
Core_0_L2C_prefetch_requested 0
Core_0_L2C_prefetch_issued 0
Core_0_L2C_prefetch_useful 0
Core_0_L2C_prefetch_useless 0
Core_0_L2C_prefetch_late 0
Core_0_L2C_prefetch_accuracy 0
Core_0_L2C_prefetch_coverage 0

Core_0_LLC_total_access 1882175
Core_0_LLC_total_hit 11241
Core_0_LLC_total_miss 1870934
Core_0_LLC_total_MPKI 18.7093
Core_0_LLC_total_miss_rate 0.994028
Core_0_LLC_demand_access 1835114
Core_0_LLC_demand_hit 3913
Core_0_LLC_demand_miss 1831201
Core_0_LLC_demand_MPKI 18.312
Core_0_LLC_demand_miss_rate 0.997868
Core_0_LLC_load_access 1788060
Core_0_LLC_load_hit 3913
Core_0_LLC_load_miss 1784147
Core_0_LLC_load_MPKI 17.8415
Core_0_LLC_load_miss_rate 0.997812
Core_0_LLC_rfo_access 47054
Core_0_LLC_rfo_hit 0
Core_0_LLC_rfo_miss 47054
Core_0_LLC_rfo_MPKI 0.47054
Core_0_LLC_rfo_miss_rate 1
Core_0_LLC_prefetch_access 0
Core_0_LLC_prefetch_hit 0
Core_0_LLC_prefetch_miss 0
Core_0_LLC_prefetch_MPKI 0
Core_0_LLC_prefetch_miss_rate 0
Core_0_LLC_writeback_access 47061
Core_0_LLC_writeback_hit 7328
Core_0_LLC_writeback_miss 39733
Core_0_LLC_writeback_MPKI 0.39733
Core_0_LLC_writeback_miss_rate 0.844287
Core_0_LLC_prefetch_requested 0
Core_0_LLC_prefetch_issued 0
Core_0_LLC_prefetch_useful 0
Core_0_LLC_prefetch_useless 0
Core_0_LLC_prefetch_late 0
Core_0_LLC_prefetch_accuracy 0
Core_0_LLC_prefetch_coverage 0

[DRAM Statistics]
Channel_0_RQ_row_buffer_hit 2
Channel_0_RQ_row_buffer_miss 1834797
Channel_0_WQ_row_buffer_hit 5468
Channel_0_WQ_row_buffer_miss 41657
Channel_0_WQ_full 0
Channel_0_dbus_congested 3747874
DRAM_total_RQ_row_buffer_hit 2
DRAM_total_RQ_row_buffer_miss 1834797
DRAM_total_WQ_row_buffer_hit 5468
DRAM_total_WQ_row_buffer_miss 41657
DRAM_total_WQ_full 0
DRAM_total_dbus_congested 3747874
DRAM_avg_congested_cycle 4.33349

====== DRAM_RQ_TRAFFIC ========
DRAM_RQ_READ_TRAFFIC_BREAKDOWN:
data_demand_read.count = 1831201
data_demand_read.share = 99.80%

inst_demand_read.count = 0
inst_demand_read.share = 0.00%

cache_inst_prefetch.count = 0
cache_inst_prefetch.share = 0.00%

cache_data_prefetch.count = 0
cache_data_prefetch.share = 0.00%

stlb_data_demand.count = 3602
stlb_data_demand.share = 0.20%

stlb_inst_demand.count = 0
stlb_inst_demand.share = 0.00%

stlb_l1i_pref.count = 0
stlb_l1i_pref.share = 0.00%

stlb_l1d_pref.count = 0
stlb_l1d_pref.share = 0.00%

DRAM_RQ_READ_TRAFFIC_SUMMARY:
cache_demand.count = 1831201
cache_demand.share = 99.80%

cache_prefetch.count = 0
cache_prefetch.share = 0.00%

stlb_demand.count = 3602
stlb_demand.share = 0.20%

stlb_prefetch.count = 0
stlb_prefetch.share = 0.00%

DRAM_RQ_READ_TRAFFIC_DEBUG:
total_classified_read.count = 1834803
unclassified_read.count = 0
total_read_with_other.count = 1834803

classified_plus_unclassified_check.count = 1834803
dram_rq_read_total_observed.count = 1834803
dram_rq_read_total_observed.per_1K_instructions = 18.348

STLB_MISS_PTW_DRAM_TOUCH_BREAKDOWN:
stlb_miss_total.count = 27835

stlb_miss_touch_dram.count = 3555
stlb_miss_touch_dram.share = 12.77%

stlb_miss_no_dram_touch.count = 24280
stlb_miss_no_dram_touch.share = 87.23%

STLB_MISS_PTW_DRAM_TOUCH_DEBUG:
stlb_miss_touch_plus_no_touch.count = 27835
stlb_miss_total_check.count = 27835

======STLB miss causes ========
Core_0_STLB_miss_cause_breakdown
Core_0_STLB_cause_Demand_Data_miss 27835
Core_0_STLB_cause_Demand_Data_miss_rate 0.270503
Core_0_STLB_cause_Demand_Instruction_miss 0
Core_0_STLB_cause_Demand_Instruction_miss_rate 0
Core_0_STLB_cause_L1D_Prefetch_miss 0
Core_0_STLB_cause_L1D_Prefetch_miss_rate 0
Core_0_STLB_cause_L1I_Prefetch_miss 0
Core_0_STLB_cause_L1I_Prefetch_miss_rate 0
Core_0_STLB_cause_Other_miss 0
Core_0_STLB_cause_Other_miss_rate 0
Core_0_STLB_Demand_miss 27835
Core_0_STLB_Demand_miss_rate 0.270503
Core_0_STLB_L1D_Prefetch_miss 0
Core_0_STLB_L1D_Prefetch_miss_rate 0
Core_0_STLB_Other_miss 0
Core_0_STLB_Other_miss_rate 0
