[VMEM] WARNING: physical memory size is smaller than virtual memory size.

*** ChampSim Multicore Out-of-Order Simulator ***
Warmup Instructions: 50000000
Simulation Instructions: 100000000
Number of CPUs: 1
Page size: 4096
Core 0: /data0/tzh/champsim_traces/SPEC06/437.leslie3d-149B.champsimtrace.xz
Off-chip DRAM Size: 16 GiB Channels: 1 Width: 64-bit Data Rate: 3205 MT/s
Warmup halting CPU 0 at instruction 50000005 cycle 10911823 for remainder of phase
Warmup finished CPU 0 instructions: 50000005 cycles: 10911823 cumulative IPC: 4.582 (Simulation time: 00 hr 02 min 25 sec)
Warmup complete CPU 0 instructions: 50000005 cycles: 10911823 cumulative IPC: 4.582 (Simulation time: 00 hr 02 min 25 sec)
Simulation finished CPU 0 instructions: 100000002 cycles: 128538450 cumulative IPC: 0.778 (Simulation time: 00 hr 18 min 12 sec)
Simulation complete CPU 0 instructions: 100000002 cycles: 128538450 cumulative IPC: 0.778 (Simulation time: 00 hr 18 min 12 sec)

ChampSim completed all CPUs

=== Simulation ===
CPU 0 runs /data0/tzh/champsim_traces/SPEC06/437.leslie3d-149B.champsimtrace.xz

Region of Interest Statistics

CPU 0 cumulative IPC: 0.778 instructions: 100000002 cycles: 128538450
CPU 0 Branch Prediction Accuracy: 99.84% MPKI: 0.06063 Average ROB Occupancy at Mispredict: 328.5
Branch type MPKI
BRANCH_DIRECT_JUMP: 0.00026
BRANCH_INDIRECT: 0
BRANCH_CONDITIONAL: 0.05948
BRANCH_DIRECT_CALL: 0.00046
BRANCH_INDIRECT_CALL: 0
BRANCH_RETURN: 0.00043

cpu0->cpu0_STLB TOTAL        ACCESS:      30769 HIT:       4624 MISS:      26145 MSHR_MERGE:          0
cpu0->cpu0_STLB LOAD         ACCESS:      30769 HIT:       4624 MISS:      26145 MSHR_MERGE:          0
cpu0->cpu0_STLB RFO          ACCESS:          0 HIT:          0 MISS:          0 MSHR_MERGE:          0
cpu0->cpu0_STLB PREFETCH     ACCESS:          0 HIT:          0 MISS:          0 MSHR_MERGE:          0
cpu0->cpu0_STLB WRITE        ACCESS:          0 HIT:          0 MISS:          0 MSHR_MERGE:          0
cpu0->cpu0_STLB TRANSLATION  ACCESS:          0 HIT:          0 MISS:          0 MSHR_MERGE:          0
cpu0->cpu0_STLB PREFETCH REQUESTED:          0 ISSUED:          0 USEFUL:          0 USELESS:          0 LATE:          0
cpu0->cpu0_STLB AVERAGE MISS LATENCY: 131.4 cycles
cpu0->cpu0_L2C TOTAL        ACCESS:    1552475 HIT:     497512 MISS:    1054963 MSHR_MERGE:          0
cpu0->cpu0_L2C LOAD         ACCESS:     731268 HIT:      22863 MISS:     708405 MSHR_MERGE:          0
cpu0->cpu0_L2C RFO          ACCESS:     356083 HIT:      13398 MISS:     342685 MSHR_MERGE:          0
cpu0->cpu0_L2C PREFETCH     ACCESS:          0 HIT:          0 MISS:          0 MSHR_MERGE:          0
cpu0->cpu0_L2C WRITE        ACCESS:     451280 HIT:     451232 MISS:         48 MSHR_MERGE:          0
cpu0->cpu0_L2C TRANSLATION  ACCESS:      13844 HIT:      10019 MISS:       3825 MSHR_MERGE:          0
cpu0->cpu0_L2C PREFETCH REQUESTED:          0 ISSUED:          0 USEFUL:          0 USELESS:          0 LATE:          0
cpu0->cpu0_L2C AVERAGE MISS LATENCY: 236.8 cycles
cpu0->cpu0_L1I TOTAL        ACCESS:   15383353 HIT:   15382889 MISS:        464 MSHR_MERGE:        178
cpu0->cpu0_L1I LOAD         ACCESS:   15383353 HIT:   15382889 MISS:        464 MSHR_MERGE:        178
cpu0->cpu0_L1I RFO          ACCESS:          0 HIT:          0 MISS:          0 MSHR_MERGE:          0
cpu0->cpu0_L1I PREFETCH     ACCESS:          0 HIT:          0 MISS:          0 MSHR_MERGE:          0
cpu0->cpu0_L1I WRITE        ACCESS:          0 HIT:          0 MISS:          0 MSHR_MERGE:          0
cpu0->cpu0_L1I TRANSLATION  ACCESS:          0 HIT:          0 MISS:          0 MSHR_MERGE:          0
cpu0->cpu0_L1I PREFETCH REQUESTED:          0 ISSUED:          0 USEFUL:          0 USELESS:          0 LATE:          0
cpu0->cpu0_L1I AVERAGE MISS LATENCY: 258.2 cycles
cpu0->cpu0_L1D TOTAL        ACCESS:   28030655 HIT:   23731381 MISS:    4299274 MSHR_MERGE:    3198362
cpu0->cpu0_L1D LOAD         ACCESS:   23269820 HIT:   20776179 MISS:    2493641 MSHR_MERGE:    1762659
cpu0->cpu0_L1D RFO          ACCESS:          0 HIT:          0 MISS:          0 MSHR_MERGE:          0
cpu0->cpu0_L1D PREFETCH     ACCESS:          0 HIT:          0 MISS:          0 MSHR_MERGE:          0
cpu0->cpu0_L1D WRITE        ACCESS:    4708520 HIT:    2916733 MISS:    1791787 MSHR_MERGE:    1435701
cpu0->cpu0_L1D TRANSLATION  ACCESS:      52315 HIT:      38469 MISS:      13846 MSHR_MERGE:          2
cpu0->cpu0_L1D PREFETCH REQUESTED:          0 ISSUED:          0 USEFUL:          0 USELESS:          0 LATE:          0
cpu0->cpu0_L1D AVERAGE MISS LATENCY: 235.8 cycles
cpu0->cpu0_ITLB TOTAL        ACCESS:   13171792 HIT:   13171757 MISS:         35 MSHR_MERGE:         20
cpu0->cpu0_ITLB LOAD         ACCESS:   13171792 HIT:   13171757 MISS:         35 MSHR_MERGE:         20
cpu0->cpu0_ITLB RFO          ACCESS:          0 HIT:          0 MISS:          0 MSHR_MERGE:          0
cpu0->cpu0_ITLB PREFETCH     ACCESS:          0 HIT:          0 MISS:          0 MSHR_MERGE:          0
cpu0->cpu0_ITLB WRITE        ACCESS:          0 HIT:          0 MISS:          0 MSHR_MERGE:          0
cpu0->cpu0_ITLB TRANSLATION  ACCESS:          0 HIT:          0 MISS:          0 MSHR_MERGE:          0
cpu0->cpu0_ITLB PREFETCH REQUESTED:          0 ISSUED:          0 USEFUL:          0 USELESS:          0 LATE:          0
cpu0->cpu0_ITLB AVERAGE MISS LATENCY: 347.5 cycles
cpu0->cpu0_DTLB TOTAL        ACCESS:   26298922 HIT:   26199267 MISS:      99655 MSHR_MERGE:      68901
cpu0->cpu0_DTLB LOAD         ACCESS:   26298922 HIT:   26199267 MISS:      99655 MSHR_MERGE:      68901
cpu0->cpu0_DTLB RFO          ACCESS:          0 HIT:          0 MISS:          0 MSHR_MERGE:          0
cpu0->cpu0_DTLB PREFETCH     ACCESS:          0 HIT:          0 MISS:          0 MSHR_MERGE:          0
cpu0->cpu0_DTLB WRITE        ACCESS:          0 HIT:          0 MISS:          0 MSHR_MERGE:          0
cpu0->cpu0_DTLB TRANSLATION  ACCESS:          0 HIT:          0 MISS:          0 MSHR_MERGE:          0
cpu0->cpu0_DTLB PREFETCH REQUESTED:          0 ISSUED:          0 USEFUL:          0 USELESS:          0 LATE:          0
cpu0->cpu0_DTLB AVERAGE MISS LATENCY: 117.4 cycles
cpu0->LLC TOTAL        ACCESS:    1489589 HIT:     295869 MISS:    1193720 MSHR_MERGE:          0
cpu0->LLC LOAD         ACCESS:     708405 HIT:      17103 MISS:     691302 MSHR_MERGE:          0
cpu0->LLC RFO          ACCESS:     342684 HIT:      13469 MISS:     329215 MSHR_MERGE:          0
cpu0->LLC PREFETCH     ACCESS:          0 HIT:          0 MISS:          0 MSHR_MERGE:          0
cpu0->LLC WRITE        ACCESS:     434675 HIT:     264672 MISS:     170003 MSHR_MERGE:          0
cpu0->LLC TRANSLATION  ACCESS:       3825 HIT:        625 MISS:       3200 MSHR_MERGE:          0
cpu0->LLC PREFETCH REQUESTED:          0 ISSUED:          0 USEFUL:          0 USELESS:          0 LATE:          0
cpu0->LLC AVERAGE MISS LATENCY: 196.4 cycles

DRAM Statistics

Channel 0 RQ ROW_BUFFER_HIT:       3887
  ROW_BUFFER_MISS:    1019663
  AVG DBUS CONGESTED CYCLE: 7.037
Channel 0 WQ ROW_BUFFER_HIT:      97105
  ROW_BUFFER_MISS:     304356
  FULL:          0
Channel 0 REFRESHES ISSUED:      10711

[ROI Statistics]
[System Configuration]
num_cpus 1
cpu_freq 4000
fetch_width 6
decode_width 6
dispatch_width 6
execute_width 6
lq_width 2
sq_width 2
retire_width 6
scheduler_size 128
branch_mispredict_penalty 15
rob_size 352
lq_size 128
sq_size 72
ifetch_buffer_size 64
decode_buffer_size 32
dispatch_buffer_size 32
register_file_size 288
decode_latency 1
dispatch_latency 1
schedule_latency 1
execute_latency 1
page_size 4096
block_size 64
core_0_itlb_set 16
core_0_itlb_way 4
core_0_itlb_rq_size 16
core_0_itlb_wq_size 16
core_0_itlb_pq_size 0
core_0_itlb_mshr_size 8
core_0_itlb_hit_latency 1
core_0_itlb_fill_latency 1
core_0_itlb_max_tag_check 2
core_0_itlb_max_fill 2
core_0_dtlb_set 16
core_0_dtlb_way 4
core_0_dtlb_rq_size 16
core_0_dtlb_wq_size 16
core_0_dtlb_pq_size 0
core_0_dtlb_mshr_size 8
core_0_dtlb_hit_latency 1
core_0_dtlb_fill_latency 1
core_0_dtlb_max_tag_check 2
core_0_dtlb_max_fill 2
core_0_stlb_set 128
core_0_stlb_way 12
core_0_stlb_rq_size 32
core_0_stlb_wq_size 32
core_0_stlb_pq_size 0
core_0_stlb_mshr_size 16
core_0_stlb_hit_latency 4
core_0_stlb_fill_latency 4
core_0_stlb_max_tag_check 1
core_0_stlb_max_fill 1
core_0_l1i_set 64
core_0_l1i_way 8
core_0_l1i_rq_size 64
core_0_l1i_wq_size 64
core_0_l1i_pq_size 32
core_0_l1i_mshr_size 8
core_0_l1i_hit_latency 2
core_0_l1i_fill_latency 2
core_0_l1i_max_tag_check 2
core_0_l1i_max_fill 2
core_0_l1d_set 64
core_0_l1d_way 12
core_0_l1d_rq_size 64
core_0_l1d_wq_size 64
core_0_l1d_pq_size 8
core_0_l1d_mshr_size 16
core_0_l1d_hit_latency 2
core_0_l1d_fill_latency 3
core_0_l1d_max_tag_check 2
core_0_l1d_max_fill 2
core_0_l2c_set 1024
core_0_l2c_way 8
core_0_l2c_rq_size 32
core_0_l2c_wq_size 32
core_0_l2c_pq_size 16
core_0_l2c_mshr_size 32
core_0_l2c_hit_latency 5
core_0_l2c_fill_latency 5
core_0_l2c_max_tag_check 1
core_0_l2c_max_fill 1
llc_set 2048
llc_way 16
llc_rq_size 32
llc_wq_size 32
llc_pq_size 32
llc_mshr_size 64
llc_hit_latency 10
llc_fill_latency 10
llc_max_tag_check 1
llc_max_fill 1
dram_channels 1
dram_ranks 1
dram_bankgroups 8
dram_banks 4
dram_rows 65536
dram_columns 1024
dram_channel_width 8
dram_rq_size 64
dram_wq_size 64
dram_size 17179869184
core_0_itlb_prefetcher no
core_0_dtlb_prefetcher no
core_0_stlb_prefetcher no
core_0_l1i_prefetcher no
core_0_l1d_prefetcher no
core_0_l2c_prefetcher no
llc_prefetcher no
llc_replacement drrip

Core_0_instructions 100000002
Core_0_cycles 128538450
Core_0_IPC 0.777977
Core_0_branch_prediction_accuracy 99.8372
Core_0_branch_MPKI 0.06063
Core_0_average_ROB_occupancy_at_mispredict 328.494

Core_0_ITLB_total_access 13171792
Core_0_ITLB_total_hit 13171757
Core_0_ITLB_total_miss 35
Core_0_ITLB_total_MPKI 0.00035
Core_0_ITLB_total_miss_rate 2.65719e-06
Core_0_ITLB_demand_access 13171792
Core_0_ITLB_demand_hit 13171757
Core_0_ITLB_demand_miss 35
Core_0_ITLB_demand_MPKI 0.00035
Core_0_ITLB_demand_miss_rate 2.65719e-06
Core_0_ITLB_load_access 13171792
Core_0_ITLB_load_hit 13171757
Core_0_ITLB_load_miss 35
Core_0_ITLB_load_MPKI 0.00035
Core_0_ITLB_load_miss_rate 2.65719e-06
Core_0_ITLB_rfo_access 0
Core_0_ITLB_rfo_hit 0
Core_0_ITLB_rfo_miss 0
Core_0_ITLB_rfo_MPKI 0
Core_0_ITLB_rfo_miss_rate 0
Core_0_ITLB_prefetch_access 0
Core_0_ITLB_prefetch_hit 0
Core_0_ITLB_prefetch_miss 0
Core_0_ITLB_prefetch_MPKI 0
Core_0_ITLB_prefetch_miss_rate 0
Core_0_ITLB_writeback_access 0
Core_0_ITLB_writeback_hit 0
Core_0_ITLB_writeback_miss 0
Core_0_ITLB_writeback_MPKI 0
Core_0_ITLB_writeback_miss_rate 0
Core_0_ITLB_prefetch_requested 0
Core_0_ITLB_prefetch_issued 0
Core_0_ITLB_prefetch_useful 0
Core_0_ITLB_prefetch_useless 0
Core_0_ITLB_prefetch_late 0
Core_0_ITLB_prefetch_accuracy 0
Core_0_ITLB_prefetch_coverage 0

Core_0_DTLB_total_access 26298922
Core_0_DTLB_total_hit 26199267
Core_0_DTLB_total_miss 99655
Core_0_DTLB_total_MPKI 0.99655
Core_0_DTLB_total_miss_rate 0.00378932
Core_0_DTLB_demand_access 26298922
Core_0_DTLB_demand_hit 26199267
Core_0_DTLB_demand_miss 99655
Core_0_DTLB_demand_MPKI 0.99655
Core_0_DTLB_demand_miss_rate 0.00378932
Core_0_DTLB_load_access 26298922
Core_0_DTLB_load_hit 26199267
Core_0_DTLB_load_miss 99655
Core_0_DTLB_load_MPKI 0.99655
Core_0_DTLB_load_miss_rate 0.00378932
Core_0_DTLB_rfo_access 0
Core_0_DTLB_rfo_hit 0
Core_0_DTLB_rfo_miss 0
Core_0_DTLB_rfo_MPKI 0
Core_0_DTLB_rfo_miss_rate 0
Core_0_DTLB_prefetch_access 0
Core_0_DTLB_prefetch_hit 0
Core_0_DTLB_prefetch_miss 0
Core_0_DTLB_prefetch_MPKI 0
Core_0_DTLB_prefetch_miss_rate 0
Core_0_DTLB_writeback_access 0
Core_0_DTLB_writeback_hit 0
Core_0_DTLB_writeback_miss 0
Core_0_DTLB_writeback_MPKI 0
Core_0_DTLB_writeback_miss_rate 0
Core_0_DTLB_prefetch_requested 0
Core_0_DTLB_prefetch_issued 0
Core_0_DTLB_prefetch_useful 0
Core_0_DTLB_prefetch_useless 0
Core_0_DTLB_prefetch_late 0
Core_0_DTLB_prefetch_accuracy 0
Core_0_DTLB_prefetch_coverage 0

Core_0_STLB_total_access 30769
Core_0_STLB_total_hit 4624
Core_0_STLB_total_miss 26145
Core_0_STLB_total_MPKI 0.26145
Core_0_STLB_total_miss_rate 0.849719
Core_0_STLB_demand_access 30769
Core_0_STLB_demand_hit 4624
Core_0_STLB_demand_miss 26145
Core_0_STLB_demand_MPKI 0.26145
Core_0_STLB_demand_miss_rate 0.849719
Core_0_STLB_load_access 30769
Core_0_STLB_load_hit 4624
Core_0_STLB_load_miss 26145
Core_0_STLB_load_MPKI 0.26145
Core_0_STLB_load_miss_rate 0.849719
Core_0_STLB_rfo_access 0
Core_0_STLB_rfo_hit 0
Core_0_STLB_rfo_miss 0
Core_0_STLB_rfo_MPKI 0
Core_0_STLB_rfo_miss_rate 0
Core_0_STLB_prefetch_access 0
Core_0_STLB_prefetch_hit 0
Core_0_STLB_prefetch_miss 0
Core_0_STLB_prefetch_MPKI 0
Core_0_STLB_prefetch_miss_rate 0
Core_0_STLB_writeback_access 0
Core_0_STLB_writeback_hit 0
Core_0_STLB_writeback_miss 0
Core_0_STLB_writeback_MPKI 0
Core_0_STLB_writeback_miss_rate 0
Core_0_STLB_prefetch_requested 0
Core_0_STLB_prefetch_issued 0
Core_0_STLB_prefetch_useful 0
Core_0_STLB_prefetch_useless 0
Core_0_STLB_prefetch_late 0
Core_0_STLB_prefetch_accuracy 0
Core_0_STLB_prefetch_coverage 0

Core_0_L1I_total_access 15383353
Core_0_L1I_total_hit 15382889
Core_0_L1I_total_miss 464
Core_0_L1I_total_MPKI 0.00464
Core_0_L1I_total_miss_rate 3.01625e-05
Core_0_L1I_demand_access 15383353
Core_0_L1I_demand_hit 15382889
Core_0_L1I_demand_miss 464
Core_0_L1I_demand_MPKI 0.00464
Core_0_L1I_demand_miss_rate 3.01625e-05
Core_0_L1I_load_access 15383353
Core_0_L1I_load_hit 15382889
Core_0_L1I_load_miss 464
Core_0_L1I_load_MPKI 0.00464
Core_0_L1I_load_miss_rate 3.01625e-05
Core_0_L1I_rfo_access 0
Core_0_L1I_rfo_hit 0
Core_0_L1I_rfo_miss 0
Core_0_L1I_rfo_MPKI 0
Core_0_L1I_rfo_miss_rate 0
Core_0_L1I_prefetch_access 0
Core_0_L1I_prefetch_hit 0
Core_0_L1I_prefetch_miss 0
Core_0_L1I_prefetch_MPKI 0
Core_0_L1I_prefetch_miss_rate 0
Core_0_L1I_writeback_access 0
Core_0_L1I_writeback_hit 0
Core_0_L1I_writeback_miss 0
Core_0_L1I_writeback_MPKI 0
Core_0_L1I_writeback_miss_rate 0
Core_0_L1I_prefetch_requested 0
Core_0_L1I_prefetch_issued 0
Core_0_L1I_prefetch_useful 0
Core_0_L1I_prefetch_useless 0
Core_0_L1I_prefetch_late 0
Core_0_L1I_prefetch_accuracy 0
Core_0_L1I_prefetch_coverage 0

Core_0_L1D_total_access 27978340
Core_0_L1D_total_hit 23692912
Core_0_L1D_total_miss 4285428
Core_0_L1D_total_MPKI 42.8543
Core_0_L1D_total_miss_rate 0.153169
Core_0_L1D_demand_access 23269820
Core_0_L1D_demand_hit 20776179
Core_0_L1D_demand_miss 2493641
Core_0_L1D_demand_MPKI 24.9364
Core_0_L1D_demand_miss_rate 0.107162
Core_0_L1D_load_access 23269820
Core_0_L1D_load_hit 20776179
Core_0_L1D_load_miss 2493641
Core_0_L1D_load_MPKI 24.9364
Core_0_L1D_load_miss_rate 0.107162
Core_0_L1D_rfo_access 0
Core_0_L1D_rfo_hit 0
Core_0_L1D_rfo_miss 0
Core_0_L1D_rfo_MPKI 0
Core_0_L1D_rfo_miss_rate 0
Core_0_L1D_prefetch_access 0
Core_0_L1D_prefetch_hit 0
Core_0_L1D_prefetch_miss 0
Core_0_L1D_prefetch_MPKI 0
Core_0_L1D_prefetch_miss_rate 0
Core_0_L1D_writeback_access 4708520
Core_0_L1D_writeback_hit 2916733
Core_0_L1D_writeback_miss 1791787
Core_0_L1D_writeback_MPKI 17.9179
Core_0_L1D_writeback_miss_rate 0.380541
Core_0_L1D_prefetch_requested 0
Core_0_L1D_prefetch_issued 0
Core_0_L1D_prefetch_useful 0
Core_0_L1D_prefetch_useless 0
Core_0_L1D_prefetch_late 0
Core_0_L1D_prefetch_accuracy 0
Core_0_L1D_prefetch_coverage 0

Core_0_L2C_total_access 1538631
Core_0_L2C_total_hit 487493
Core_0_L2C_total_miss 1051138
Core_0_L2C_total_MPKI 10.5114
Core_0_L2C_total_miss_rate 0.683164
Core_0_L2C_demand_access 1087351
Core_0_L2C_demand_hit 36261
Core_0_L2C_demand_miss 1051090
Core_0_L2C_demand_MPKI 10.5109
Core_0_L2C_demand_miss_rate 0.966652
Core_0_L2C_load_access 731268
Core_0_L2C_load_hit 22863
Core_0_L2C_load_miss 708405
Core_0_L2C_load_MPKI 7.08405
Core_0_L2C_load_miss_rate 0.968735
Core_0_L2C_rfo_access 356083
Core_0_L2C_rfo_hit 13398
Core_0_L2C_rfo_miss 342685
Core_0_L2C_rfo_MPKI 3.42685
Core_0_L2C_rfo_miss_rate 0.962374
Core_0_L2C_prefetch_access 0
Core_0_L2C_prefetch_hit 0
Core_0_L2C_prefetch_miss 0
Core_0_L2C_prefetch_MPKI 0
Core_0_L2C_prefetch_miss_rate 0
Core_0_L2C_writeback_access 451280
Core_0_L2C_writeback_hit 451232
Core_0_L2C_writeback_miss 48
Core_0_L2C_writeback_MPKI 0.00048
Core_0_L2C_writeback_miss_rate 0.000106364
Core_0_L2C_prefetch_requested 0
Core_0_L2C_prefetch_issued 0
Core_0_L2C_prefetch_useful 0
Core_0_L2C_prefetch_useless 0
Core_0_L2C_prefetch_late 0
Core_0_L2C_prefetch_accuracy 0
Core_0_L2C_prefetch_coverage 0

Core_0_LLC_total_access 1485764
Core_0_LLC_total_hit 295244
Core_0_LLC_total_miss 1190520
Core_0_LLC_total_MPKI 11.9052
Core_0_LLC_total_miss_rate 0.801285
Core_0_LLC_demand_access 1051089
Core_0_LLC_demand_hit 30572
Core_0_LLC_demand_miss 1020517
Core_0_LLC_demand_MPKI 10.2052
Core_0_LLC_demand_miss_rate 0.970914
Core_0_LLC_load_access 708405
Core_0_LLC_load_hit 17103
Core_0_LLC_load_miss 691302
Core_0_LLC_load_MPKI 6.91302
Core_0_LLC_load_miss_rate 0.975857
Core_0_LLC_rfo_access 342684
Core_0_LLC_rfo_hit 13469
Core_0_LLC_rfo_miss 329215
Core_0_LLC_rfo_MPKI 3.29215
Core_0_LLC_rfo_miss_rate 0.960696
Core_0_LLC_prefetch_access 0
Core_0_LLC_prefetch_hit 0
Core_0_LLC_prefetch_miss 0
Core_0_LLC_prefetch_MPKI 0
Core_0_LLC_prefetch_miss_rate 0
Core_0_LLC_writeback_access 434675
Core_0_LLC_writeback_hit 264672
Core_0_LLC_writeback_miss 170003
Core_0_LLC_writeback_MPKI 1.70003
Core_0_LLC_writeback_miss_rate 0.391104
Core_0_LLC_prefetch_requested 0
Core_0_LLC_prefetch_issued 0
Core_0_LLC_prefetch_useful 0
Core_0_LLC_prefetch_useless 0
Core_0_LLC_prefetch_late 0
Core_0_LLC_prefetch_accuracy 0
Core_0_LLC_prefetch_coverage 0

[DRAM Statistics]
Channel_0_RQ_row_buffer_hit 3887
Channel_0_RQ_row_buffer_miss 1019663
Channel_0_WQ_row_buffer_hit 97105
Channel_0_WQ_row_buffer_miss 304356
Channel_0_WQ_full 0
Channel_0_dbus_congested 3405282
DRAM_total_RQ_row_buffer_hit 3887
DRAM_total_RQ_row_buffer_miss 1019663
DRAM_total_WQ_row_buffer_hit 97105
DRAM_total_WQ_row_buffer_miss 304356
DRAM_total_WQ_full 0
DRAM_total_dbus_congested 3405282
DRAM_avg_congested_cycle 7.03703

====== DRAM_RQ_TRAFFIC ========
DRAM_RQ_READ_TRAFFIC_BREAKDOWN:
data_demand_read.count = 1020231
data_demand_read.share = 99.66%

inst_demand_read.count = 286
inst_demand_read.share = 0.03%

cache_inst_prefetch.count = 0
cache_inst_prefetch.share = 0.00%

cache_data_prefetch.count = 0
cache_data_prefetch.share = 0.00%

stlb_data_demand.count = 3192
stlb_data_demand.share = 0.31%

stlb_inst_demand.count = 8
stlb_inst_demand.share = 0.00%

stlb_l1i_pref.count = 0
stlb_l1i_pref.share = 0.00%

stlb_l1d_pref.count = 0
stlb_l1d_pref.share = 0.00%

DRAM_RQ_READ_TRAFFIC_SUMMARY:
cache_demand.count = 1020517
cache_demand.share = 99.69%

cache_prefetch.count = 0
cache_prefetch.share = 0.00%

stlb_demand.count = 3200
stlb_demand.share = 0.31%

stlb_prefetch.count = 0
stlb_prefetch.share = 0.00%

DRAM_RQ_READ_TRAFFIC_DEBUG:
total_classified_read.count = 1023717
unclassified_read.count = 0
total_read_with_other.count = 1023717

classified_plus_unclassified_check.count = 1023717
dram_rq_read_total_observed.count = 1023717
dram_rq_read_total_observed.per_1K_instructions = 10.2372

STLB_MISS_PTW_DRAM_TOUCH_BREAKDOWN:
stlb_miss_total.count = 26145

stlb_miss_touch_dram.count = 3180
stlb_miss_touch_dram.share = 12.16%

stlb_miss_no_dram_touch.count = 22965
stlb_miss_no_dram_touch.share = 87.84%

STLB_MISS_PTW_DRAM_TOUCH_DEBUG:
stlb_miss_touch_plus_no_touch.count = 26145
stlb_miss_total_check.count = 26145

======STLB miss causes ========
Core_0_STLB_miss_cause_breakdown
Core_0_STLB_cause_Demand_Data_miss 26130
Core_0_STLB_cause_Demand_Data_miss_rate 0.849231
Core_0_STLB_cause_Demand_Instruction_miss 15
Core_0_STLB_cause_Demand_Instruction_miss_rate 0.000487504
Core_0_STLB_cause_L1D_Prefetch_miss 0
Core_0_STLB_cause_L1D_Prefetch_miss_rate 0
Core_0_STLB_cause_L1I_Prefetch_miss 0
Core_0_STLB_cause_L1I_Prefetch_miss_rate 0
Core_0_STLB_cause_Other_miss 0
Core_0_STLB_cause_Other_miss_rate 0
Core_0_STLB_Demand_miss 26145
Core_0_STLB_Demand_miss_rate 0.849719
Core_0_STLB_L1D_Prefetch_miss 0
Core_0_STLB_L1D_Prefetch_miss_rate 0
Core_0_STLB_Other_miss 0
Core_0_STLB_Other_miss_rate 0
