[VMEM] WARNING: physical memory size is smaller than virtual memory size.

*** ChampSim Multicore Out-of-Order Simulator ***
Warmup Instructions: 50000000
Simulation Instructions: 100000000
Number of CPUs: 1
Page size: 4096
Core 0: /data0/tzh/champsim_traces/SPEC06/459.GemsFDTD-765B.champsimtrace.xz
Off-chip DRAM Size: 16 GiB Channels: 1 Width: 64-bit Data Rate: 3205 MT/s
Warmup halting CPU 0 at instruction 50000004 cycle 18292844 for remainder of phase
Warmup finished CPU 0 instructions: 50000004 cycles: 18292844 cumulative IPC: 2.733 (Simulation time: 00 hr 03 min 51 sec)
Warmup complete CPU 0 instructions: 50000004 cycles: 18292844 cumulative IPC: 2.733 (Simulation time: 00 hr 03 min 51 sec)
Simulation finished CPU 0 instructions: 100000005 cycles: 109727165 cumulative IPC: 0.9114 (Simulation time: 00 hr 20 min 40 sec)
Simulation complete CPU 0 instructions: 100000005 cycles: 109727165 cumulative IPC: 0.9114 (Simulation time: 00 hr 20 min 40 sec)

ChampSim completed all CPUs

=== Simulation ===
CPU 0 runs /data0/tzh/champsim_traces/SPEC06/459.GemsFDTD-765B.champsimtrace.xz

Region of Interest Statistics

CPU 0 cumulative IPC: 0.9114 instructions: 100000005 cycles: 109727165
CPU 0 Branch Prediction Accuracy: 99.95% MPKI: 0.00296 Average ROB Occupancy at Mispredict: 316.2
Branch type MPKI
BRANCH_DIRECT_JUMP: 6e-05
BRANCH_INDIRECT: 0
BRANCH_CONDITIONAL: 0.0029
BRANCH_DIRECT_CALL: 0
BRANCH_INDIRECT_CALL: 0
BRANCH_RETURN: 0

cpu0->cpu0_STLB TOTAL        ACCESS:     329133 HIT:     102896 MISS:     226237 MSHR_MERGE:          0
cpu0->cpu0_STLB LOAD         ACCESS:     329133 HIT:     102896 MISS:     226237 MSHR_MERGE:          0
cpu0->cpu0_STLB RFO          ACCESS:          0 HIT:          0 MISS:          0 MSHR_MERGE:          0
cpu0->cpu0_STLB PREFETCH     ACCESS:          0 HIT:          0 MISS:          0 MSHR_MERGE:          0
cpu0->cpu0_STLB WRITE        ACCESS:          0 HIT:          0 MISS:          0 MSHR_MERGE:          0
cpu0->cpu0_STLB TRANSLATION  ACCESS:          0 HIT:          0 MISS:          0 MSHR_MERGE:          0
cpu0->cpu0_STLB PREFETCH REQUESTED:          0 ISSUED:          0 USEFUL:          0 USELESS:          0 LATE:          0
cpu0->cpu0_STLB AVERAGE MISS LATENCY: 101.4 cycles
cpu0->cpu0_L2C TOTAL        ACCESS:    1987596 HIT:     866691 MISS:    1120905 MSHR_MERGE:          0
cpu0->cpu0_L2C LOAD         ACCESS:    1335135 HIT:     244143 MISS:    1090992 MSHR_MERGE:          0
cpu0->cpu0_L2C RFO          ACCESS:       1535 HIT:       1526 MISS:          9 MSHR_MERGE:          0
cpu0->cpu0_L2C PREFETCH     ACCESS:          0 HIT:          0 MISS:          0 MSHR_MERGE:          0
cpu0->cpu0_L2C WRITE        ACCESS:     618533 HIT:     618527 MISS:          6 MSHR_MERGE:          0
cpu0->cpu0_L2C TRANSLATION  ACCESS:      32393 HIT:       2495 MISS:      29898 MSHR_MERGE:          0
cpu0->cpu0_L2C PREFETCH REQUESTED:          0 ISSUED:          0 USEFUL:          0 USELESS:          0 LATE:          0
cpu0->cpu0_L2C AVERAGE MISS LATENCY: 256 cycles
cpu0->cpu0_L1I TOTAL        ACCESS:   28518176 HIT:   28518023 MISS:        153 MSHR_MERGE:         65
cpu0->cpu0_L1I LOAD         ACCESS:   28518176 HIT:   28518023 MISS:        153 MSHR_MERGE:         65
cpu0->cpu0_L1I RFO          ACCESS:          0 HIT:          0 MISS:          0 MSHR_MERGE:          0
cpu0->cpu0_L1I PREFETCH     ACCESS:          0 HIT:          0 MISS:          0 MSHR_MERGE:          0
cpu0->cpu0_L1I WRITE        ACCESS:          0 HIT:          0 MISS:          0 MSHR_MERGE:          0
cpu0->cpu0_L1I TRANSLATION  ACCESS:          0 HIT:          0 MISS:          0 MSHR_MERGE:          0
cpu0->cpu0_L1I PREFETCH REQUESTED:          0 ISSUED:          0 USEFUL:          0 USELESS:          0 LATE:          0
cpu0->cpu0_L1I AVERAGE MISS LATENCY: 284.9 cycles
cpu0->cpu0_L1D TOTAL        ACCESS:   51365208 HIT:   49769789 MISS:    1595419 MSHR_MERGE:     226439
cpu0->cpu0_L1D LOAD         ACCESS:   43580539 HIT:   42029041 MISS:    1551498 MSHR_MERGE:     216451
cpu0->cpu0_L1D RFO          ACCESS:          0 HIT:          0 MISS:          0 MSHR_MERGE:          0
cpu0->cpu0_L1D PREFETCH     ACCESS:          0 HIT:          0 MISS:          0 MSHR_MERGE:          0
cpu0->cpu0_L1D WRITE        ACCESS:    7334181 HIT:    7325075 MISS:       9106 MSHR_MERGE:       7566
cpu0->cpu0_L1D TRANSLATION  ACCESS:     450488 HIT:     415673 MISS:      34815 MSHR_MERGE:       2422
cpu0->cpu0_L1D PREFETCH REQUESTED:          0 ISSUED:          0 USEFUL:          0 USELESS:          0 LATE:          0
cpu0->cpu0_L1D AVERAGE MISS LATENCY: 218.5 cycles
cpu0->cpu0_ITLB TOTAL        ACCESS:   24753828 HIT:   24753822 MISS:          6 MSHR_MERGE:          5
cpu0->cpu0_ITLB LOAD         ACCESS:   24753828 HIT:   24753822 MISS:          6 MSHR_MERGE:          5
cpu0->cpu0_ITLB RFO          ACCESS:          0 HIT:          0 MISS:          0 MSHR_MERGE:          0
cpu0->cpu0_ITLB PREFETCH     ACCESS:          0 HIT:          0 MISS:          0 MSHR_MERGE:          0
cpu0->cpu0_ITLB WRITE        ACCESS:          0 HIT:          0 MISS:          0 MSHR_MERGE:          0
cpu0->cpu0_ITLB TRANSLATION  ACCESS:          0 HIT:          0 MISS:          0 MSHR_MERGE:          0
cpu0->cpu0_ITLB PREFETCH REQUESTED:          0 ISSUED:          0 USEFUL:          0 USELESS:          0 LATE:          0
cpu0->cpu0_ITLB AVERAGE MISS LATENCY: 823 cycles
cpu0->cpu0_DTLB TOTAL        ACCESS:   49441641 HIT:   49056512 MISS:     385129 MSHR_MERGE:      55997
cpu0->cpu0_DTLB LOAD         ACCESS:   49441641 HIT:   49056512 MISS:     385129 MSHR_MERGE:      55997
cpu0->cpu0_DTLB RFO          ACCESS:          0 HIT:          0 MISS:          0 MSHR_MERGE:          0
cpu0->cpu0_DTLB PREFETCH     ACCESS:          0 HIT:          0 MISS:          0 MSHR_MERGE:          0
cpu0->cpu0_DTLB WRITE        ACCESS:          0 HIT:          0 MISS:          0 MSHR_MERGE:          0
cpu0->cpu0_DTLB TRANSLATION  ACCESS:          0 HIT:          0 MISS:          0 MSHR_MERGE:          0
cpu0->cpu0_DTLB PREFETCH REQUESTED:          0 ISSUED:          0 USEFUL:          0 USELESS:          0 LATE:          0
cpu0->cpu0_DTLB AVERAGE MISS LATENCY: 75.37 cycles
cpu0->LLC TOTAL        ACCESS:    1737171 HIT:     571441 MISS:    1165730 MSHR_MERGE:          0
cpu0->LLC LOAD         ACCESS:    1090992 HIT:      29458 MISS:    1061534 MSHR_MERGE:          0
cpu0->LLC RFO          ACCESS:          9 HIT:          0 MISS:          9 MSHR_MERGE:          0
cpu0->LLC PREFETCH     ACCESS:          0 HIT:          0 MISS:          0 MSHR_MERGE:          0
cpu0->LLC WRITE        ACCESS:     616272 HIT:     541701 MISS:      74571 MSHR_MERGE:          0
cpu0->LLC TRANSLATION  ACCESS:      29898 HIT:        282 MISS:      29616 MSHR_MERGE:          0
cpu0->LLC PREFETCH REQUESTED:          0 ISSUED:          0 USEFUL:          0 USELESS:          0 LATE:          0
cpu0->LLC AVERAGE MISS LATENCY: 231.4 cycles

DRAM Statistics

Channel 0 RQ ROW_BUFFER_HIT:       7147
  ROW_BUFFER_MISS:    1084012
  AVG DBUS CONGESTED CYCLE: 10.73
Channel 0 WQ ROW_BUFFER_HIT:     101219
  ROW_BUFFER_MISS:     514012
  FULL:          0
Channel 0 REFRESHES ISSUED:       9144

[ROI Statistics]
[System Configuration]
num_cpus 1
cpu_freq 4000
fetch_width 6
decode_width 6
dispatch_width 6
execute_width 6
lq_width 2
sq_width 2
retire_width 6
scheduler_size 128
branch_mispredict_penalty 15
rob_size 352
lq_size 128
sq_size 72
ifetch_buffer_size 64
decode_buffer_size 32
dispatch_buffer_size 32
register_file_size 288
decode_latency 1
dispatch_latency 1
schedule_latency 1
execute_latency 1
page_size 4096
block_size 64
core_0_itlb_set 16
core_0_itlb_way 4
core_0_itlb_rq_size 16
core_0_itlb_wq_size 16
core_0_itlb_pq_size 0
core_0_itlb_mshr_size 8
core_0_itlb_hit_latency 1
core_0_itlb_fill_latency 1
core_0_itlb_max_tag_check 2
core_0_itlb_max_fill 2
core_0_dtlb_set 16
core_0_dtlb_way 4
core_0_dtlb_rq_size 16
core_0_dtlb_wq_size 16
core_0_dtlb_pq_size 0
core_0_dtlb_mshr_size 8
core_0_dtlb_hit_latency 1
core_0_dtlb_fill_latency 1
core_0_dtlb_max_tag_check 2
core_0_dtlb_max_fill 2
core_0_stlb_set 128
core_0_stlb_way 12
core_0_stlb_rq_size 32
core_0_stlb_wq_size 32
core_0_stlb_pq_size 0
core_0_stlb_mshr_size 16
core_0_stlb_hit_latency 4
core_0_stlb_fill_latency 4
core_0_stlb_max_tag_check 1
core_0_stlb_max_fill 1
core_0_l1i_set 64
core_0_l1i_way 8
core_0_l1i_rq_size 64
core_0_l1i_wq_size 64
core_0_l1i_pq_size 32
core_0_l1i_mshr_size 8
core_0_l1i_hit_latency 2
core_0_l1i_fill_latency 2
core_0_l1i_max_tag_check 2
core_0_l1i_max_fill 2
core_0_l1d_set 64
core_0_l1d_way 12
core_0_l1d_rq_size 64
core_0_l1d_wq_size 64
core_0_l1d_pq_size 8
core_0_l1d_mshr_size 16
core_0_l1d_hit_latency 2
core_0_l1d_fill_latency 3
core_0_l1d_max_tag_check 2
core_0_l1d_max_fill 2
core_0_l2c_set 1024
core_0_l2c_way 8
core_0_l2c_rq_size 32
core_0_l2c_wq_size 32
core_0_l2c_pq_size 16
core_0_l2c_mshr_size 32
core_0_l2c_hit_latency 5
core_0_l2c_fill_latency 5
core_0_l2c_max_tag_check 1
core_0_l2c_max_fill 1
llc_set 2048
llc_way 16
llc_rq_size 32
llc_wq_size 32
llc_pq_size 32
llc_mshr_size 64
llc_hit_latency 10
llc_fill_latency 10
llc_max_tag_check 1
llc_max_fill 1
dram_channels 1
dram_ranks 1
dram_bankgroups 8
dram_banks 4
dram_rows 65536
dram_columns 1024
dram_channel_width 8
dram_rq_size 64
dram_wq_size 64
dram_size 17179869184
core_0_itlb_prefetcher no
core_0_dtlb_prefetcher no
core_0_stlb_prefetcher no
core_0_l1i_prefetcher no
core_0_l1d_prefetcher no
core_0_l2c_prefetcher no
llc_prefetcher no
llc_replacement drrip

Core_0_instructions 100000005
Core_0_cycles 109727165
Core_0_IPC 0.911351
Core_0_branch_prediction_accuracy 99.9487
Core_0_branch_MPKI 0.00296
Core_0_average_ROB_occupancy_at_mispredict 316.223

Core_0_ITLB_total_access 24753828
Core_0_ITLB_total_hit 24753822
Core_0_ITLB_total_miss 6
Core_0_ITLB_total_MPKI 6e-05
Core_0_ITLB_total_miss_rate 2.42387e-07
Core_0_ITLB_demand_access 24753828
Core_0_ITLB_demand_hit 24753822
Core_0_ITLB_demand_miss 6
Core_0_ITLB_demand_MPKI 6e-05
Core_0_ITLB_demand_miss_rate 2.42387e-07
Core_0_ITLB_load_access 24753828
Core_0_ITLB_load_hit 24753822
Core_0_ITLB_load_miss 6
Core_0_ITLB_load_MPKI 6e-05
Core_0_ITLB_load_miss_rate 2.42387e-07
Core_0_ITLB_rfo_access 0
Core_0_ITLB_rfo_hit 0
Core_0_ITLB_rfo_miss 0
Core_0_ITLB_rfo_MPKI 0
Core_0_ITLB_rfo_miss_rate 0
Core_0_ITLB_prefetch_access 0
Core_0_ITLB_prefetch_hit 0
Core_0_ITLB_prefetch_miss 0
Core_0_ITLB_prefetch_MPKI 0
Core_0_ITLB_prefetch_miss_rate 0
Core_0_ITLB_writeback_access 0
Core_0_ITLB_writeback_hit 0
Core_0_ITLB_writeback_miss 0
Core_0_ITLB_writeback_MPKI 0
Core_0_ITLB_writeback_miss_rate 0
Core_0_ITLB_prefetch_requested 0
Core_0_ITLB_prefetch_issued 0
Core_0_ITLB_prefetch_useful 0
Core_0_ITLB_prefetch_useless 0
Core_0_ITLB_prefetch_late 0
Core_0_ITLB_prefetch_accuracy 0
Core_0_ITLB_prefetch_coverage 0

Core_0_DTLB_total_access 49441641
Core_0_DTLB_total_hit 49056512
Core_0_DTLB_total_miss 385129
Core_0_DTLB_total_MPKI 3.85129
Core_0_DTLB_total_miss_rate 0.00778957
Core_0_DTLB_demand_access 49441641
Core_0_DTLB_demand_hit 49056512
Core_0_DTLB_demand_miss 385129
Core_0_DTLB_demand_MPKI 3.85129
Core_0_DTLB_demand_miss_rate 0.00778957
Core_0_DTLB_load_access 49441641
Core_0_DTLB_load_hit 49056512
Core_0_DTLB_load_miss 385129
Core_0_DTLB_load_MPKI 3.85129
Core_0_DTLB_load_miss_rate 0.00778957
Core_0_DTLB_rfo_access 0
Core_0_DTLB_rfo_hit 0
Core_0_DTLB_rfo_miss 0
Core_0_DTLB_rfo_MPKI 0
Core_0_DTLB_rfo_miss_rate 0
Core_0_DTLB_prefetch_access 0
Core_0_DTLB_prefetch_hit 0
Core_0_DTLB_prefetch_miss 0
Core_0_DTLB_prefetch_MPKI 0
Core_0_DTLB_prefetch_miss_rate 0
Core_0_DTLB_writeback_access 0
Core_0_DTLB_writeback_hit 0
Core_0_DTLB_writeback_miss 0
Core_0_DTLB_writeback_MPKI 0
Core_0_DTLB_writeback_miss_rate 0
Core_0_DTLB_prefetch_requested 0
Core_0_DTLB_prefetch_issued 0
Core_0_DTLB_prefetch_useful 0
Core_0_DTLB_prefetch_useless 0
Core_0_DTLB_prefetch_late 0
Core_0_DTLB_prefetch_accuracy 0
Core_0_DTLB_prefetch_coverage 0

Core_0_STLB_total_access 329133
Core_0_STLB_total_hit 102896
Core_0_STLB_total_miss 226237
Core_0_STLB_total_MPKI 2.26237
Core_0_STLB_total_miss_rate 0.687373
Core_0_STLB_demand_access 329133
Core_0_STLB_demand_hit 102896
Core_0_STLB_demand_miss 226237
Core_0_STLB_demand_MPKI 2.26237
Core_0_STLB_demand_miss_rate 0.687373
Core_0_STLB_load_access 329133
Core_0_STLB_load_hit 102896
Core_0_STLB_load_miss 226237
Core_0_STLB_load_MPKI 2.26237
Core_0_STLB_load_miss_rate 0.687373
Core_0_STLB_rfo_access 0
Core_0_STLB_rfo_hit 0
Core_0_STLB_rfo_miss 0
Core_0_STLB_rfo_MPKI 0
Core_0_STLB_rfo_miss_rate 0
Core_0_STLB_prefetch_access 0
Core_0_STLB_prefetch_hit 0
Core_0_STLB_prefetch_miss 0
Core_0_STLB_prefetch_MPKI 0
Core_0_STLB_prefetch_miss_rate 0
Core_0_STLB_writeback_access 0
Core_0_STLB_writeback_hit 0
Core_0_STLB_writeback_miss 0
Core_0_STLB_writeback_MPKI 0
Core_0_STLB_writeback_miss_rate 0
Core_0_STLB_prefetch_requested 0
Core_0_STLB_prefetch_issued 0
Core_0_STLB_prefetch_useful 0
Core_0_STLB_prefetch_useless 0
Core_0_STLB_prefetch_late 0
Core_0_STLB_prefetch_accuracy 0
Core_0_STLB_prefetch_coverage 0

Core_0_L1I_total_access 28518176
Core_0_L1I_total_hit 28518023
Core_0_L1I_total_miss 153
Core_0_L1I_total_MPKI 0.00153
Core_0_L1I_total_miss_rate 5.365e-06
Core_0_L1I_demand_access 28518176
Core_0_L1I_demand_hit 28518023
Core_0_L1I_demand_miss 153
Core_0_L1I_demand_MPKI 0.00153
Core_0_L1I_demand_miss_rate 5.365e-06
Core_0_L1I_load_access 28518176
Core_0_L1I_load_hit 28518023
Core_0_L1I_load_miss 153
Core_0_L1I_load_MPKI 0.00153
Core_0_L1I_load_miss_rate 5.365e-06
Core_0_L1I_rfo_access 0
Core_0_L1I_rfo_hit 0
Core_0_L1I_rfo_miss 0
Core_0_L1I_rfo_MPKI 0
Core_0_L1I_rfo_miss_rate 0
Core_0_L1I_prefetch_access 0
Core_0_L1I_prefetch_hit 0
Core_0_L1I_prefetch_miss 0
Core_0_L1I_prefetch_MPKI 0
Core_0_L1I_prefetch_miss_rate 0
Core_0_L1I_writeback_access 0
Core_0_L1I_writeback_hit 0
Core_0_L1I_writeback_miss 0
Core_0_L1I_writeback_MPKI 0
Core_0_L1I_writeback_miss_rate 0
Core_0_L1I_prefetch_requested 0
Core_0_L1I_prefetch_issued 0
Core_0_L1I_prefetch_useful 0
Core_0_L1I_prefetch_useless 0
Core_0_L1I_prefetch_late 0
Core_0_L1I_prefetch_accuracy 0
Core_0_L1I_prefetch_coverage 0

Core_0_L1D_total_access 50914720
Core_0_L1D_total_hit 49354116
Core_0_L1D_total_miss 1560604
Core_0_L1D_total_MPKI 15.606
Core_0_L1D_total_miss_rate 0.0306513
Core_0_L1D_demand_access 43580539
Core_0_L1D_demand_hit 42029041
Core_0_L1D_demand_miss 1551498
Core_0_L1D_demand_MPKI 15.515
Core_0_L1D_demand_miss_rate 0.0356007
Core_0_L1D_load_access 43580539
Core_0_L1D_load_hit 42029041
Core_0_L1D_load_miss 1551498
Core_0_L1D_load_MPKI 15.515
Core_0_L1D_load_miss_rate 0.0356007
Core_0_L1D_rfo_access 0
Core_0_L1D_rfo_hit 0
Core_0_L1D_rfo_miss 0
Core_0_L1D_rfo_MPKI 0
Core_0_L1D_rfo_miss_rate 0
Core_0_L1D_prefetch_access 0
Core_0_L1D_prefetch_hit 0
Core_0_L1D_prefetch_miss 0
Core_0_L1D_prefetch_MPKI 0
Core_0_L1D_prefetch_miss_rate 0
Core_0_L1D_writeback_access 7334181
Core_0_L1D_writeback_hit 7325075
Core_0_L1D_writeback_miss 9106
Core_0_L1D_writeback_MPKI 0.09106
Core_0_L1D_writeback_miss_rate 0.00124158
Core_0_L1D_prefetch_requested 0
Core_0_L1D_prefetch_issued 0
Core_0_L1D_prefetch_useful 0
Core_0_L1D_prefetch_useless 0
Core_0_L1D_prefetch_late 0
Core_0_L1D_prefetch_accuracy 0
Core_0_L1D_prefetch_coverage 0

Core_0_L2C_total_access 1955203
Core_0_L2C_total_hit 864196
Core_0_L2C_total_miss 1091007
Core_0_L2C_total_MPKI 10.9101
Core_0_L2C_total_miss_rate 0.558002
Core_0_L2C_demand_access 1336670
Core_0_L2C_demand_hit 245669
Core_0_L2C_demand_miss 1091001
Core_0_L2C_demand_MPKI 10.91
Core_0_L2C_demand_miss_rate 0.816208
Core_0_L2C_load_access 1335135
Core_0_L2C_load_hit 244143
Core_0_L2C_load_miss 1090992
Core_0_L2C_load_MPKI 10.9099
Core_0_L2C_load_miss_rate 0.81714
Core_0_L2C_rfo_access 1535
Core_0_L2C_rfo_hit 1526
Core_0_L2C_rfo_miss 9
Core_0_L2C_rfo_MPKI 9e-05
Core_0_L2C_rfo_miss_rate 0.00586319
Core_0_L2C_prefetch_access 0
Core_0_L2C_prefetch_hit 0
Core_0_L2C_prefetch_miss 0
Core_0_L2C_prefetch_MPKI 0
Core_0_L2C_prefetch_miss_rate 0
Core_0_L2C_writeback_access 618533
Core_0_L2C_writeback_hit 618527
Core_0_L2C_writeback_miss 6
Core_0_L2C_writeback_MPKI 6e-05
Core_0_L2C_writeback_miss_rate 9.70037e-06
Core_0_L2C_prefetch_requested 0
Core_0_L2C_prefetch_issued 0
Core_0_L2C_prefetch_useful 0
Core_0_L2C_prefetch_useless 0
Core_0_L2C_prefetch_late 0
Core_0_L2C_prefetch_accuracy 0
Core_0_L2C_prefetch_coverage 0

Core_0_LLC_total_access 1707273
Core_0_LLC_total_hit 571159
Core_0_LLC_total_miss 1136114
Core_0_LLC_total_MPKI 11.3611
Core_0_LLC_total_miss_rate 0.665455
Core_0_LLC_demand_access 1091001
Core_0_LLC_demand_hit 29458
Core_0_LLC_demand_miss 1061543
Core_0_LLC_demand_MPKI 10.6154
Core_0_LLC_demand_miss_rate 0.972999
Core_0_LLC_load_access 1090992
Core_0_LLC_load_hit 29458
Core_0_LLC_load_miss 1061534
Core_0_LLC_load_MPKI 10.6153
Core_0_LLC_load_miss_rate 0.972999
Core_0_LLC_rfo_access 9
Core_0_LLC_rfo_hit 0
Core_0_LLC_rfo_miss 9
Core_0_LLC_rfo_MPKI 9e-05
Core_0_LLC_rfo_miss_rate 1
Core_0_LLC_prefetch_access 0
Core_0_LLC_prefetch_hit 0
Core_0_LLC_prefetch_miss 0
Core_0_LLC_prefetch_MPKI 0
Core_0_LLC_prefetch_miss_rate 0
Core_0_LLC_writeback_access 616272
Core_0_LLC_writeback_hit 541701
Core_0_LLC_writeback_miss 74571
Core_0_LLC_writeback_MPKI 0.74571
Core_0_LLC_writeback_miss_rate 0.121003
Core_0_LLC_prefetch_requested 0
Core_0_LLC_prefetch_issued 0
Core_0_LLC_prefetch_useful 0
Core_0_LLC_prefetch_useless 0
Core_0_LLC_prefetch_late 0
Core_0_LLC_prefetch_accuracy 0
Core_0_LLC_prefetch_coverage 0

[DRAM Statistics]
Channel_0_RQ_row_buffer_hit 7147
Channel_0_RQ_row_buffer_miss 1084012
Channel_0_WQ_row_buffer_hit 101219
Channel_0_WQ_row_buffer_miss 514012
Channel_0_WQ_full 0
Channel_0_dbus_congested 3989492
DRAM_total_RQ_row_buffer_hit 7147
DRAM_total_RQ_row_buffer_miss 1084012
DRAM_total_WQ_row_buffer_hit 101219
DRAM_total_WQ_row_buffer_miss 514012
DRAM_total_WQ_full 0
DRAM_total_dbus_congested 3989492
DRAM_avg_congested_cycle 10.7275

====== DRAM_RQ_TRAFFIC ========
DRAM_RQ_READ_TRAFFIC_BREAKDOWN:
data_demand_read.count = 1061455
data_demand_read.share = 97.28%

inst_demand_read.count = 88
inst_demand_read.share = 0.01%

cache_inst_prefetch.count = 0
cache_inst_prefetch.share = 0.00%

cache_data_prefetch.count = 0
cache_data_prefetch.share = 0.00%

stlb_data_demand.count = 29614
stlb_data_demand.share = 2.71%

stlb_inst_demand.count = 2
stlb_inst_demand.share = 0.00%

stlb_l1i_pref.count = 0
stlb_l1i_pref.share = 0.00%

stlb_l1d_pref.count = 0
stlb_l1d_pref.share = 0.00%

DRAM_RQ_READ_TRAFFIC_SUMMARY:
cache_demand.count = 1061543
cache_demand.share = 97.29%

cache_prefetch.count = 0
cache_prefetch.share = 0.00%

stlb_demand.count = 29616
stlb_demand.share = 2.71%

stlb_prefetch.count = 0
stlb_prefetch.share = 0.00%

DRAM_RQ_READ_TRAFFIC_DEBUG:
total_classified_read.count = 1091159
unclassified_read.count = 0
total_read_with_other.count = 1091159

classified_plus_unclassified_check.count = 1091159
dram_rq_read_total_observed.count = 1091159
dram_rq_read_total_observed.per_1K_instructions = 10.9116

STLB_MISS_PTW_DRAM_TOUCH_BREAKDOWN:
stlb_miss_total.count = 226237

stlb_miss_touch_dram.count = 29477
stlb_miss_touch_dram.share = 13.03%

stlb_miss_no_dram_touch.count = 196760
stlb_miss_no_dram_touch.share = 86.97%

STLB_MISS_PTW_DRAM_TOUCH_DEBUG:
stlb_miss_touch_plus_no_touch.count = 226237
stlb_miss_total_check.count = 226237

======STLB miss causes ========
Core_0_STLB_miss_cause_breakdown
Core_0_STLB_cause_Demand_Data_miss 226236
Core_0_STLB_cause_Demand_Data_miss_rate 0.68737
Core_0_STLB_cause_Demand_Instruction_miss 1
Core_0_STLB_cause_Demand_Instruction_miss_rate 3.03829e-06
Core_0_STLB_cause_L1D_Prefetch_miss 0
Core_0_STLB_cause_L1D_Prefetch_miss_rate 0
Core_0_STLB_cause_L1I_Prefetch_miss 0
Core_0_STLB_cause_L1I_Prefetch_miss_rate 0
Core_0_STLB_cause_Other_miss 0
Core_0_STLB_cause_Other_miss_rate 0
Core_0_STLB_Demand_miss 226237
Core_0_STLB_Demand_miss_rate 0.687373
Core_0_STLB_L1D_Prefetch_miss 0
Core_0_STLB_L1D_Prefetch_miss_rate 0
Core_0_STLB_Other_miss 0
Core_0_STLB_Other_miss_rate 0
