[VMEM] WARNING: physical memory size is smaller than virtual memory size.

*** ChampSim Multicore Out-of-Order Simulator ***
Warmup Instructions: 50000000
Simulation Instructions: 100000000
Number of CPUs: 1
Page size: 4096
Core 0: /data0/tzh/champsim_traces/SPEC06/482.sphinx3-1100B.champsimtrace.xz
Off-chip DRAM Size: 16 GiB Channels: 1 Width: 64-bit Data Rate: 3205 MT/s
Warmup halting CPU 0 at instruction 50000003 cycle 10540051 for remainder of phase
Warmup finished CPU 0 instructions: 50000003 cycles: 10540051 cumulative IPC: 4.744 (Simulation time: 00 hr 02 min 02 sec)
Warmup complete CPU 0 instructions: 50000003 cycles: 10540051 cumulative IPC: 4.744 (Simulation time: 00 hr 02 min 02 sec)
Simulation finished CPU 0 instructions: 100000000 cycles: 92983043 cumulative IPC: 1.075 (Simulation time: 00 hr 13 min 13 sec)
Simulation complete CPU 0 instructions: 100000000 cycles: 92983043 cumulative IPC: 1.075 (Simulation time: 00 hr 13 min 13 sec)

ChampSim completed all CPUs

=== Simulation ===
CPU 0 runs /data0/tzh/champsim_traces/SPEC06/482.sphinx3-1100B.champsimtrace.xz

Region of Interest Statistics

CPU 0 cumulative IPC: 1.075 instructions: 100000000 cycles: 92983043
CPU 0 Branch Prediction Accuracy: 98.81% MPKI: 1.079 Average ROB Occupancy at Mispredict: 193.5
Branch type MPKI
BRANCH_DIRECT_JUMP: 0.00074
BRANCH_INDIRECT: 0.00108
BRANCH_CONDITIONAL: 1.074
BRANCH_DIRECT_CALL: 0.00123
BRANCH_INDIRECT_CALL: 0.00075
BRANCH_RETURN: 0.00173

cpu0->cpu0_STLB TOTAL        ACCESS:     102847 HIT:      66192 MISS:      36655 MSHR_MERGE:          0
cpu0->cpu0_STLB LOAD         ACCESS:     102847 HIT:      66192 MISS:      36655 MSHR_MERGE:          0
cpu0->cpu0_STLB RFO          ACCESS:          0 HIT:          0 MISS:          0 MSHR_MERGE:          0
cpu0->cpu0_STLB PREFETCH     ACCESS:          0 HIT:          0 MISS:          0 MSHR_MERGE:          0
cpu0->cpu0_STLB WRITE        ACCESS:          0 HIT:          0 MISS:          0 MSHR_MERGE:          0
cpu0->cpu0_STLB TRANSLATION  ACCESS:          0 HIT:          0 MISS:          0 MSHR_MERGE:          0
cpu0->cpu0_STLB PREFETCH REQUESTED:          0 ISSUED:          0 USEFUL:          0 USELESS:          0 LATE:          0
cpu0->cpu0_STLB AVERAGE MISS LATENCY: 51.46 cycles
cpu0->cpu0_L2C TOTAL        ACCESS:    1566193 HIT:     332419 MISS:    1233774 MSHR_MERGE:          0
cpu0->cpu0_L2C LOAD         ACCESS:    1349301 HIT:     203788 MISS:    1145513 MSHR_MERGE:          0
cpu0->cpu0_L2C RFO          ACCESS:      87766 HIT:       8372 MISS:      79394 MSHR_MERGE:          0
cpu0->cpu0_L2C PREFETCH     ACCESS:          0 HIT:          0 MISS:          0 MSHR_MERGE:          0
cpu0->cpu0_L2C WRITE        ACCESS:     116884 HIT:     116671 MISS:        213 MSHR_MERGE:          0
cpu0->cpu0_L2C TRANSLATION  ACCESS:      12242 HIT:       3588 MISS:       8654 MSHR_MERGE:          0
cpu0->cpu0_L2C PREFETCH REQUESTED:          0 ISSUED:          0 USEFUL:          0 USELESS:          0 LATE:          0
cpu0->cpu0_L2C AVERAGE MISS LATENCY: 135.9 cycles
cpu0->cpu0_L1I TOTAL        ACCESS:   13362893 HIT:   13361737 MISS:       1156 MSHR_MERGE:        421
cpu0->cpu0_L1I LOAD         ACCESS:   13362893 HIT:   13361737 MISS:       1156 MSHR_MERGE:        421
cpu0->cpu0_L1I RFO          ACCESS:          0 HIT:          0 MISS:          0 MSHR_MERGE:          0
cpu0->cpu0_L1I PREFETCH     ACCESS:          0 HIT:          0 MISS:          0 MSHR_MERGE:          0
cpu0->cpu0_L1I WRITE        ACCESS:          0 HIT:          0 MISS:          0 MSHR_MERGE:          0
cpu0->cpu0_L1I TRANSLATION  ACCESS:          0 HIT:          0 MISS:          0 MSHR_MERGE:          0
cpu0->cpu0_L1I PREFETCH REQUESTED:          0 ISSUED:          0 USEFUL:          0 USELESS:          0 LATE:          0
cpu0->cpu0_L1I AVERAGE MISS LATENCY: 215.6 cycles
cpu0->cpu0_L1D TOTAL        ACCESS:   19683113 HIT:   13360221 MISS:    6322892 MSHR_MERGE:    4874317
cpu0->cpu0_L1D LOAD         ACCESS:   17650291 HIT:   11866543 MISS:    5783748 MSHR_MERGE:    4435182
cpu0->cpu0_L1D RFO          ACCESS:          0 HIT:          0 MISS:          0 MSHR_MERGE:          0
cpu0->cpu0_L1D PREFETCH     ACCESS:          0 HIT:          0 MISS:          0 MSHR_MERGE:          0
cpu0->cpu0_L1D WRITE        ACCESS:    1959601 HIT:    1432736 MISS:     526865 MSHR_MERGE:     439098
cpu0->cpu0_L1D TRANSLATION  ACCESS:      73221 HIT:      60942 MISS:      12279 MSHR_MERGE:         37
cpu0->cpu0_L1D PREFETCH REQUESTED:          0 ISSUED:          0 USEFUL:          0 USELESS:          0 LATE:          0
cpu0->cpu0_L1D AVERAGE MISS LATENCY: 124.5 cycles
cpu0->cpu0_ITLB TOTAL        ACCESS:    9731366 HIT:    9731321 MISS:         45 MSHR_MERGE:         16
cpu0->cpu0_ITLB LOAD         ACCESS:    9731366 HIT:    9731321 MISS:         45 MSHR_MERGE:         16
cpu0->cpu0_ITLB RFO          ACCESS:          0 HIT:          0 MISS:          0 MSHR_MERGE:          0
cpu0->cpu0_ITLB PREFETCH     ACCESS:          0 HIT:          0 MISS:          0 MSHR_MERGE:          0
cpu0->cpu0_ITLB WRITE        ACCESS:          0 HIT:          0 MISS:          0 MSHR_MERGE:          0
cpu0->cpu0_ITLB TRANSLATION  ACCESS:          0 HIT:          0 MISS:          0 MSHR_MERGE:          0
cpu0->cpu0_ITLB PREFETCH REQUESTED:          0 ISSUED:          0 USEFUL:          0 USELESS:          0 LATE:          0
cpu0->cpu0_ITLB AVERAGE MISS LATENCY: 256.6 cycles
cpu0->cpu0_DTLB TOTAL        ACCESS:   19438790 HIT:   19148444 MISS:     290346 MSHR_MERGE:     187528
cpu0->cpu0_DTLB LOAD         ACCESS:   19438790 HIT:   19148444 MISS:     290346 MSHR_MERGE:     187528
cpu0->cpu0_DTLB RFO          ACCESS:          0 HIT:          0 MISS:          0 MSHR_MERGE:          0
cpu0->cpu0_DTLB PREFETCH     ACCESS:          0 HIT:          0 MISS:          0 MSHR_MERGE:          0
cpu0->cpu0_DTLB WRITE        ACCESS:          0 HIT:          0 MISS:          0 MSHR_MERGE:          0
cpu0->cpu0_DTLB TRANSLATION  ACCESS:          0 HIT:          0 MISS:          0 MSHR_MERGE:          0
cpu0->cpu0_DTLB PREFETCH REQUESTED:          0 ISSUED:          0 USEFUL:          0 USELESS:          0 LATE:          0
cpu0->cpu0_DTLB AVERAGE MISS LATENCY: 23.63 cycles
cpu0->LLC TOTAL        ACCESS:    1338643 HIT:     567078 MISS:     771565 MSHR_MERGE:          0
cpu0->LLC LOAD         ACCESS:    1145513 HIT:     430529 MISS:     714984 MSHR_MERGE:          0
cpu0->LLC RFO          ACCESS:      79394 HIT:      51079 MISS:      28315 MSHR_MERGE:          0
cpu0->LLC PREFETCH     ACCESS:          0 HIT:          0 MISS:          0 MSHR_MERGE:          0
cpu0->LLC WRITE        ACCESS:     105082 HIT:      82467 MISS:      22615 MSHR_MERGE:          0
cpu0->LLC TRANSLATION  ACCESS:       8654 HIT:       3003 MISS:       5651 MSHR_MERGE:          0
cpu0->LLC PREFETCH REQUESTED:          0 ISSUED:          0 USEFUL:          0 USELESS:          0 LATE:          0
cpu0->LLC AVERAGE MISS LATENCY: 192.6 cycles

DRAM Statistics

Channel 0 RQ ROW_BUFFER_HIT:      19679
  ROW_BUFFER_MISS:     728913
  AVG DBUS CONGESTED CYCLE: 14.9
Channel 0 WQ ROW_BUFFER_HIT:      13007
  ROW_BUFFER_MISS:      24961
  FULL:         27
Channel 0 REFRESHES ISSUED:       7748

[ROI Statistics]
[System Configuration]
num_cpus 1
cpu_freq 4000
fetch_width 6
decode_width 6
dispatch_width 6
execute_width 6
lq_width 2
sq_width 2
retire_width 6
scheduler_size 128
branch_mispredict_penalty 15
rob_size 352
lq_size 128
sq_size 72
ifetch_buffer_size 64
decode_buffer_size 32
dispatch_buffer_size 32
register_file_size 288
decode_latency 1
dispatch_latency 1
schedule_latency 1
execute_latency 1
page_size 4096
block_size 64
core_0_itlb_set 16
core_0_itlb_way 4
core_0_itlb_rq_size 16
core_0_itlb_wq_size 16
core_0_itlb_pq_size 0
core_0_itlb_mshr_size 8
core_0_itlb_hit_latency 1
core_0_itlb_fill_latency 1
core_0_itlb_max_tag_check 2
core_0_itlb_max_fill 2
core_0_dtlb_set 16
core_0_dtlb_way 4
core_0_dtlb_rq_size 16
core_0_dtlb_wq_size 16
core_0_dtlb_pq_size 0
core_0_dtlb_mshr_size 8
core_0_dtlb_hit_latency 1
core_0_dtlb_fill_latency 1
core_0_dtlb_max_tag_check 2
core_0_dtlb_max_fill 2
core_0_stlb_set 128
core_0_stlb_way 12
core_0_stlb_rq_size 32
core_0_stlb_wq_size 32
core_0_stlb_pq_size 0
core_0_stlb_mshr_size 16
core_0_stlb_hit_latency 4
core_0_stlb_fill_latency 4
core_0_stlb_max_tag_check 1
core_0_stlb_max_fill 1
core_0_l1i_set 64
core_0_l1i_way 8
core_0_l1i_rq_size 64
core_0_l1i_wq_size 64
core_0_l1i_pq_size 32
core_0_l1i_mshr_size 8
core_0_l1i_hit_latency 2
core_0_l1i_fill_latency 2
core_0_l1i_max_tag_check 2
core_0_l1i_max_fill 2
core_0_l1d_set 64
core_0_l1d_way 12
core_0_l1d_rq_size 64
core_0_l1d_wq_size 64
core_0_l1d_pq_size 8
core_0_l1d_mshr_size 16
core_0_l1d_hit_latency 2
core_0_l1d_fill_latency 3
core_0_l1d_max_tag_check 2
core_0_l1d_max_fill 2
core_0_l2c_set 1024
core_0_l2c_way 8
core_0_l2c_rq_size 32
core_0_l2c_wq_size 32
core_0_l2c_pq_size 16
core_0_l2c_mshr_size 32
core_0_l2c_hit_latency 5
core_0_l2c_fill_latency 5
core_0_l2c_max_tag_check 1
core_0_l2c_max_fill 1
llc_set 2048
llc_way 16
llc_rq_size 32
llc_wq_size 32
llc_pq_size 32
llc_mshr_size 64
llc_hit_latency 10
llc_fill_latency 10
llc_max_tag_check 1
llc_max_fill 1
dram_channels 1
dram_ranks 1
dram_bankgroups 8
dram_banks 4
dram_rows 65536
dram_columns 1024
dram_channel_width 8
dram_rq_size 64
dram_wq_size 64
dram_size 17179869184
core_0_itlb_prefetcher no
core_0_dtlb_prefetcher no
core_0_stlb_prefetcher no
core_0_l1i_prefetcher no
core_0_l1d_prefetcher no
core_0_l2c_prefetcher no
llc_prefetcher no
llc_replacement drrip

Core_0_instructions 100000000
Core_0_cycles 92983043
Core_0_IPC 1.07546
Core_0_branch_prediction_accuracy 98.811
Core_0_branch_MPKI 1.07939
Core_0_average_ROB_occupancy_at_mispredict 193.523

Core_0_ITLB_total_access 9731366
Core_0_ITLB_total_hit 9731321
Core_0_ITLB_total_miss 45
Core_0_ITLB_total_MPKI 0.00045
Core_0_ITLB_total_miss_rate 4.62422e-06
Core_0_ITLB_demand_access 9731366
Core_0_ITLB_demand_hit 9731321
Core_0_ITLB_demand_miss 45
Core_0_ITLB_demand_MPKI 0.00045
Core_0_ITLB_demand_miss_rate 4.62422e-06
Core_0_ITLB_load_access 9731366
Core_0_ITLB_load_hit 9731321
Core_0_ITLB_load_miss 45
Core_0_ITLB_load_MPKI 0.00045
Core_0_ITLB_load_miss_rate 4.62422e-06
Core_0_ITLB_rfo_access 0
Core_0_ITLB_rfo_hit 0
Core_0_ITLB_rfo_miss 0
Core_0_ITLB_rfo_MPKI 0
Core_0_ITLB_rfo_miss_rate 0
Core_0_ITLB_prefetch_access 0
Core_0_ITLB_prefetch_hit 0
Core_0_ITLB_prefetch_miss 0
Core_0_ITLB_prefetch_MPKI 0
Core_0_ITLB_prefetch_miss_rate 0
Core_0_ITLB_writeback_access 0
Core_0_ITLB_writeback_hit 0
Core_0_ITLB_writeback_miss 0
Core_0_ITLB_writeback_MPKI 0
Core_0_ITLB_writeback_miss_rate 0
Core_0_ITLB_prefetch_requested 0
Core_0_ITLB_prefetch_issued 0
Core_0_ITLB_prefetch_useful 0
Core_0_ITLB_prefetch_useless 0
Core_0_ITLB_prefetch_late 0
Core_0_ITLB_prefetch_accuracy 0
Core_0_ITLB_prefetch_coverage 0

Core_0_DTLB_total_access 19438790
Core_0_DTLB_total_hit 19148444
Core_0_DTLB_total_miss 290346
Core_0_DTLB_total_MPKI 2.90346
Core_0_DTLB_total_miss_rate 0.0149364
Core_0_DTLB_demand_access 19438790
Core_0_DTLB_demand_hit 19148444
Core_0_DTLB_demand_miss 290346
Core_0_DTLB_demand_MPKI 2.90346
Core_0_DTLB_demand_miss_rate 0.0149364
Core_0_DTLB_load_access 19438790
Core_0_DTLB_load_hit 19148444
Core_0_DTLB_load_miss 290346
Core_0_DTLB_load_MPKI 2.90346
Core_0_DTLB_load_miss_rate 0.0149364
Core_0_DTLB_rfo_access 0
Core_0_DTLB_rfo_hit 0
Core_0_DTLB_rfo_miss 0
Core_0_DTLB_rfo_MPKI 0
Core_0_DTLB_rfo_miss_rate 0
Core_0_DTLB_prefetch_access 0
Core_0_DTLB_prefetch_hit 0
Core_0_DTLB_prefetch_miss 0
Core_0_DTLB_prefetch_MPKI 0
Core_0_DTLB_prefetch_miss_rate 0
Core_0_DTLB_writeback_access 0
Core_0_DTLB_writeback_hit 0
Core_0_DTLB_writeback_miss 0
Core_0_DTLB_writeback_MPKI 0
Core_0_DTLB_writeback_miss_rate 0
Core_0_DTLB_prefetch_requested 0
Core_0_DTLB_prefetch_issued 0
Core_0_DTLB_prefetch_useful 0
Core_0_DTLB_prefetch_useless 0
Core_0_DTLB_prefetch_late 0
Core_0_DTLB_prefetch_accuracy 0
Core_0_DTLB_prefetch_coverage 0

Core_0_STLB_total_access 102847
Core_0_STLB_total_hit 66192
Core_0_STLB_total_miss 36655
Core_0_STLB_total_MPKI 0.36655
Core_0_STLB_total_miss_rate 0.356403
Core_0_STLB_demand_access 102847
Core_0_STLB_demand_hit 66192
Core_0_STLB_demand_miss 36655
Core_0_STLB_demand_MPKI 0.36655
Core_0_STLB_demand_miss_rate 0.356403
Core_0_STLB_load_access 102847
Core_0_STLB_load_hit 66192
Core_0_STLB_load_miss 36655
Core_0_STLB_load_MPKI 0.36655
Core_0_STLB_load_miss_rate 0.356403
Core_0_STLB_rfo_access 0
Core_0_STLB_rfo_hit 0
Core_0_STLB_rfo_miss 0
Core_0_STLB_rfo_MPKI 0
Core_0_STLB_rfo_miss_rate 0
Core_0_STLB_prefetch_access 0
Core_0_STLB_prefetch_hit 0
Core_0_STLB_prefetch_miss 0
Core_0_STLB_prefetch_MPKI 0
Core_0_STLB_prefetch_miss_rate 0
Core_0_STLB_writeback_access 0
Core_0_STLB_writeback_hit 0
Core_0_STLB_writeback_miss 0
Core_0_STLB_writeback_MPKI 0
Core_0_STLB_writeback_miss_rate 0
Core_0_STLB_prefetch_requested 0
Core_0_STLB_prefetch_issued 0
Core_0_STLB_prefetch_useful 0
Core_0_STLB_prefetch_useless 0
Core_0_STLB_prefetch_late 0
Core_0_STLB_prefetch_accuracy 0
Core_0_STLB_prefetch_coverage 0

Core_0_L1I_total_access 13362893
Core_0_L1I_total_hit 13361737
Core_0_L1I_total_miss 1156
Core_0_L1I_total_MPKI 0.01156
Core_0_L1I_total_miss_rate 8.65082e-05
Core_0_L1I_demand_access 13362893
Core_0_L1I_demand_hit 13361737
Core_0_L1I_demand_miss 1156
Core_0_L1I_demand_MPKI 0.01156
Core_0_L1I_demand_miss_rate 8.65082e-05
Core_0_L1I_load_access 13362893
Core_0_L1I_load_hit 13361737
Core_0_L1I_load_miss 1156
Core_0_L1I_load_MPKI 0.01156
Core_0_L1I_load_miss_rate 8.65082e-05
Core_0_L1I_rfo_access 0
Core_0_L1I_rfo_hit 0
Core_0_L1I_rfo_miss 0
Core_0_L1I_rfo_MPKI 0
Core_0_L1I_rfo_miss_rate 0
Core_0_L1I_prefetch_access 0
Core_0_L1I_prefetch_hit 0
Core_0_L1I_prefetch_miss 0
Core_0_L1I_prefetch_MPKI 0
Core_0_L1I_prefetch_miss_rate 0
Core_0_L1I_writeback_access 0
Core_0_L1I_writeback_hit 0
Core_0_L1I_writeback_miss 0
Core_0_L1I_writeback_MPKI 0
Core_0_L1I_writeback_miss_rate 0
Core_0_L1I_prefetch_requested 0
Core_0_L1I_prefetch_issued 0
Core_0_L1I_prefetch_useful 0
Core_0_L1I_prefetch_useless 0
Core_0_L1I_prefetch_late 0
Core_0_L1I_prefetch_accuracy 0
Core_0_L1I_prefetch_coverage 0

Core_0_L1D_total_access 19609892
Core_0_L1D_total_hit 13299279
Core_0_L1D_total_miss 6310613
Core_0_L1D_total_MPKI 63.1061
Core_0_L1D_total_miss_rate 0.321808
Core_0_L1D_demand_access 17650291
Core_0_L1D_demand_hit 11866543
Core_0_L1D_demand_miss 5783748
Core_0_L1D_demand_MPKI 57.8375
Core_0_L1D_demand_miss_rate 0.327686
Core_0_L1D_load_access 17650291
Core_0_L1D_load_hit 11866543
Core_0_L1D_load_miss 5783748
Core_0_L1D_load_MPKI 57.8375
Core_0_L1D_load_miss_rate 0.327686
Core_0_L1D_rfo_access 0
Core_0_L1D_rfo_hit 0
Core_0_L1D_rfo_miss 0
Core_0_L1D_rfo_MPKI 0
Core_0_L1D_rfo_miss_rate 0
Core_0_L1D_prefetch_access 0
Core_0_L1D_prefetch_hit 0
Core_0_L1D_prefetch_miss 0
Core_0_L1D_prefetch_MPKI 0
Core_0_L1D_prefetch_miss_rate 0
Core_0_L1D_writeback_access 1959601
Core_0_L1D_writeback_hit 1432736
Core_0_L1D_writeback_miss 526865
Core_0_L1D_writeback_MPKI 5.26865
Core_0_L1D_writeback_miss_rate 0.268863
Core_0_L1D_prefetch_requested 0
Core_0_L1D_prefetch_issued 0
Core_0_L1D_prefetch_useful 0
Core_0_L1D_prefetch_useless 0
Core_0_L1D_prefetch_late 0
Core_0_L1D_prefetch_accuracy 0
Core_0_L1D_prefetch_coverage 0

Core_0_L2C_total_access 1553951
Core_0_L2C_total_hit 328831
Core_0_L2C_total_miss 1225120
Core_0_L2C_total_MPKI 12.2512
Core_0_L2C_total_miss_rate 0.78839
Core_0_L2C_demand_access 1437067
Core_0_L2C_demand_hit 212160
Core_0_L2C_demand_miss 1224907
Core_0_L2C_demand_MPKI 12.2491
Core_0_L2C_demand_miss_rate 0.852366
Core_0_L2C_load_access 1349301
Core_0_L2C_load_hit 203788
Core_0_L2C_load_miss 1145513
Core_0_L2C_load_MPKI 11.4551
Core_0_L2C_load_miss_rate 0.848968
Core_0_L2C_rfo_access 87766
Core_0_L2C_rfo_hit 8372
Core_0_L2C_rfo_miss 79394
Core_0_L2C_rfo_MPKI 0.79394
Core_0_L2C_rfo_miss_rate 0.90461
Core_0_L2C_prefetch_access 0
Core_0_L2C_prefetch_hit 0
Core_0_L2C_prefetch_miss 0
Core_0_L2C_prefetch_MPKI 0
Core_0_L2C_prefetch_miss_rate 0
Core_0_L2C_writeback_access 116884
Core_0_L2C_writeback_hit 116671
Core_0_L2C_writeback_miss 213
Core_0_L2C_writeback_MPKI 0.00213
Core_0_L2C_writeback_miss_rate 0.00182232
Core_0_L2C_prefetch_requested 0
Core_0_L2C_prefetch_issued 0
Core_0_L2C_prefetch_useful 0
Core_0_L2C_prefetch_useless 0
Core_0_L2C_prefetch_late 0
Core_0_L2C_prefetch_accuracy 0
Core_0_L2C_prefetch_coverage 0

Core_0_LLC_total_access 1329989
Core_0_LLC_total_hit 564075
Core_0_LLC_total_miss 765914
Core_0_LLC_total_MPKI 7.65914
Core_0_LLC_total_miss_rate 0.57588
Core_0_LLC_demand_access 1224907
Core_0_LLC_demand_hit 481608
Core_0_LLC_demand_miss 743299
Core_0_LLC_demand_MPKI 7.43299
Core_0_LLC_demand_miss_rate 0.606821
Core_0_LLC_load_access 1145513
Core_0_LLC_load_hit 430529
Core_0_LLC_load_miss 714984
Core_0_LLC_load_MPKI 7.14984
Core_0_LLC_load_miss_rate 0.624161
Core_0_LLC_rfo_access 79394
Core_0_LLC_rfo_hit 51079
Core_0_LLC_rfo_miss 28315
Core_0_LLC_rfo_MPKI 0.28315
Core_0_LLC_rfo_miss_rate 0.356639
Core_0_LLC_prefetch_access 0
Core_0_LLC_prefetch_hit 0
Core_0_LLC_prefetch_miss 0
Core_0_LLC_prefetch_MPKI 0
Core_0_LLC_prefetch_miss_rate 0
Core_0_LLC_writeback_access 105082
Core_0_LLC_writeback_hit 82467
Core_0_LLC_writeback_miss 22615
Core_0_LLC_writeback_MPKI 0.22615
Core_0_LLC_writeback_miss_rate 0.215213
Core_0_LLC_prefetch_requested 0
Core_0_LLC_prefetch_issued 0
Core_0_LLC_prefetch_useful 0
Core_0_LLC_prefetch_useless 0
Core_0_LLC_prefetch_late 0
Core_0_LLC_prefetch_accuracy 0
Core_0_LLC_prefetch_coverage 0

[DRAM Statistics]
Channel_0_RQ_row_buffer_hit 19679
Channel_0_RQ_row_buffer_miss 728913
Channel_0_WQ_row_buffer_hit 13007
Channel_0_WQ_row_buffer_miss 24961
Channel_0_WQ_full 27
Channel_0_dbus_congested 1407408
DRAM_total_RQ_row_buffer_hit 19679
DRAM_total_RQ_row_buffer_miss 728913
DRAM_total_WQ_row_buffer_hit 13007
DRAM_total_WQ_row_buffer_miss 24961
DRAM_total_WQ_full 27
DRAM_total_dbus_congested 1407408
DRAM_avg_congested_cycle 14.8977

====== DRAM_RQ_TRAFFIC ========
DRAM_RQ_READ_TRAFFIC_BREAKDOWN:
data_demand_read.count = 742570
data_demand_read.share = 99.15%

inst_demand_read.count = 729
inst_demand_read.share = 0.10%

cache_inst_prefetch.count = 0
cache_inst_prefetch.share = 0.00%

cache_data_prefetch.count = 0
cache_data_prefetch.share = 0.00%

stlb_data_demand.count = 5639
stlb_data_demand.share = 0.75%

stlb_inst_demand.count = 12
stlb_inst_demand.share = 0.00%

stlb_l1i_pref.count = 0
stlb_l1i_pref.share = 0.00%

stlb_l1d_pref.count = 0
stlb_l1d_pref.share = 0.00%

DRAM_RQ_READ_TRAFFIC_SUMMARY:
cache_demand.count = 743299
cache_demand.share = 99.25%

cache_prefetch.count = 0
cache_prefetch.share = 0.00%

stlb_demand.count = 5651
stlb_demand.share = 0.75%

stlb_prefetch.count = 0
stlb_prefetch.share = 0.00%

DRAM_RQ_READ_TRAFFIC_DEBUG:
total_classified_read.count = 748950
unclassified_read.count = 0
total_read_with_other.count = 748950

classified_plus_unclassified_check.count = 748950
dram_rq_read_total_observed.count = 748950
dram_rq_read_total_observed.per_1K_instructions = 7.4895

STLB_MISS_PTW_DRAM_TOUCH_BREAKDOWN:
stlb_miss_total.count = 36655

stlb_miss_touch_dram.count = 5651
stlb_miss_touch_dram.share = 15.42%

stlb_miss_no_dram_touch.count = 31004
stlb_miss_no_dram_touch.share = 84.58%

STLB_MISS_PTW_DRAM_TOUCH_DEBUG:
stlb_miss_touch_plus_no_touch.count = 36655
stlb_miss_total_check.count = 36655

======STLB miss causes ========
Core_0_STLB_miss_cause_breakdown
Core_0_STLB_cause_Demand_Data_miss 36626
Core_0_STLB_cause_Demand_Data_miss_rate 0.356121
Core_0_STLB_cause_Demand_Instruction_miss 29
Core_0_STLB_cause_Demand_Instruction_miss_rate 0.000281972
Core_0_STLB_cause_L1D_Prefetch_miss 0
Core_0_STLB_cause_L1D_Prefetch_miss_rate 0
Core_0_STLB_cause_L1I_Prefetch_miss 0
Core_0_STLB_cause_L1I_Prefetch_miss_rate 0
Core_0_STLB_cause_Other_miss 0
Core_0_STLB_cause_Other_miss_rate 0
Core_0_STLB_Demand_miss 36655
Core_0_STLB_Demand_miss_rate 0.356403
Core_0_STLB_L1D_Prefetch_miss 0
Core_0_STLB_L1D_Prefetch_miss_rate 0
Core_0_STLB_Other_miss 0
Core_0_STLB_Other_miss_rate 0
