[VMEM] WARNING: physical memory size is smaller than virtual memory size.

*** ChampSim Multicore Out-of-Order Simulator ***
Warmup Instructions: 50000000
Simulation Instructions: 100000000
Number of CPUs: 1
Page size: 4096
Core 0: /data0/tzh/champsim_traces/SPEC06/482.sphinx3-1522B.champsimtrace.xz
Off-chip DRAM Size: 16 GiB Channels: 1 Width: 64-bit Data Rate: 3205 MT/s
Warmup halting CPU 0 at instruction 50000005 cycle 10676395 for remainder of phase
Warmup finished CPU 0 instructions: 50000005 cycles: 10676395 cumulative IPC: 4.683 (Simulation time: 00 hr 02 min 03 sec)
Warmup complete CPU 0 instructions: 50000005 cycles: 10676395 cumulative IPC: 4.683 (Simulation time: 00 hr 02 min 03 sec)
Simulation finished CPU 0 instructions: 100000005 cycles: 84174249 cumulative IPC: 1.188 (Simulation time: 00 hr 12 min 14 sec)
Simulation complete CPU 0 instructions: 100000005 cycles: 84174249 cumulative IPC: 1.188 (Simulation time: 00 hr 12 min 14 sec)

ChampSim completed all CPUs

=== Simulation ===
CPU 0 runs /data0/tzh/champsim_traces/SPEC06/482.sphinx3-1522B.champsimtrace.xz

Region of Interest Statistics

CPU 0 cumulative IPC: 1.188 instructions: 100000005 cycles: 84174249
CPU 0 Branch Prediction Accuracy: 98.91% MPKI: 0.9808 Average ROB Occupancy at Mispredict: 200.4
Branch type MPKI
BRANCH_DIRECT_JUMP: 0.00014
BRANCH_INDIRECT: 0
BRANCH_CONDITIONAL: 0.9797
BRANCH_DIRECT_CALL: 3e-05
BRANCH_INDIRECT_CALL: 1e-05
BRANCH_RETURN: 0.00087

cpu0->cpu0_STLB TOTAL        ACCESS:     131675 HIT:      94126 MISS:      37549 MSHR_MERGE:          0
cpu0->cpu0_STLB LOAD         ACCESS:     131675 HIT:      94126 MISS:      37549 MSHR_MERGE:          0
cpu0->cpu0_STLB RFO          ACCESS:          0 HIT:          0 MISS:          0 MSHR_MERGE:          0
cpu0->cpu0_STLB PREFETCH     ACCESS:          0 HIT:          0 MISS:          0 MSHR_MERGE:          0
cpu0->cpu0_STLB WRITE        ACCESS:          0 HIT:          0 MISS:          0 MSHR_MERGE:          0
cpu0->cpu0_STLB TRANSLATION  ACCESS:          0 HIT:          0 MISS:          0 MSHR_MERGE:          0
cpu0->cpu0_STLB PREFETCH REQUESTED:          0 ISSUED:          0 USEFUL:          0 USELESS:          0 LATE:          0
cpu0->cpu0_STLB AVERAGE MISS LATENCY: 56.02 cycles
cpu0->cpu0_L2C TOTAL        ACCESS:    1522837 HIT:     303495 MISS:    1219342 MSHR_MERGE:          0
cpu0->cpu0_L2C LOAD         ACCESS:    1322949 HIT:     188766 MISS:    1134183 MSHR_MERGE:          0
cpu0->cpu0_L2C RFO          ACCESS:      82151 HIT:       6872 MISS:      75279 MSHR_MERGE:          0
cpu0->cpu0_L2C PREFETCH     ACCESS:          0 HIT:          0 MISS:          0 MSHR_MERGE:          0
cpu0->cpu0_L2C WRITE        ACCESS:     104930 HIT:     104613 MISS:        317 MSHR_MERGE:          0
cpu0->cpu0_L2C TRANSLATION  ACCESS:      12807 HIT:       3244 MISS:       9563 MSHR_MERGE:          0
cpu0->cpu0_L2C PREFETCH REQUESTED:          0 ISSUED:          0 USEFUL:          0 USELESS:          0 LATE:          0
cpu0->cpu0_L2C AVERAGE MISS LATENCY: 119 cycles
cpu0->cpu0_L1I TOTAL        ACCESS:   13197101 HIT:   13196721 MISS:        380 MSHR_MERGE:        210
cpu0->cpu0_L1I LOAD         ACCESS:   13197101 HIT:   13196721 MISS:        380 MSHR_MERGE:        210
cpu0->cpu0_L1I RFO          ACCESS:          0 HIT:          0 MISS:          0 MSHR_MERGE:          0
cpu0->cpu0_L1I PREFETCH     ACCESS:          0 HIT:          0 MISS:          0 MSHR_MERGE:          0
cpu0->cpu0_L1I WRITE        ACCESS:          0 HIT:          0 MISS:          0 MSHR_MERGE:          0
cpu0->cpu0_L1I TRANSLATION  ACCESS:          0 HIT:          0 MISS:          0 MSHR_MERGE:          0
cpu0->cpu0_L1I PREFETCH REQUESTED:          0 ISSUED:          0 USEFUL:          0 USELESS:          0 LATE:          0
cpu0->cpu0_L1I AVERAGE MISS LATENCY: 224.5 cycles
cpu0->cpu0_L1D TOTAL        ACCESS:   19544212 HIT:   13380716 MISS:    6163496 MSHR_MERGE:    4745754
cpu0->cpu0_L1D LOAD         ACCESS:   17536645 HIT:   11875473 MISS:    5661172 MSHR_MERGE:    4338389
cpu0->cpu0_L1D RFO          ACCESS:          0 HIT:          0 MISS:          0 MSHR_MERGE:          0
cpu0->cpu0_L1D PREFETCH     ACCESS:          0 HIT:          0 MISS:          0 MSHR_MERGE:          0
cpu0->cpu0_L1D WRITE        ACCESS:    1932632 HIT:    1443239 MISS:     489393 MSHR_MERGE:     407241
cpu0->cpu0_L1D TRANSLATION  ACCESS:      74935 HIT:      62004 MISS:      12931 MSHR_MERGE:        124
cpu0->cpu0_L1D PREFETCH REQUESTED:          0 ISSUED:          0 USEFUL:          0 USELESS:          0 LATE:          0
cpu0->cpu0_L1D AVERAGE MISS LATENCY: 111.3 cycles
cpu0->cpu0_ITLB TOTAL        ACCESS:    9712038 HIT:    9712037 MISS:          1 MSHR_MERGE:          0
cpu0->cpu0_ITLB LOAD         ACCESS:    9712038 HIT:    9712037 MISS:          1 MSHR_MERGE:          0
cpu0->cpu0_ITLB RFO          ACCESS:          0 HIT:          0 MISS:          0 MSHR_MERGE:          0
cpu0->cpu0_ITLB PREFETCH     ACCESS:          0 HIT:          0 MISS:          0 MSHR_MERGE:          0
cpu0->cpu0_ITLB WRITE        ACCESS:          0 HIT:          0 MISS:          0 MSHR_MERGE:          0
cpu0->cpu0_ITLB TRANSLATION  ACCESS:          0 HIT:          0 MISS:          0 MSHR_MERGE:          0
cpu0->cpu0_ITLB PREFETCH REQUESTED:          0 ISSUED:          0 USEFUL:          0 USELESS:          0 LATE:          0
cpu0->cpu0_ITLB AVERAGE MISS LATENCY: 444 cycles
cpu0->cpu0_DTLB TOTAL        ACCESS:   19288278 HIT:   18957108 MISS:     331170 MSHR_MERGE:     199496
cpu0->cpu0_DTLB LOAD         ACCESS:   19288278 HIT:   18957108 MISS:     331170 MSHR_MERGE:     199496
cpu0->cpu0_DTLB RFO          ACCESS:          0 HIT:          0 MISS:          0 MSHR_MERGE:          0
cpu0->cpu0_DTLB PREFETCH     ACCESS:          0 HIT:          0 MISS:          0 MSHR_MERGE:          0
cpu0->cpu0_DTLB WRITE        ACCESS:          0 HIT:          0 MISS:          0 MSHR_MERGE:          0
cpu0->cpu0_DTLB TRANSLATION  ACCESS:          0 HIT:          0 MISS:          0 MSHR_MERGE:          0
cpu0->cpu0_DTLB PREFETCH REQUESTED:          0 ISSUED:          0 USEFUL:          0 USELESS:          0 LATE:          0
cpu0->cpu0_DTLB AVERAGE MISS LATENCY: 21.26 cycles
cpu0->LLC TOTAL        ACCESS:    1315657 HIT:     649970 MISS:     665687 MSHR_MERGE:          0
cpu0->LLC LOAD         ACCESS:    1134183 HIT:     514027 MISS:     620156 MSHR_MERGE:          0
cpu0->LLC RFO          ACCESS:      75279 HIT:      52501 MISS:      22778 MSHR_MERGE:          0
cpu0->LLC PREFETCH     ACCESS:          0 HIT:          0 MISS:          0 MSHR_MERGE:          0
cpu0->LLC WRITE        ACCESS:      96632 HIT:      80762 MISS:      15870 MSHR_MERGE:          0
cpu0->LLC TRANSLATION  ACCESS:       9563 HIT:       2680 MISS:       6883 MSHR_MERGE:          0
cpu0->LLC PREFETCH REQUESTED:          0 ISSUED:          0 USEFUL:          0 USELESS:          0 LATE:          0
cpu0->LLC AVERAGE MISS LATENCY: 189.8 cycles

DRAM Statistics

Channel 0 RQ ROW_BUFFER_HIT:      18432
  ROW_BUFFER_MISS:     631047
  AVG DBUS CONGESTED CYCLE: 17.21
Channel 0 WQ ROW_BUFFER_HIT:      11552
  ROW_BUFFER_MISS:      19874
  FULL:          0
Channel 0 REFRESHES ISSUED:       7015

[ROI Statistics]
[System Configuration]
num_cpus 1
cpu_freq 4000
fetch_width 6
decode_width 6
dispatch_width 6
execute_width 6
lq_width 2
sq_width 2
retire_width 6
scheduler_size 128
branch_mispredict_penalty 15
rob_size 352
lq_size 128
sq_size 72
ifetch_buffer_size 64
decode_buffer_size 32
dispatch_buffer_size 32
register_file_size 288
decode_latency 1
dispatch_latency 1
schedule_latency 1
execute_latency 1
page_size 4096
block_size 64
core_0_itlb_set 16
core_0_itlb_way 4
core_0_itlb_rq_size 16
core_0_itlb_wq_size 16
core_0_itlb_pq_size 0
core_0_itlb_mshr_size 8
core_0_itlb_hit_latency 1
core_0_itlb_fill_latency 1
core_0_itlb_max_tag_check 2
core_0_itlb_max_fill 2
core_0_dtlb_set 16
core_0_dtlb_way 4
core_0_dtlb_rq_size 16
core_0_dtlb_wq_size 16
core_0_dtlb_pq_size 0
core_0_dtlb_mshr_size 8
core_0_dtlb_hit_latency 1
core_0_dtlb_fill_latency 1
core_0_dtlb_max_tag_check 2
core_0_dtlb_max_fill 2
core_0_stlb_set 128
core_0_stlb_way 12
core_0_stlb_rq_size 32
core_0_stlb_wq_size 32
core_0_stlb_pq_size 0
core_0_stlb_mshr_size 16
core_0_stlb_hit_latency 4
core_0_stlb_fill_latency 4
core_0_stlb_max_tag_check 1
core_0_stlb_max_fill 1
core_0_l1i_set 64
core_0_l1i_way 8
core_0_l1i_rq_size 64
core_0_l1i_wq_size 64
core_0_l1i_pq_size 32
core_0_l1i_mshr_size 8
core_0_l1i_hit_latency 2
core_0_l1i_fill_latency 2
core_0_l1i_max_tag_check 2
core_0_l1i_max_fill 2
core_0_l1d_set 64
core_0_l1d_way 12
core_0_l1d_rq_size 64
core_0_l1d_wq_size 64
core_0_l1d_pq_size 8
core_0_l1d_mshr_size 16
core_0_l1d_hit_latency 2
core_0_l1d_fill_latency 3
core_0_l1d_max_tag_check 2
core_0_l1d_max_fill 2
core_0_l2c_set 1024
core_0_l2c_way 8
core_0_l2c_rq_size 32
core_0_l2c_wq_size 32
core_0_l2c_pq_size 16
core_0_l2c_mshr_size 32
core_0_l2c_hit_latency 5
core_0_l2c_fill_latency 5
core_0_l2c_max_tag_check 1
core_0_l2c_max_fill 1
llc_set 2048
llc_way 16
llc_rq_size 32
llc_wq_size 32
llc_pq_size 32
llc_mshr_size 64
llc_hit_latency 10
llc_fill_latency 10
llc_max_tag_check 1
llc_max_fill 1
dram_channels 1
dram_ranks 1
dram_bankgroups 8
dram_banks 4
dram_rows 65536
dram_columns 1024
dram_channel_width 8
dram_rq_size 64
dram_wq_size 64
dram_size 17179869184
core_0_itlb_prefetcher no
core_0_dtlb_prefetcher no
core_0_stlb_prefetcher no
core_0_l1i_prefetcher no
core_0_l1d_prefetcher no
core_0_l2c_prefetcher no
llc_prefetcher no
llc_replacement drrip

Core_0_instructions 100000005
Core_0_cycles 84174249
Core_0_IPC 1.18801
Core_0_branch_prediction_accuracy 98.9072
Core_0_branch_MPKI 0.98079
Core_0_average_ROB_occupancy_at_mispredict 200.395

Core_0_ITLB_total_access 9712038
Core_0_ITLB_total_hit 9712037
Core_0_ITLB_total_miss 1
Core_0_ITLB_total_MPKI 1e-05
Core_0_ITLB_total_miss_rate 1.02965e-07
Core_0_ITLB_demand_access 9712038
Core_0_ITLB_demand_hit 9712037
Core_0_ITLB_demand_miss 1
Core_0_ITLB_demand_MPKI 1e-05
Core_0_ITLB_demand_miss_rate 1.02965e-07
Core_0_ITLB_load_access 9712038
Core_0_ITLB_load_hit 9712037
Core_0_ITLB_load_miss 1
Core_0_ITLB_load_MPKI 1e-05
Core_0_ITLB_load_miss_rate 1.02965e-07
Core_0_ITLB_rfo_access 0
Core_0_ITLB_rfo_hit 0
Core_0_ITLB_rfo_miss 0
Core_0_ITLB_rfo_MPKI 0
Core_0_ITLB_rfo_miss_rate 0
Core_0_ITLB_prefetch_access 0
Core_0_ITLB_prefetch_hit 0
Core_0_ITLB_prefetch_miss 0
Core_0_ITLB_prefetch_MPKI 0
Core_0_ITLB_prefetch_miss_rate 0
Core_0_ITLB_writeback_access 0
Core_0_ITLB_writeback_hit 0
Core_0_ITLB_writeback_miss 0
Core_0_ITLB_writeback_MPKI 0
Core_0_ITLB_writeback_miss_rate 0
Core_0_ITLB_prefetch_requested 0
Core_0_ITLB_prefetch_issued 0
Core_0_ITLB_prefetch_useful 0
Core_0_ITLB_prefetch_useless 0
Core_0_ITLB_prefetch_late 0
Core_0_ITLB_prefetch_accuracy 0
Core_0_ITLB_prefetch_coverage 0

Core_0_DTLB_total_access 19288278
Core_0_DTLB_total_hit 18957108
Core_0_DTLB_total_miss 331170
Core_0_DTLB_total_MPKI 3.3117
Core_0_DTLB_total_miss_rate 0.0171695
Core_0_DTLB_demand_access 19288278
Core_0_DTLB_demand_hit 18957108
Core_0_DTLB_demand_miss 331170
Core_0_DTLB_demand_MPKI 3.3117
Core_0_DTLB_demand_miss_rate 0.0171695
Core_0_DTLB_load_access 19288278
Core_0_DTLB_load_hit 18957108
Core_0_DTLB_load_miss 331170
Core_0_DTLB_load_MPKI 3.3117
Core_0_DTLB_load_miss_rate 0.0171695
Core_0_DTLB_rfo_access 0
Core_0_DTLB_rfo_hit 0
Core_0_DTLB_rfo_miss 0
Core_0_DTLB_rfo_MPKI 0
Core_0_DTLB_rfo_miss_rate 0
Core_0_DTLB_prefetch_access 0
Core_0_DTLB_prefetch_hit 0
Core_0_DTLB_prefetch_miss 0
Core_0_DTLB_prefetch_MPKI 0
Core_0_DTLB_prefetch_miss_rate 0
Core_0_DTLB_writeback_access 0
Core_0_DTLB_writeback_hit 0
Core_0_DTLB_writeback_miss 0
Core_0_DTLB_writeback_MPKI 0
Core_0_DTLB_writeback_miss_rate 0
Core_0_DTLB_prefetch_requested 0
Core_0_DTLB_prefetch_issued 0
Core_0_DTLB_prefetch_useful 0
Core_0_DTLB_prefetch_useless 0
Core_0_DTLB_prefetch_late 0
Core_0_DTLB_prefetch_accuracy 0
Core_0_DTLB_prefetch_coverage 0

Core_0_STLB_total_access 131675
Core_0_STLB_total_hit 94126
Core_0_STLB_total_miss 37549
Core_0_STLB_total_MPKI 0.37549
Core_0_STLB_total_miss_rate 0.285164
Core_0_STLB_demand_access 131675
Core_0_STLB_demand_hit 94126
Core_0_STLB_demand_miss 37549
Core_0_STLB_demand_MPKI 0.37549
Core_0_STLB_demand_miss_rate 0.285164
Core_0_STLB_load_access 131675
Core_0_STLB_load_hit 94126
Core_0_STLB_load_miss 37549
Core_0_STLB_load_MPKI 0.37549
Core_0_STLB_load_miss_rate 0.285164
Core_0_STLB_rfo_access 0
Core_0_STLB_rfo_hit 0
Core_0_STLB_rfo_miss 0
Core_0_STLB_rfo_MPKI 0
Core_0_STLB_rfo_miss_rate 0
Core_0_STLB_prefetch_access 0
Core_0_STLB_prefetch_hit 0
Core_0_STLB_prefetch_miss 0
Core_0_STLB_prefetch_MPKI 0
Core_0_STLB_prefetch_miss_rate 0
Core_0_STLB_writeback_access 0
Core_0_STLB_writeback_hit 0
Core_0_STLB_writeback_miss 0
Core_0_STLB_writeback_MPKI 0
Core_0_STLB_writeback_miss_rate 0
Core_0_STLB_prefetch_requested 0
Core_0_STLB_prefetch_issued 0
Core_0_STLB_prefetch_useful 0
Core_0_STLB_prefetch_useless 0
Core_0_STLB_prefetch_late 0
Core_0_STLB_prefetch_accuracy 0
Core_0_STLB_prefetch_coverage 0

Core_0_L1I_total_access 13197101
Core_0_L1I_total_hit 13196721
Core_0_L1I_total_miss 380
Core_0_L1I_total_MPKI 0.0038
Core_0_L1I_total_miss_rate 2.87942e-05
Core_0_L1I_demand_access 13197101
Core_0_L1I_demand_hit 13196721
Core_0_L1I_demand_miss 380
Core_0_L1I_demand_MPKI 0.0038
Core_0_L1I_demand_miss_rate 2.87942e-05
Core_0_L1I_load_access 13197101
Core_0_L1I_load_hit 13196721
Core_0_L1I_load_miss 380
Core_0_L1I_load_MPKI 0.0038
Core_0_L1I_load_miss_rate 2.87942e-05
Core_0_L1I_rfo_access 0
Core_0_L1I_rfo_hit 0
Core_0_L1I_rfo_miss 0
Core_0_L1I_rfo_MPKI 0
Core_0_L1I_rfo_miss_rate 0
Core_0_L1I_prefetch_access 0
Core_0_L1I_prefetch_hit 0
Core_0_L1I_prefetch_miss 0
Core_0_L1I_prefetch_MPKI 0
Core_0_L1I_prefetch_miss_rate 0
Core_0_L1I_writeback_access 0
Core_0_L1I_writeback_hit 0
Core_0_L1I_writeback_miss 0
Core_0_L1I_writeback_MPKI 0
Core_0_L1I_writeback_miss_rate 0
Core_0_L1I_prefetch_requested 0
Core_0_L1I_prefetch_issued 0
Core_0_L1I_prefetch_useful 0
Core_0_L1I_prefetch_useless 0
Core_0_L1I_prefetch_late 0
Core_0_L1I_prefetch_accuracy 0
Core_0_L1I_prefetch_coverage 0

Core_0_L1D_total_access 19469277
Core_0_L1D_total_hit 13318712
Core_0_L1D_total_miss 6150565
Core_0_L1D_total_MPKI 61.5056
Core_0_L1D_total_miss_rate 0.315911
Core_0_L1D_demand_access 17536645
Core_0_L1D_demand_hit 11875473
Core_0_L1D_demand_miss 5661172
Core_0_L1D_demand_MPKI 56.6117
Core_0_L1D_demand_miss_rate 0.32282
Core_0_L1D_load_access 17536645
Core_0_L1D_load_hit 11875473
Core_0_L1D_load_miss 5661172
Core_0_L1D_load_MPKI 56.6117
Core_0_L1D_load_miss_rate 0.32282
Core_0_L1D_rfo_access 0
Core_0_L1D_rfo_hit 0
Core_0_L1D_rfo_miss 0
Core_0_L1D_rfo_MPKI 0
Core_0_L1D_rfo_miss_rate 0
Core_0_L1D_prefetch_access 0
Core_0_L1D_prefetch_hit 0
Core_0_L1D_prefetch_miss 0
Core_0_L1D_prefetch_MPKI 0
Core_0_L1D_prefetch_miss_rate 0
Core_0_L1D_writeback_access 1932632
Core_0_L1D_writeback_hit 1443239
Core_0_L1D_writeback_miss 489393
Core_0_L1D_writeback_MPKI 4.89393
Core_0_L1D_writeback_miss_rate 0.253226
Core_0_L1D_prefetch_requested 0
Core_0_L1D_prefetch_issued 0
Core_0_L1D_prefetch_useful 0
Core_0_L1D_prefetch_useless 0
Core_0_L1D_prefetch_late 0
Core_0_L1D_prefetch_accuracy 0
Core_0_L1D_prefetch_coverage 0

Core_0_L2C_total_access 1510030
Core_0_L2C_total_hit 300251
Core_0_L2C_total_miss 1209779
Core_0_L2C_total_MPKI 12.0978
Core_0_L2C_total_miss_rate 0.801162
Core_0_L2C_demand_access 1405100
Core_0_L2C_demand_hit 195638
Core_0_L2C_demand_miss 1209462
Core_0_L2C_demand_MPKI 12.0946
Core_0_L2C_demand_miss_rate 0.860766
Core_0_L2C_load_access 1322949
Core_0_L2C_load_hit 188766
Core_0_L2C_load_miss 1134183
Core_0_L2C_load_MPKI 11.3418
Core_0_L2C_load_miss_rate 0.857314
Core_0_L2C_rfo_access 82151
Core_0_L2C_rfo_hit 6872
Core_0_L2C_rfo_miss 75279
Core_0_L2C_rfo_MPKI 0.75279
Core_0_L2C_rfo_miss_rate 0.916349
Core_0_L2C_prefetch_access 0
Core_0_L2C_prefetch_hit 0
Core_0_L2C_prefetch_miss 0
Core_0_L2C_prefetch_MPKI 0
Core_0_L2C_prefetch_miss_rate 0
Core_0_L2C_writeback_access 104930
Core_0_L2C_writeback_hit 104613
Core_0_L2C_writeback_miss 317
Core_0_L2C_writeback_MPKI 0.00317
Core_0_L2C_writeback_miss_rate 0.00302106
Core_0_L2C_prefetch_requested 0
Core_0_L2C_prefetch_issued 0
Core_0_L2C_prefetch_useful 0
Core_0_L2C_prefetch_useless 0
Core_0_L2C_prefetch_late 0
Core_0_L2C_prefetch_accuracy 0
Core_0_L2C_prefetch_coverage 0

Core_0_LLC_total_access 1306094
Core_0_LLC_total_hit 647290
Core_0_LLC_total_miss 658804
Core_0_LLC_total_MPKI 6.58804
Core_0_LLC_total_miss_rate 0.504408
Core_0_LLC_demand_access 1209462
Core_0_LLC_demand_hit 566528
Core_0_LLC_demand_miss 642934
Core_0_LLC_demand_MPKI 6.42934
Core_0_LLC_demand_miss_rate 0.531587
Core_0_LLC_load_access 1134183
Core_0_LLC_load_hit 514027
Core_0_LLC_load_miss 620156
Core_0_LLC_load_MPKI 6.20156
Core_0_LLC_load_miss_rate 0.546787
Core_0_LLC_rfo_access 75279
Core_0_LLC_rfo_hit 52501
Core_0_LLC_rfo_miss 22778
Core_0_LLC_rfo_MPKI 0.22778
Core_0_LLC_rfo_miss_rate 0.302581
Core_0_LLC_prefetch_access 0
Core_0_LLC_prefetch_hit 0
Core_0_LLC_prefetch_miss 0
Core_0_LLC_prefetch_MPKI 0
Core_0_LLC_prefetch_miss_rate 0
Core_0_LLC_writeback_access 96632
Core_0_LLC_writeback_hit 80762
Core_0_LLC_writeback_miss 15870
Core_0_LLC_writeback_MPKI 0.1587
Core_0_LLC_writeback_miss_rate 0.164231
Core_0_LLC_prefetch_requested 0
Core_0_LLC_prefetch_issued 0
Core_0_LLC_prefetch_useful 0
Core_0_LLC_prefetch_useless 0
Core_0_LLC_prefetch_late 0
Core_0_LLC_prefetch_accuracy 0
Core_0_LLC_prefetch_coverage 0

[DRAM Statistics]
Channel_0_RQ_row_buffer_hit 18432
Channel_0_RQ_row_buffer_miss 631047
Channel_0_WQ_row_buffer_hit 11552
Channel_0_WQ_row_buffer_miss 19874
Channel_0_WQ_full 0
Channel_0_dbus_congested 1315706
DRAM_total_RQ_row_buffer_hit 18432
DRAM_total_RQ_row_buffer_miss 631047
DRAM_total_WQ_row_buffer_hit 11552
DRAM_total_WQ_row_buffer_miss 19874
DRAM_total_WQ_full 0
DRAM_total_dbus_congested 1315706
DRAM_avg_congested_cycle 17.2125

====== DRAM_RQ_TRAFFIC ========
DRAM_RQ_READ_TRAFFIC_BREAKDOWN:
data_demand_read.count = 642764
data_demand_read.share = 98.91%

inst_demand_read.count = 170
inst_demand_read.share = 0.03%

cache_inst_prefetch.count = 0
cache_inst_prefetch.share = 0.00%

cache_data_prefetch.count = 0
cache_data_prefetch.share = 0.00%

stlb_data_demand.count = 6882
stlb_data_demand.share = 1.06%

stlb_inst_demand.count = 1
stlb_inst_demand.share = 0.00%

stlb_l1i_pref.count = 0
stlb_l1i_pref.share = 0.00%

stlb_l1d_pref.count = 0
stlb_l1d_pref.share = 0.00%

DRAM_RQ_READ_TRAFFIC_SUMMARY:
cache_demand.count = 642934
cache_demand.share = 98.94%

cache_prefetch.count = 0
cache_prefetch.share = 0.00%

stlb_demand.count = 6883
stlb_demand.share = 1.06%

stlb_prefetch.count = 0
stlb_prefetch.share = 0.00%

DRAM_RQ_READ_TRAFFIC_DEBUG:
total_classified_read.count = 649817
unclassified_read.count = 0
total_read_with_other.count = 649817

classified_plus_unclassified_check.count = 649817
dram_rq_read_total_observed.count = 649817
dram_rq_read_total_observed.per_1K_instructions = 6.49817

STLB_MISS_PTW_DRAM_TOUCH_BREAKDOWN:
stlb_miss_total.count = 37549

stlb_miss_touch_dram.count = 6883
stlb_miss_touch_dram.share = 18.33%

stlb_miss_no_dram_touch.count = 30666
stlb_miss_no_dram_touch.share = 81.67%

STLB_MISS_PTW_DRAM_TOUCH_DEBUG:
stlb_miss_touch_plus_no_touch.count = 37549
stlb_miss_total_check.count = 37549

======STLB miss causes ========
Core_0_STLB_miss_cause_breakdown
Core_0_STLB_cause_Demand_Data_miss 37548
Core_0_STLB_cause_Demand_Data_miss_rate 0.285157
Core_0_STLB_cause_Demand_Instruction_miss 1
Core_0_STLB_cause_Demand_Instruction_miss_rate 7.59446e-06
Core_0_STLB_cause_L1D_Prefetch_miss 0
Core_0_STLB_cause_L1D_Prefetch_miss_rate 0
Core_0_STLB_cause_L1I_Prefetch_miss 0
Core_0_STLB_cause_L1I_Prefetch_miss_rate 0
Core_0_STLB_cause_Other_miss 0
Core_0_STLB_cause_Other_miss_rate 0
Core_0_STLB_Demand_miss 37549
Core_0_STLB_Demand_miss_rate 0.285164
Core_0_STLB_L1D_Prefetch_miss 0
Core_0_STLB_L1D_Prefetch_miss_rate 0
Core_0_STLB_Other_miss 0
Core_0_STLB_Other_miss_rate 0
