[VMEM] WARNING: physical memory size is smaller than virtual memory size.

*** ChampSim Multicore Out-of-Order Simulator ***
Warmup Instructions: 50000000
Simulation Instructions: 100000000
Number of CPUs: 1
Page size: 4096
Core 0: /data0/tzh/champsim_traces/SPEC17/602.gcc_s-1850B.champsimtrace.xz
Off-chip DRAM Size: 16 GiB Channels: 1 Width: 64-bit Data Rate: 3205 MT/s
Warmup halting CPU 0 at instruction 50000001 cycle 13132694 for remainder of phase
Warmup finished CPU 0 instructions: 50000001 cycles: 13132694 cumulative IPC: 3.807 (Simulation time: 00 hr 02 min 13 sec)
Warmup complete CPU 0 instructions: 50000001 cycles: 13132694 cumulative IPC: 3.807 (Simulation time: 00 hr 02 min 13 sec)
Simulation finished CPU 0 instructions: 100000001 cycles: 327592683 cumulative IPC: 0.3053 (Simulation time: 00 hr 41 min 50 sec)
Simulation complete CPU 0 instructions: 100000001 cycles: 327592683 cumulative IPC: 0.3053 (Simulation time: 00 hr 41 min 50 sec)

ChampSim completed all CPUs

=== Simulation ===
CPU 0 runs /data0/tzh/champsim_traces/SPEC17/602.gcc_s-1850B.champsimtrace.xz

Region of Interest Statistics

CPU 0 cumulative IPC: 0.3053 instructions: 100000001 cycles: 327592683
CPU 0 Branch Prediction Accuracy: 99.95% MPKI: 0.1161 Average ROB Occupancy at Mispredict: 272.2
Branch type MPKI
BRANCH_DIRECT_JUMP: 0.00948
BRANCH_INDIRECT: 0
BRANCH_CONDITIONAL: 0.1066
BRANCH_DIRECT_CALL: 0
BRANCH_INDIRECT_CALL: 0
BRANCH_RETURN: 0

cpu0->cpu0_STLB TOTAL        ACCESS:      32742 HIT:       2397 MISS:      30345 MSHR_MERGE:          0
cpu0->cpu0_STLB LOAD         ACCESS:      32742 HIT:       2397 MISS:      30345 MSHR_MERGE:          0
cpu0->cpu0_STLB RFO          ACCESS:          0 HIT:          0 MISS:          0 MSHR_MERGE:          0
cpu0->cpu0_STLB PREFETCH     ACCESS:          0 HIT:          0 MISS:          0 MSHR_MERGE:          0
cpu0->cpu0_STLB WRITE        ACCESS:          0 HIT:          0 MISS:          0 MSHR_MERGE:          0
cpu0->cpu0_STLB TRANSLATION  ACCESS:          0 HIT:          0 MISS:          0 MSHR_MERGE:          0
cpu0->cpu0_STLB PREFETCH REQUESTED:          0 ISSUED:          0 USEFUL:          0 USELESS:          0 LATE:          0
cpu0->cpu0_STLB AVERAGE MISS LATENCY: 248.7 cycles
cpu0->cpu0_L2C TOTAL        ACCESS:    2430105 HIT:     645308 MISS:    1784797 MSHR_MERGE:          0
cpu0->cpu0_L2C LOAD         ACCESS:    2408765 HIT:     630240 MISS:    1778525 MSHR_MERGE:          0
cpu0->cpu0_L2C RFO          ACCESS:       4339 HIT:       3572 MISS:        767 MSHR_MERGE:          0
cpu0->cpu0_L2C PREFETCH     ACCESS:          0 HIT:          0 MISS:          0 MSHR_MERGE:          0
cpu0->cpu0_L2C WRITE        ACCESS:       9909 HIT:       9908 MISS:          1 MSHR_MERGE:          0
cpu0->cpu0_L2C TRANSLATION  ACCESS:       7092 HIT:       1588 MISS:       5504 MSHR_MERGE:          0
cpu0->cpu0_L2C PREFETCH REQUESTED:          0 ISSUED:          0 USEFUL:          0 USELESS:          0 LATE:          0
cpu0->cpu0_L2C AVERAGE MISS LATENCY: 157.3 cycles
cpu0->cpu0_L1I TOTAL        ACCESS:   21073914 HIT:   21073914 MISS:          0 MSHR_MERGE:          0
cpu0->cpu0_L1I LOAD         ACCESS:   21073914 HIT:   21073914 MISS:          0 MSHR_MERGE:          0
cpu0->cpu0_L1I RFO          ACCESS:          0 HIT:          0 MISS:          0 MSHR_MERGE:          0
cpu0->cpu0_L1I PREFETCH     ACCESS:          0 HIT:          0 MISS:          0 MSHR_MERGE:          0
cpu0->cpu0_L1I WRITE        ACCESS:          0 HIT:          0 MISS:          0 MSHR_MERGE:          0
cpu0->cpu0_L1I TRANSLATION  ACCESS:          0 HIT:          0 MISS:          0 MSHR_MERGE:          0
cpu0->cpu0_L1I PREFETCH REQUESTED:          0 ISSUED:          0 USEFUL:          0 USELESS:          0 LATE:          0
cpu0->cpu0_L1I AVERAGE MISS LATENCY: - cycles
cpu0->cpu0_L1D TOTAL        ACCESS:   23727310 HIT:   18212861 MISS:    5514449 MSHR_MERGE:    3094190
cpu0->cpu0_L1D LOAD         ACCESS:   15034683 HIT:    9556705 MISS:    5477978 MSHR_MERGE:    3069212
cpu0->cpu0_L1D RFO          ACCESS:          0 HIT:          0 MISS:          0 MSHR_MERGE:          0
cpu0->cpu0_L1D PREFETCH     ACCESS:          0 HIT:          0 MISS:          0 MSHR_MERGE:          0
cpu0->cpu0_L1D WRITE        ACCESS:    8631651 HIT:    8602284 MISS:      29367 MSHR_MERGE:      24966
cpu0->cpu0_L1D TRANSLATION  ACCESS:      60976 HIT:      53872 MISS:       7104 MSHR_MERGE:         12
cpu0->cpu0_L1D PREFETCH REQUESTED:          0 ISSUED:          0 USEFUL:          0 USELESS:          0 LATE:          0
cpu0->cpu0_L1D AVERAGE MISS LATENCY: 124.7 cycles
cpu0->cpu0_ITLB TOTAL        ACCESS:   19190876 HIT:   19190876 MISS:          0 MSHR_MERGE:          0
cpu0->cpu0_ITLB LOAD         ACCESS:   19190876 HIT:   19190876 MISS:          0 MSHR_MERGE:          0
cpu0->cpu0_ITLB RFO          ACCESS:          0 HIT:          0 MISS:          0 MSHR_MERGE:          0
cpu0->cpu0_ITLB PREFETCH     ACCESS:          0 HIT:          0 MISS:          0 MSHR_MERGE:          0
cpu0->cpu0_ITLB WRITE        ACCESS:          0 HIT:          0 MISS:          0 MSHR_MERGE:          0
cpu0->cpu0_ITLB TRANSLATION  ACCESS:          0 HIT:          0 MISS:          0 MSHR_MERGE:          0
cpu0->cpu0_ITLB PREFETCH REQUESTED:          0 ISSUED:          0 USEFUL:          0 USELESS:          0 LATE:          0
cpu0->cpu0_ITLB AVERAGE MISS LATENCY: - cycles
cpu0->cpu0_DTLB TOTAL        ACCESS:   22553338 HIT:   22467144 MISS:      86194 MSHR_MERGE:      53452
cpu0->cpu0_DTLB LOAD         ACCESS:   22553338 HIT:   22467144 MISS:      86194 MSHR_MERGE:      53452
cpu0->cpu0_DTLB RFO          ACCESS:          0 HIT:          0 MISS:          0 MSHR_MERGE:          0
cpu0->cpu0_DTLB PREFETCH     ACCESS:          0 HIT:          0 MISS:          0 MSHR_MERGE:          0
cpu0->cpu0_DTLB WRITE        ACCESS:          0 HIT:          0 MISS:          0 MSHR_MERGE:          0
cpu0->cpu0_DTLB TRANSLATION  ACCESS:          0 HIT:          0 MISS:          0 MSHR_MERGE:          0
cpu0->cpu0_DTLB PREFETCH REQUESTED:          0 ISSUED:          0 USEFUL:          0 USELESS:          0 LATE:          0
cpu0->cpu0_DTLB AVERAGE MISS LATENCY: 236.5 cycles
cpu0->LLC TOTAL        ACCESS:    1787198 HIT:       5133 MISS:    1782065 MSHR_MERGE:          0
cpu0->LLC LOAD         ACCESS:    1778525 HIT:       2651 MISS:    1775874 MSHR_MERGE:          0
cpu0->LLC RFO          ACCESS:        767 HIT:          0 MISS:        767 MSHR_MERGE:          0
cpu0->LLC PREFETCH     ACCESS:          0 HIT:          0 MISS:          0 MSHR_MERGE:          0
cpu0->LLC WRITE        ACCESS:       2402 HIT:       2133 MISS:        269 MSHR_MERGE:          0
cpu0->LLC TRANSLATION  ACCESS:       5504 HIT:        349 MISS:       5155 MSHR_MERGE:          0
cpu0->LLC PREFETCH REQUESTED:          0 ISSUED:          0 USEFUL:          0 USELESS:          0 LATE:          0
cpu0->LLC AVERAGE MISS LATENCY: 141.5 cycles

DRAM Statistics

Channel 0 RQ ROW_BUFFER_HIT:     554299
  ROW_BUFFER_MISS:    1227497
  AVG DBUS CONGESTED CYCLE: 25.09
Channel 0 WQ ROW_BUFFER_HIT:        890
  ROW_BUFFER_MISS:       1496
  FULL:          0
Channel 0 REFRESHES ISSUED:      27299

[ROI Statistics]
[System Configuration]
num_cpus 1
cpu_freq 4000
fetch_width 6
decode_width 6
dispatch_width 6
execute_width 6
lq_width 2
sq_width 2
retire_width 6
scheduler_size 128
branch_mispredict_penalty 15
rob_size 352
lq_size 128
sq_size 72
ifetch_buffer_size 64
decode_buffer_size 32
dispatch_buffer_size 32
register_file_size 288
decode_latency 1
dispatch_latency 1
schedule_latency 1
execute_latency 1
page_size 4096
block_size 64
core_0_itlb_set 16
core_0_itlb_way 4
core_0_itlb_rq_size 16
core_0_itlb_wq_size 16
core_0_itlb_pq_size 0
core_0_itlb_mshr_size 8
core_0_itlb_hit_latency 1
core_0_itlb_fill_latency 1
core_0_itlb_max_tag_check 2
core_0_itlb_max_fill 2
core_0_dtlb_set 16
core_0_dtlb_way 4
core_0_dtlb_rq_size 16
core_0_dtlb_wq_size 16
core_0_dtlb_pq_size 0
core_0_dtlb_mshr_size 8
core_0_dtlb_hit_latency 1
core_0_dtlb_fill_latency 1
core_0_dtlb_max_tag_check 2
core_0_dtlb_max_fill 2
core_0_stlb_set 128
core_0_stlb_way 12
core_0_stlb_rq_size 32
core_0_stlb_wq_size 32
core_0_stlb_pq_size 0
core_0_stlb_mshr_size 16
core_0_stlb_hit_latency 4
core_0_stlb_fill_latency 4
core_0_stlb_max_tag_check 1
core_0_stlb_max_fill 1
core_0_l1i_set 64
core_0_l1i_way 8
core_0_l1i_rq_size 64
core_0_l1i_wq_size 64
core_0_l1i_pq_size 32
core_0_l1i_mshr_size 8
core_0_l1i_hit_latency 2
core_0_l1i_fill_latency 2
core_0_l1i_max_tag_check 2
core_0_l1i_max_fill 2
core_0_l1d_set 64
core_0_l1d_way 12
core_0_l1d_rq_size 64
core_0_l1d_wq_size 64
core_0_l1d_pq_size 8
core_0_l1d_mshr_size 16
core_0_l1d_hit_latency 2
core_0_l1d_fill_latency 3
core_0_l1d_max_tag_check 2
core_0_l1d_max_fill 2
core_0_l2c_set 1024
core_0_l2c_way 8
core_0_l2c_rq_size 32
core_0_l2c_wq_size 32
core_0_l2c_pq_size 16
core_0_l2c_mshr_size 32
core_0_l2c_hit_latency 5
core_0_l2c_fill_latency 5
core_0_l2c_max_tag_check 1
core_0_l2c_max_fill 1
llc_set 2048
llc_way 16
llc_rq_size 32
llc_wq_size 32
llc_pq_size 32
llc_mshr_size 64
llc_hit_latency 10
llc_fill_latency 10
llc_max_tag_check 1
llc_max_fill 1
dram_channels 1
dram_ranks 1
dram_bankgroups 8
dram_banks 4
dram_rows 65536
dram_columns 1024
dram_channel_width 8
dram_rq_size 64
dram_wq_size 64
dram_size 17179869184
core_0_itlb_prefetcher no
core_0_dtlb_prefetcher no
core_0_stlb_prefetcher no
core_0_l1i_prefetcher no
core_0_l1d_prefetcher no
core_0_l2c_prefetcher no
llc_prefetcher no
llc_replacement drrip

Core_0_instructions 100000001
Core_0_cycles 327592683
Core_0_IPC 0.305257
Core_0_branch_prediction_accuracy 99.9547
Core_0_branch_MPKI 0.11613
Core_0_average_ROB_occupancy_at_mispredict 272.239

Core_0_ITLB_total_access 19190876
Core_0_ITLB_total_hit 19190876
Core_0_ITLB_total_miss 0
Core_0_ITLB_total_MPKI 0
Core_0_ITLB_total_miss_rate 0
Core_0_ITLB_demand_access 19190876
Core_0_ITLB_demand_hit 19190876
Core_0_ITLB_demand_miss 0
Core_0_ITLB_demand_MPKI 0
Core_0_ITLB_demand_miss_rate 0
Core_0_ITLB_load_access 19190876
Core_0_ITLB_load_hit 19190876
Core_0_ITLB_load_miss 0
Core_0_ITLB_load_MPKI 0
Core_0_ITLB_load_miss_rate 0
Core_0_ITLB_rfo_access 0
Core_0_ITLB_rfo_hit 0
Core_0_ITLB_rfo_miss 0
Core_0_ITLB_rfo_MPKI 0
Core_0_ITLB_rfo_miss_rate 0
Core_0_ITLB_prefetch_access 0
Core_0_ITLB_prefetch_hit 0
Core_0_ITLB_prefetch_miss 0
Core_0_ITLB_prefetch_MPKI 0
Core_0_ITLB_prefetch_miss_rate 0
Core_0_ITLB_writeback_access 0
Core_0_ITLB_writeback_hit 0
Core_0_ITLB_writeback_miss 0
Core_0_ITLB_writeback_MPKI 0
Core_0_ITLB_writeback_miss_rate 0
Core_0_ITLB_prefetch_requested 0
Core_0_ITLB_prefetch_issued 0
Core_0_ITLB_prefetch_useful 0
Core_0_ITLB_prefetch_useless 0
Core_0_ITLB_prefetch_late 0
Core_0_ITLB_prefetch_accuracy 0
Core_0_ITLB_prefetch_coverage 0

Core_0_DTLB_total_access 22553338
Core_0_DTLB_total_hit 22467144
Core_0_DTLB_total_miss 86194
Core_0_DTLB_total_MPKI 0.86194
Core_0_DTLB_total_miss_rate 0.00382178
Core_0_DTLB_demand_access 22553338
Core_0_DTLB_demand_hit 22467144
Core_0_DTLB_demand_miss 86194
Core_0_DTLB_demand_MPKI 0.86194
Core_0_DTLB_demand_miss_rate 0.00382178
Core_0_DTLB_load_access 22553338
Core_0_DTLB_load_hit 22467144
Core_0_DTLB_load_miss 86194
Core_0_DTLB_load_MPKI 0.86194
Core_0_DTLB_load_miss_rate 0.00382178
Core_0_DTLB_rfo_access 0
Core_0_DTLB_rfo_hit 0
Core_0_DTLB_rfo_miss 0
Core_0_DTLB_rfo_MPKI 0
Core_0_DTLB_rfo_miss_rate 0
Core_0_DTLB_prefetch_access 0
Core_0_DTLB_prefetch_hit 0
Core_0_DTLB_prefetch_miss 0
Core_0_DTLB_prefetch_MPKI 0
Core_0_DTLB_prefetch_miss_rate 0
Core_0_DTLB_writeback_access 0
Core_0_DTLB_writeback_hit 0
Core_0_DTLB_writeback_miss 0
Core_0_DTLB_writeback_MPKI 0
Core_0_DTLB_writeback_miss_rate 0
Core_0_DTLB_prefetch_requested 0
Core_0_DTLB_prefetch_issued 0
Core_0_DTLB_prefetch_useful 0
Core_0_DTLB_prefetch_useless 0
Core_0_DTLB_prefetch_late 0
Core_0_DTLB_prefetch_accuracy 0
Core_0_DTLB_prefetch_coverage 0

Core_0_STLB_total_access 32742
Core_0_STLB_total_hit 2397
Core_0_STLB_total_miss 30345
Core_0_STLB_total_MPKI 0.30345
Core_0_STLB_total_miss_rate 0.926791
Core_0_STLB_demand_access 32742
Core_0_STLB_demand_hit 2397
Core_0_STLB_demand_miss 30345
Core_0_STLB_demand_MPKI 0.30345
Core_0_STLB_demand_miss_rate 0.926791
Core_0_STLB_load_access 32742
Core_0_STLB_load_hit 2397
Core_0_STLB_load_miss 30345
Core_0_STLB_load_MPKI 0.30345
Core_0_STLB_load_miss_rate 0.926791
Core_0_STLB_rfo_access 0
Core_0_STLB_rfo_hit 0
Core_0_STLB_rfo_miss 0
Core_0_STLB_rfo_MPKI 0
Core_0_STLB_rfo_miss_rate 0
Core_0_STLB_prefetch_access 0
Core_0_STLB_prefetch_hit 0
Core_0_STLB_prefetch_miss 0
Core_0_STLB_prefetch_MPKI 0
Core_0_STLB_prefetch_miss_rate 0
Core_0_STLB_writeback_access 0
Core_0_STLB_writeback_hit 0
Core_0_STLB_writeback_miss 0
Core_0_STLB_writeback_MPKI 0
Core_0_STLB_writeback_miss_rate 0
Core_0_STLB_prefetch_requested 0
Core_0_STLB_prefetch_issued 0
Core_0_STLB_prefetch_useful 0
Core_0_STLB_prefetch_useless 0
Core_0_STLB_prefetch_late 0
Core_0_STLB_prefetch_accuracy 0
Core_0_STLB_prefetch_coverage 0

Core_0_L1I_total_access 21073914
Core_0_L1I_total_hit 21073914
Core_0_L1I_total_miss 0
Core_0_L1I_total_MPKI 0
Core_0_L1I_total_miss_rate 0
Core_0_L1I_demand_access 21073914
Core_0_L1I_demand_hit 21073914
Core_0_L1I_demand_miss 0
Core_0_L1I_demand_MPKI 0
Core_0_L1I_demand_miss_rate 0
Core_0_L1I_load_access 21073914
Core_0_L1I_load_hit 21073914
Core_0_L1I_load_miss 0
Core_0_L1I_load_MPKI 0
Core_0_L1I_load_miss_rate 0
Core_0_L1I_rfo_access 0
Core_0_L1I_rfo_hit 0
Core_0_L1I_rfo_miss 0
Core_0_L1I_rfo_MPKI 0
Core_0_L1I_rfo_miss_rate 0
Core_0_L1I_prefetch_access 0
Core_0_L1I_prefetch_hit 0
Core_0_L1I_prefetch_miss 0
Core_0_L1I_prefetch_MPKI 0
Core_0_L1I_prefetch_miss_rate 0
Core_0_L1I_writeback_access 0
Core_0_L1I_writeback_hit 0
Core_0_L1I_writeback_miss 0
Core_0_L1I_writeback_MPKI 0
Core_0_L1I_writeback_miss_rate 0
Core_0_L1I_prefetch_requested 0
Core_0_L1I_prefetch_issued 0
Core_0_L1I_prefetch_useful 0
Core_0_L1I_prefetch_useless 0
Core_0_L1I_prefetch_late 0
Core_0_L1I_prefetch_accuracy 0
Core_0_L1I_prefetch_coverage 0

Core_0_L1D_total_access 23666334
Core_0_L1D_total_hit 18158989
Core_0_L1D_total_miss 5507345
Core_0_L1D_total_MPKI 55.0734
Core_0_L1D_total_miss_rate 0.232708
Core_0_L1D_demand_access 15034683
Core_0_L1D_demand_hit 9556705
Core_0_L1D_demand_miss 5477978
Core_0_L1D_demand_MPKI 54.7798
Core_0_L1D_demand_miss_rate 0.364356
Core_0_L1D_load_access 15034683
Core_0_L1D_load_hit 9556705
Core_0_L1D_load_miss 5477978
Core_0_L1D_load_MPKI 54.7798
Core_0_L1D_load_miss_rate 0.364356
Core_0_L1D_rfo_access 0
Core_0_L1D_rfo_hit 0
Core_0_L1D_rfo_miss 0
Core_0_L1D_rfo_MPKI 0
Core_0_L1D_rfo_miss_rate 0
Core_0_L1D_prefetch_access 0
Core_0_L1D_prefetch_hit 0
Core_0_L1D_prefetch_miss 0
Core_0_L1D_prefetch_MPKI 0
Core_0_L1D_prefetch_miss_rate 0
Core_0_L1D_writeback_access 8631651
Core_0_L1D_writeback_hit 8602284
Core_0_L1D_writeback_miss 29367
Core_0_L1D_writeback_MPKI 0.29367
Core_0_L1D_writeback_miss_rate 0.00340225
Core_0_L1D_prefetch_requested 0
Core_0_L1D_prefetch_issued 0
Core_0_L1D_prefetch_useful 0
Core_0_L1D_prefetch_useless 0
Core_0_L1D_prefetch_late 0
Core_0_L1D_prefetch_accuracy 0
Core_0_L1D_prefetch_coverage 0

Core_0_L2C_total_access 2423013
Core_0_L2C_total_hit 643720
Core_0_L2C_total_miss 1779293
Core_0_L2C_total_MPKI 17.7929
Core_0_L2C_total_miss_rate 0.734331
Core_0_L2C_demand_access 2413104
Core_0_L2C_demand_hit 633812
Core_0_L2C_demand_miss 1779292
Core_0_L2C_demand_MPKI 17.7929
Core_0_L2C_demand_miss_rate 0.737346
Core_0_L2C_load_access 2408765
Core_0_L2C_load_hit 630240
Core_0_L2C_load_miss 1778525
Core_0_L2C_load_MPKI 17.7852
Core_0_L2C_load_miss_rate 0.738356
Core_0_L2C_rfo_access 4339
Core_0_L2C_rfo_hit 3572
Core_0_L2C_rfo_miss 767
Core_0_L2C_rfo_MPKI 0.00767
Core_0_L2C_rfo_miss_rate 0.176769
Core_0_L2C_prefetch_access 0
Core_0_L2C_prefetch_hit 0
Core_0_L2C_prefetch_miss 0
Core_0_L2C_prefetch_MPKI 0
Core_0_L2C_prefetch_miss_rate 0
Core_0_L2C_writeback_access 9909
Core_0_L2C_writeback_hit 9908
Core_0_L2C_writeback_miss 1
Core_0_L2C_writeback_MPKI 1e-05
Core_0_L2C_writeback_miss_rate 0.000100918
Core_0_L2C_prefetch_requested 0
Core_0_L2C_prefetch_issued 0
Core_0_L2C_prefetch_useful 0
Core_0_L2C_prefetch_useless 0
Core_0_L2C_prefetch_late 0
Core_0_L2C_prefetch_accuracy 0
Core_0_L2C_prefetch_coverage 0

Core_0_LLC_total_access 1781694
Core_0_LLC_total_hit 4784
Core_0_LLC_total_miss 1776910
Core_0_LLC_total_MPKI 17.7691
Core_0_LLC_total_miss_rate 0.997315
Core_0_LLC_demand_access 1779292
Core_0_LLC_demand_hit 2651
Core_0_LLC_demand_miss 1776641
Core_0_LLC_demand_MPKI 17.7664
Core_0_LLC_demand_miss_rate 0.99851
Core_0_LLC_load_access 1778525
Core_0_LLC_load_hit 2651
Core_0_LLC_load_miss 1775874
Core_0_LLC_load_MPKI 17.7587
Core_0_LLC_load_miss_rate 0.998509
Core_0_LLC_rfo_access 767
Core_0_LLC_rfo_hit 0
Core_0_LLC_rfo_miss 767
Core_0_LLC_rfo_MPKI 0.00767
Core_0_LLC_rfo_miss_rate 1
Core_0_LLC_prefetch_access 0
Core_0_LLC_prefetch_hit 0
Core_0_LLC_prefetch_miss 0
Core_0_LLC_prefetch_MPKI 0
Core_0_LLC_prefetch_miss_rate 0
Core_0_LLC_writeback_access 2402
Core_0_LLC_writeback_hit 2133
Core_0_LLC_writeback_miss 269
Core_0_LLC_writeback_MPKI 0.00269
Core_0_LLC_writeback_miss_rate 0.11199
Core_0_LLC_prefetch_requested 0
Core_0_LLC_prefetch_issued 0
Core_0_LLC_prefetch_useful 0
Core_0_LLC_prefetch_useless 0
Core_0_LLC_prefetch_late 0
Core_0_LLC_prefetch_accuracy 0
Core_0_LLC_prefetch_coverage 0

[DRAM Statistics]
Channel_0_RQ_row_buffer_hit 554299
Channel_0_RQ_row_buffer_miss 1227497
Channel_0_WQ_row_buffer_hit 890
Channel_0_WQ_row_buffer_miss 1496
Channel_0_WQ_full 0
Channel_0_dbus_congested 821655
DRAM_total_RQ_row_buffer_hit 554299
DRAM_total_RQ_row_buffer_miss 1227497
DRAM_total_WQ_row_buffer_hit 890
DRAM_total_WQ_row_buffer_miss 1496
DRAM_total_WQ_full 0
DRAM_total_dbus_congested 821655
DRAM_avg_congested_cycle 25.0921

====== DRAM_RQ_TRAFFIC ========
DRAM_RQ_READ_TRAFFIC_BREAKDOWN:
data_demand_read.count = 1776641
data_demand_read.share = 99.71%

inst_demand_read.count = 0
inst_demand_read.share = 0.00%

cache_inst_prefetch.count = 0
cache_inst_prefetch.share = 0.00%

cache_data_prefetch.count = 0
cache_data_prefetch.share = 0.00%

stlb_data_demand.count = 5155
stlb_data_demand.share = 0.29%

stlb_inst_demand.count = 0
stlb_inst_demand.share = 0.00%

stlb_l1i_pref.count = 0
stlb_l1i_pref.share = 0.00%

stlb_l1d_pref.count = 0
stlb_l1d_pref.share = 0.00%

DRAM_RQ_READ_TRAFFIC_SUMMARY:
cache_demand.count = 1776641
cache_demand.share = 99.71%

cache_prefetch.count = 0
cache_prefetch.share = 0.00%

stlb_demand.count = 5155
stlb_demand.share = 0.29%

stlb_prefetch.count = 0
stlb_prefetch.share = 0.00%

DRAM_RQ_READ_TRAFFIC_DEBUG:
total_classified_read.count = 1781796
unclassified_read.count = 0
total_read_with_other.count = 1781796

classified_plus_unclassified_check.count = 1781796
dram_rq_read_total_observed.count = 1781796
dram_rq_read_total_observed.per_1K_instructions = 17.818

STLB_MISS_PTW_DRAM_TOUCH_BREAKDOWN:
stlb_miss_total.count = 30345

stlb_miss_touch_dram.count = 4998
stlb_miss_touch_dram.share = 16.47%

stlb_miss_no_dram_touch.count = 25347
stlb_miss_no_dram_touch.share = 83.53%

STLB_MISS_PTW_DRAM_TOUCH_DEBUG:
stlb_miss_touch_plus_no_touch.count = 30345
stlb_miss_total_check.count = 30345

======STLB miss causes ========
Core_0_STLB_miss_cause_breakdown
Core_0_STLB_cause_Demand_Data_miss 30345
Core_0_STLB_cause_Demand_Data_miss_rate 0.926791
Core_0_STLB_cause_Demand_Instruction_miss 0
Core_0_STLB_cause_Demand_Instruction_miss_rate 0
Core_0_STLB_cause_L1D_Prefetch_miss 0
Core_0_STLB_cause_L1D_Prefetch_miss_rate 0
Core_0_STLB_cause_L1I_Prefetch_miss 0
Core_0_STLB_cause_L1I_Prefetch_miss_rate 0
Core_0_STLB_cause_Other_miss 0
Core_0_STLB_cause_Other_miss_rate 0
Core_0_STLB_Demand_miss 30345
Core_0_STLB_Demand_miss_rate 0.926791
Core_0_STLB_L1D_Prefetch_miss 0
Core_0_STLB_L1D_Prefetch_miss_rate 0
Core_0_STLB_Other_miss 0
Core_0_STLB_Other_miss_rate 0
