[VMEM] WARNING: physical memory size is smaller than virtual memory size.

*** ChampSim Multicore Out-of-Order Simulator ***
Warmup Instructions: 50000000
Simulation Instructions: 100000000
Number of CPUs: 1
Page size: 4096
Core 0: /data0/tzh/champsim_traces/SPEC17/607.cactuBSSN_s-4004B.champsimtrace.xz
Off-chip DRAM Size: 16 GiB Channels: 1 Width: 64-bit Data Rate: 3205 MT/s
Warmup halting CPU 0 at instruction 50000001 cycle 13375003 for remainder of phase
Warmup finished CPU 0 instructions: 50000001 cycles: 13375003 cumulative IPC: 3.738 (Simulation time: 00 hr 03 min 05 sec)
Warmup complete CPU 0 instructions: 50000001 cycles: 13375003 cumulative IPC: 3.738 (Simulation time: 00 hr 03 min 05 sec)
Simulation finished CPU 0 instructions: 100000001 cycles: 43906770 cumulative IPC: 2.278 (Simulation time: 00 hr 12 min 01 sec)
Simulation complete CPU 0 instructions: 100000001 cycles: 43906770 cumulative IPC: 2.278 (Simulation time: 00 hr 12 min 01 sec)

ChampSim completed all CPUs

=== Simulation ===
CPU 0 runs /data0/tzh/champsim_traces/SPEC17/607.cactuBSSN_s-4004B.champsimtrace.xz

Region of Interest Statistics

CPU 0 cumulative IPC: 2.278 instructions: 100000001 cycles: 43906770
CPU 0 Branch Prediction Accuracy: 91.83% MPKI: 0.7281 Average ROB Occupancy at Mispredict: 219.3
Branch type MPKI
BRANCH_DIRECT_JUMP: 0
BRANCH_INDIRECT: 1e-05
BRANCH_CONDITIONAL: 0.3646
BRANCH_DIRECT_CALL: 0
BRANCH_INDIRECT_CALL: 0
BRANCH_RETURN: 0.3635

cpu0->cpu0_STLB TOTAL        ACCESS:    3862516 HIT:    3858258 MISS:       4258 MSHR_MERGE:          0
cpu0->cpu0_STLB LOAD         ACCESS:    3862516 HIT:    3858258 MISS:       4258 MSHR_MERGE:          0
cpu0->cpu0_STLB RFO          ACCESS:          0 HIT:          0 MISS:          0 MSHR_MERGE:          0
cpu0->cpu0_STLB PREFETCH     ACCESS:          0 HIT:          0 MISS:          0 MSHR_MERGE:          0
cpu0->cpu0_STLB WRITE        ACCESS:          0 HIT:          0 MISS:          0 MSHR_MERGE:          0
cpu0->cpu0_STLB TRANSLATION  ACCESS:          0 HIT:          0 MISS:          0 MSHR_MERGE:          0
cpu0->cpu0_STLB PREFETCH REQUESTED:          0 ISSUED:          0 USEFUL:          0 USELESS:          0 LATE:          0
cpu0->cpu0_STLB AVERAGE MISS LATENCY: 302.9 cycles
cpu0->cpu0_L2C TOTAL        ACCESS:   10543574 HIT:    9998828 MISS:     544746 MSHR_MERGE:          0
cpu0->cpu0_L2C LOAD         ACCESS:    9236276 HIT:    8758155 MISS:     478121 MSHR_MERGE:          0
cpu0->cpu0_L2C RFO          ACCESS:     621734 HIT:     560819 MISS:      60915 MSHR_MERGE:          0
cpu0->cpu0_L2C PREFETCH     ACCESS:          0 HIT:          0 MISS:          0 MSHR_MERGE:          0
cpu0->cpu0_L2C WRITE        ACCESS:     679246 HIT:     679147 MISS:         99 MSHR_MERGE:          0
cpu0->cpu0_L2C TRANSLATION  ACCESS:       6318 HIT:        707 MISS:       5611 MSHR_MERGE:          0
cpu0->cpu0_L2C PREFETCH REQUESTED:          0 ISSUED:          0 USEFUL:          0 USELESS:          0 LATE:          0
cpu0->cpu0_L2C AVERAGE MISS LATENCY: 141.3 cycles
cpu0->cpu0_L1I TOTAL        ACCESS:   17789621 HIT:   13438130 MISS:    4351491 MSHR_MERGE:    1751484
cpu0->cpu0_L1I LOAD         ACCESS:   17789621 HIT:   13438130 MISS:    4351491 MSHR_MERGE:    1751484
cpu0->cpu0_L1I RFO          ACCESS:          0 HIT:          0 MISS:          0 MSHR_MERGE:          0
cpu0->cpu0_L1I PREFETCH     ACCESS:          0 HIT:          0 MISS:          0 MSHR_MERGE:          0
cpu0->cpu0_L1I WRITE        ACCESS:          0 HIT:          0 MISS:          0 MSHR_MERGE:          0
cpu0->cpu0_L1I TRANSLATION  ACCESS:          0 HIT:          0 MISS:          0 MSHR_MERGE:          0
cpu0->cpu0_L1I PREFETCH REQUESTED:          0 ISSUED:          0 USEFUL:          0 USELESS:          0 LATE:          0
cpu0->cpu0_L1I AVERAGE MISS LATENCY: 7.116 cycles
cpu0->cpu0_L1D TOTAL        ACCESS:   33406926 HIT:   25926174 MISS:    7480752 MSHR_MERGE:     216050
cpu0->cpu0_L1D LOAD         ACCESS:   25536111 HIT:   18751984 MISS:    6784127 MSHR_MERGE:     147621
cpu0->cpu0_L1D RFO          ACCESS:          0 HIT:          0 MISS:          0 MSHR_MERGE:          0
cpu0->cpu0_L1D PREFETCH     ACCESS:          0 HIT:          0 MISS:          0 MSHR_MERGE:          0
cpu0->cpu0_L1D WRITE        ACCESS:    7860180 HIT:    7169875 MISS:     690305 MSHR_MERGE:      68427
cpu0->cpu0_L1D TRANSLATION  ACCESS:      10635 HIT:       4315 MISS:       6320 MSHR_MERGE:          2
cpu0->cpu0_L1D PREFETCH REQUESTED:          0 ISSUED:          0 USEFUL:          0 USELESS:          0 LATE:          0
cpu0->cpu0_L1D AVERAGE MISS LATENCY: 19.45 cycles
cpu0->cpu0_ITLB TOTAL        ACCESS:   12860336 HIT:   12860336 MISS:          0 MSHR_MERGE:          0
cpu0->cpu0_ITLB LOAD         ACCESS:   12860336 HIT:   12860336 MISS:          0 MSHR_MERGE:          0
cpu0->cpu0_ITLB RFO          ACCESS:          0 HIT:          0 MISS:          0 MSHR_MERGE:          0
cpu0->cpu0_ITLB PREFETCH     ACCESS:          0 HIT:          0 MISS:          0 MSHR_MERGE:          0
cpu0->cpu0_ITLB WRITE        ACCESS:          0 HIT:          0 MISS:          0 MSHR_MERGE:          0
cpu0->cpu0_ITLB TRANSLATION  ACCESS:          0 HIT:          0 MISS:          0 MSHR_MERGE:          0
cpu0->cpu0_ITLB PREFETCH REQUESTED:          0 ISSUED:          0 USEFUL:          0 USELESS:          0 LATE:          0
cpu0->cpu0_ITLB AVERAGE MISS LATENCY: - cycles
cpu0->cpu0_DTLB TOTAL        ACCESS:   31475944 HIT:   27060716 MISS:    4415228 MSHR_MERGE:     552712
cpu0->cpu0_DTLB LOAD         ACCESS:   31475944 HIT:   27060716 MISS:    4415228 MSHR_MERGE:     552712
cpu0->cpu0_DTLB RFO          ACCESS:          0 HIT:          0 MISS:          0 MSHR_MERGE:          0
cpu0->cpu0_DTLB PREFETCH     ACCESS:          0 HIT:          0 MISS:          0 MSHR_MERGE:          0
cpu0->cpu0_DTLB WRITE        ACCESS:          0 HIT:          0 MISS:          0 MSHR_MERGE:          0
cpu0->cpu0_DTLB TRANSLATION  ACCESS:          0 HIT:          0 MISS:          0 MSHR_MERGE:          0
cpu0->cpu0_DTLB PREFETCH REQUESTED:          0 ISSUED:          0 USEFUL:          0 USELESS:          0 LATE:          0
cpu0->cpu0_DTLB AVERAGE MISS LATENCY: 5.398 cycles
cpu0->LLC TOTAL        ACCESS:     605441 HIT:     296914 MISS:     308527 MSHR_MERGE:          0
cpu0->LLC LOAD         ACCESS:     478121 HIT:     236862 MISS:     241259 MSHR_MERGE:          0
cpu0->LLC RFO          ACCESS:      60820 HIT:       1954 MISS:      58866 MSHR_MERGE:          0
cpu0->LLC PREFETCH     ACCESS:          0 HIT:          0 MISS:          0 MSHR_MERGE:          0
cpu0->LLC WRITE        ACCESS:      60889 HIT:      53460 MISS:       7429 MSHR_MERGE:          0
cpu0->LLC TRANSLATION  ACCESS:       5611 HIT:       4638 MISS:        973 MSHR_MERGE:          0
cpu0->LLC PREFETCH REQUESTED:          0 ISSUED:          0 USEFUL:          0 USELESS:          0 LATE:          0
cpu0->LLC AVERAGE MISS LATENCY: 222.2 cycles

DRAM Statistics

Channel 0 RQ ROW_BUFFER_HIT:        135
  ROW_BUFFER_MISS:     300963
  AVG DBUS CONGESTED CYCLE: 6.905
Channel 0 WQ ROW_BUFFER_HIT:       5269
  ROW_BUFFER_MISS:      53259
  FULL:          0
Channel 0 REFRESHES ISSUED:       3659

[ROI Statistics]
[System Configuration]
num_cpus 1
cpu_freq 4000
fetch_width 6
decode_width 6
dispatch_width 6
execute_width 6
lq_width 2
sq_width 2
retire_width 6
scheduler_size 128
branch_mispredict_penalty 15
rob_size 352
lq_size 128
sq_size 72
ifetch_buffer_size 64
decode_buffer_size 32
dispatch_buffer_size 32
register_file_size 288
decode_latency 1
dispatch_latency 1
schedule_latency 1
execute_latency 1
page_size 4096
block_size 64
core_0_itlb_set 16
core_0_itlb_way 4
core_0_itlb_rq_size 16
core_0_itlb_wq_size 16
core_0_itlb_pq_size 0
core_0_itlb_mshr_size 8
core_0_itlb_hit_latency 1
core_0_itlb_fill_latency 1
core_0_itlb_max_tag_check 2
core_0_itlb_max_fill 2
core_0_dtlb_set 16
core_0_dtlb_way 4
core_0_dtlb_rq_size 16
core_0_dtlb_wq_size 16
core_0_dtlb_pq_size 0
core_0_dtlb_mshr_size 8
core_0_dtlb_hit_latency 1
core_0_dtlb_fill_latency 1
core_0_dtlb_max_tag_check 2
core_0_dtlb_max_fill 2
core_0_stlb_set 128
core_0_stlb_way 12
core_0_stlb_rq_size 32
core_0_stlb_wq_size 32
core_0_stlb_pq_size 0
core_0_stlb_mshr_size 16
core_0_stlb_hit_latency 4
core_0_stlb_fill_latency 4
core_0_stlb_max_tag_check 1
core_0_stlb_max_fill 1
core_0_l1i_set 64
core_0_l1i_way 8
core_0_l1i_rq_size 64
core_0_l1i_wq_size 64
core_0_l1i_pq_size 32
core_0_l1i_mshr_size 8
core_0_l1i_hit_latency 2
core_0_l1i_fill_latency 2
core_0_l1i_max_tag_check 2
core_0_l1i_max_fill 2
core_0_l1d_set 64
core_0_l1d_way 12
core_0_l1d_rq_size 64
core_0_l1d_wq_size 64
core_0_l1d_pq_size 8
core_0_l1d_mshr_size 16
core_0_l1d_hit_latency 2
core_0_l1d_fill_latency 3
core_0_l1d_max_tag_check 2
core_0_l1d_max_fill 2
core_0_l2c_set 1024
core_0_l2c_way 8
core_0_l2c_rq_size 32
core_0_l2c_wq_size 32
core_0_l2c_pq_size 16
core_0_l2c_mshr_size 32
core_0_l2c_hit_latency 5
core_0_l2c_fill_latency 5
core_0_l2c_max_tag_check 1
core_0_l2c_max_fill 1
llc_set 2048
llc_way 16
llc_rq_size 32
llc_wq_size 32
llc_pq_size 32
llc_mshr_size 64
llc_hit_latency 10
llc_fill_latency 10
llc_max_tag_check 1
llc_max_fill 1
dram_channels 1
dram_ranks 1
dram_bankgroups 8
dram_banks 4
dram_rows 65536
dram_columns 1024
dram_channel_width 8
dram_rq_size 64
dram_wq_size 64
dram_size 17179869184
core_0_itlb_prefetcher no
core_0_dtlb_prefetcher no
core_0_stlb_prefetcher no
core_0_l1i_prefetcher no
core_0_l1d_prefetcher no
core_0_l2c_prefetcher no
llc_prefetcher no
llc_replacement drrip

Core_0_instructions 100000001
Core_0_cycles 43906770
Core_0_IPC 2.27755
Core_0_branch_prediction_accuracy 91.8261
Core_0_branch_MPKI 0.72812
Core_0_average_ROB_occupancy_at_mispredict 219.31

Core_0_ITLB_total_access 12860336
Core_0_ITLB_total_hit 12860336
Core_0_ITLB_total_miss 0
Core_0_ITLB_total_MPKI 0
Core_0_ITLB_total_miss_rate 0
Core_0_ITLB_demand_access 12860336
Core_0_ITLB_demand_hit 12860336
Core_0_ITLB_demand_miss 0
Core_0_ITLB_demand_MPKI 0
Core_0_ITLB_demand_miss_rate 0
Core_0_ITLB_load_access 12860336
Core_0_ITLB_load_hit 12860336
Core_0_ITLB_load_miss 0
Core_0_ITLB_load_MPKI 0
Core_0_ITLB_load_miss_rate 0
Core_0_ITLB_rfo_access 0
Core_0_ITLB_rfo_hit 0
Core_0_ITLB_rfo_miss 0
Core_0_ITLB_rfo_MPKI 0
Core_0_ITLB_rfo_miss_rate 0
Core_0_ITLB_prefetch_access 0
Core_0_ITLB_prefetch_hit 0
Core_0_ITLB_prefetch_miss 0
Core_0_ITLB_prefetch_MPKI 0
Core_0_ITLB_prefetch_miss_rate 0
Core_0_ITLB_writeback_access 0
Core_0_ITLB_writeback_hit 0
Core_0_ITLB_writeback_miss 0
Core_0_ITLB_writeback_MPKI 0
Core_0_ITLB_writeback_miss_rate 0
Core_0_ITLB_prefetch_requested 0
Core_0_ITLB_prefetch_issued 0
Core_0_ITLB_prefetch_useful 0
Core_0_ITLB_prefetch_useless 0
Core_0_ITLB_prefetch_late 0
Core_0_ITLB_prefetch_accuracy 0
Core_0_ITLB_prefetch_coverage 0

Core_0_DTLB_total_access 31475944
Core_0_DTLB_total_hit 27060716
Core_0_DTLB_total_miss 4415228
Core_0_DTLB_total_MPKI 44.1523
Core_0_DTLB_total_miss_rate 0.140273
Core_0_DTLB_demand_access 31475944
Core_0_DTLB_demand_hit 27060716
Core_0_DTLB_demand_miss 4415228
Core_0_DTLB_demand_MPKI 44.1523
Core_0_DTLB_demand_miss_rate 0.140273
Core_0_DTLB_load_access 31475944
Core_0_DTLB_load_hit 27060716
Core_0_DTLB_load_miss 4415228
Core_0_DTLB_load_MPKI 44.1523
Core_0_DTLB_load_miss_rate 0.140273
Core_0_DTLB_rfo_access 0
Core_0_DTLB_rfo_hit 0
Core_0_DTLB_rfo_miss 0
Core_0_DTLB_rfo_MPKI 0
Core_0_DTLB_rfo_miss_rate 0
Core_0_DTLB_prefetch_access 0
Core_0_DTLB_prefetch_hit 0
Core_0_DTLB_prefetch_miss 0
Core_0_DTLB_prefetch_MPKI 0
Core_0_DTLB_prefetch_miss_rate 0
Core_0_DTLB_writeback_access 0
Core_0_DTLB_writeback_hit 0
Core_0_DTLB_writeback_miss 0
Core_0_DTLB_writeback_MPKI 0
Core_0_DTLB_writeback_miss_rate 0
Core_0_DTLB_prefetch_requested 0
Core_0_DTLB_prefetch_issued 0
Core_0_DTLB_prefetch_useful 0
Core_0_DTLB_prefetch_useless 0
Core_0_DTLB_prefetch_late 0
Core_0_DTLB_prefetch_accuracy 0
Core_0_DTLB_prefetch_coverage 0

Core_0_STLB_total_access 3862516
Core_0_STLB_total_hit 3858258
Core_0_STLB_total_miss 4258
Core_0_STLB_total_MPKI 0.04258
Core_0_STLB_total_miss_rate 0.00110239
Core_0_STLB_demand_access 3862516
Core_0_STLB_demand_hit 3858258
Core_0_STLB_demand_miss 4258
Core_0_STLB_demand_MPKI 0.04258
Core_0_STLB_demand_miss_rate 0.00110239
Core_0_STLB_load_access 3862516
Core_0_STLB_load_hit 3858258
Core_0_STLB_load_miss 4258
Core_0_STLB_load_MPKI 0.04258
Core_0_STLB_load_miss_rate 0.00110239
Core_0_STLB_rfo_access 0
Core_0_STLB_rfo_hit 0
Core_0_STLB_rfo_miss 0
Core_0_STLB_rfo_MPKI 0
Core_0_STLB_rfo_miss_rate 0
Core_0_STLB_prefetch_access 0
Core_0_STLB_prefetch_hit 0
Core_0_STLB_prefetch_miss 0
Core_0_STLB_prefetch_MPKI 0
Core_0_STLB_prefetch_miss_rate 0
Core_0_STLB_writeback_access 0
Core_0_STLB_writeback_hit 0
Core_0_STLB_writeback_miss 0
Core_0_STLB_writeback_MPKI 0
Core_0_STLB_writeback_miss_rate 0
Core_0_STLB_prefetch_requested 0
Core_0_STLB_prefetch_issued 0
Core_0_STLB_prefetch_useful 0
Core_0_STLB_prefetch_useless 0
Core_0_STLB_prefetch_late 0
Core_0_STLB_prefetch_accuracy 0
Core_0_STLB_prefetch_coverage 0

Core_0_L1I_total_access 17789621
Core_0_L1I_total_hit 13438130
Core_0_L1I_total_miss 4351491
Core_0_L1I_total_MPKI 43.5149
Core_0_L1I_total_miss_rate 0.244608
Core_0_L1I_demand_access 17789621
Core_0_L1I_demand_hit 13438130
Core_0_L1I_demand_miss 4351491
Core_0_L1I_demand_MPKI 43.5149
Core_0_L1I_demand_miss_rate 0.244608
Core_0_L1I_load_access 17789621
Core_0_L1I_load_hit 13438130
Core_0_L1I_load_miss 4351491
Core_0_L1I_load_MPKI 43.5149
Core_0_L1I_load_miss_rate 0.244608
Core_0_L1I_rfo_access 0
Core_0_L1I_rfo_hit 0
Core_0_L1I_rfo_miss 0
Core_0_L1I_rfo_MPKI 0
Core_0_L1I_rfo_miss_rate 0
Core_0_L1I_prefetch_access 0
Core_0_L1I_prefetch_hit 0
Core_0_L1I_prefetch_miss 0
Core_0_L1I_prefetch_MPKI 0
Core_0_L1I_prefetch_miss_rate 0
Core_0_L1I_writeback_access 0
Core_0_L1I_writeback_hit 0
Core_0_L1I_writeback_miss 0
Core_0_L1I_writeback_MPKI 0
Core_0_L1I_writeback_miss_rate 0
Core_0_L1I_prefetch_requested 0
Core_0_L1I_prefetch_issued 0
Core_0_L1I_prefetch_useful 0
Core_0_L1I_prefetch_useless 0
Core_0_L1I_prefetch_late 0
Core_0_L1I_prefetch_accuracy 0
Core_0_L1I_prefetch_coverage 0

Core_0_L1D_total_access 33396291
Core_0_L1D_total_hit 25921859
Core_0_L1D_total_miss 7474432
Core_0_L1D_total_MPKI 74.7443
Core_0_L1D_total_miss_rate 0.22381
Core_0_L1D_demand_access 25536111
Core_0_L1D_demand_hit 18751984
Core_0_L1D_demand_miss 6784127
Core_0_L1D_demand_MPKI 67.8413
Core_0_L1D_demand_miss_rate 0.265668
Core_0_L1D_load_access 25536111
Core_0_L1D_load_hit 18751984
Core_0_L1D_load_miss 6784127
Core_0_L1D_load_MPKI 67.8413
Core_0_L1D_load_miss_rate 0.265668
Core_0_L1D_rfo_access 0
Core_0_L1D_rfo_hit 0
Core_0_L1D_rfo_miss 0
Core_0_L1D_rfo_MPKI 0
Core_0_L1D_rfo_miss_rate 0
Core_0_L1D_prefetch_access 0
Core_0_L1D_prefetch_hit 0
Core_0_L1D_prefetch_miss 0
Core_0_L1D_prefetch_MPKI 0
Core_0_L1D_prefetch_miss_rate 0
Core_0_L1D_writeback_access 7860180
Core_0_L1D_writeback_hit 7169875
Core_0_L1D_writeback_miss 690305
Core_0_L1D_writeback_MPKI 6.90305
Core_0_L1D_writeback_miss_rate 0.0878231
Core_0_L1D_prefetch_requested 0
Core_0_L1D_prefetch_issued 0
Core_0_L1D_prefetch_useful 0
Core_0_L1D_prefetch_useless 0
Core_0_L1D_prefetch_late 0
Core_0_L1D_prefetch_accuracy 0
Core_0_L1D_prefetch_coverage 0

Core_0_L2C_total_access 10537256
Core_0_L2C_total_hit 9998121
Core_0_L2C_total_miss 539135
Core_0_L2C_total_MPKI 5.39135
Core_0_L2C_total_miss_rate 0.0511646
Core_0_L2C_demand_access 9858010
Core_0_L2C_demand_hit 9318974
Core_0_L2C_demand_miss 539036
Core_0_L2C_demand_MPKI 5.39036
Core_0_L2C_demand_miss_rate 0.05468
Core_0_L2C_load_access 9236276
Core_0_L2C_load_hit 8758155
Core_0_L2C_load_miss 478121
Core_0_L2C_load_MPKI 4.78121
Core_0_L2C_load_miss_rate 0.0517656
Core_0_L2C_rfo_access 621734
Core_0_L2C_rfo_hit 560819
Core_0_L2C_rfo_miss 60915
Core_0_L2C_rfo_MPKI 0.60915
Core_0_L2C_rfo_miss_rate 0.097976
Core_0_L2C_prefetch_access 0
Core_0_L2C_prefetch_hit 0
Core_0_L2C_prefetch_miss 0
Core_0_L2C_prefetch_MPKI 0
Core_0_L2C_prefetch_miss_rate 0
Core_0_L2C_writeback_access 679246
Core_0_L2C_writeback_hit 679147
Core_0_L2C_writeback_miss 99
Core_0_L2C_writeback_MPKI 0.00099
Core_0_L2C_writeback_miss_rate 0.00014575
Core_0_L2C_prefetch_requested 0
Core_0_L2C_prefetch_issued 0
Core_0_L2C_prefetch_useful 0
Core_0_L2C_prefetch_useless 0
Core_0_L2C_prefetch_late 0
Core_0_L2C_prefetch_accuracy 0
Core_0_L2C_prefetch_coverage 0

Core_0_LLC_total_access 599830
Core_0_LLC_total_hit 292276
Core_0_LLC_total_miss 307554
Core_0_LLC_total_MPKI 3.07554
Core_0_LLC_total_miss_rate 0.512735
Core_0_LLC_demand_access 538941
Core_0_LLC_demand_hit 238816
Core_0_LLC_demand_miss 300125
Core_0_LLC_demand_MPKI 3.00125
Core_0_LLC_demand_miss_rate 0.556879
Core_0_LLC_load_access 478121
Core_0_LLC_load_hit 236862
Core_0_LLC_load_miss 241259
Core_0_LLC_load_MPKI 2.41259
Core_0_LLC_load_miss_rate 0.504598
Core_0_LLC_rfo_access 60820
Core_0_LLC_rfo_hit 1954
Core_0_LLC_rfo_miss 58866
Core_0_LLC_rfo_MPKI 0.58866
Core_0_LLC_rfo_miss_rate 0.967872
Core_0_LLC_prefetch_access 0
Core_0_LLC_prefetch_hit 0
Core_0_LLC_prefetch_miss 0
Core_0_LLC_prefetch_MPKI 0
Core_0_LLC_prefetch_miss_rate 0
Core_0_LLC_writeback_access 60889
Core_0_LLC_writeback_hit 53460
Core_0_LLC_writeback_miss 7429
Core_0_LLC_writeback_MPKI 0.07429
Core_0_LLC_writeback_miss_rate 0.122009
Core_0_LLC_prefetch_requested 0
Core_0_LLC_prefetch_issued 0
Core_0_LLC_prefetch_useful 0
Core_0_LLC_prefetch_useless 0
Core_0_LLC_prefetch_late 0
Core_0_LLC_prefetch_accuracy 0
Core_0_LLC_prefetch_coverage 0

[DRAM Statistics]
Channel_0_RQ_row_buffer_hit 135
Channel_0_RQ_row_buffer_miss 300963
Channel_0_WQ_row_buffer_hit 5269
Channel_0_WQ_row_buffer_miss 53259
Channel_0_WQ_full 0
Channel_0_dbus_congested 574243
DRAM_total_RQ_row_buffer_hit 135
DRAM_total_RQ_row_buffer_miss 300963
DRAM_total_WQ_row_buffer_hit 5269
DRAM_total_WQ_row_buffer_miss 53259
DRAM_total_WQ_full 0
DRAM_total_dbus_congested 574243
DRAM_avg_congested_cycle 6.90503

====== DRAM_RQ_TRAFFIC ========
DRAM_RQ_READ_TRAFFIC_BREAKDOWN:
data_demand_read.count = 299994
data_demand_read.share = 99.63%

inst_demand_read.count = 131
inst_demand_read.share = 0.04%

cache_inst_prefetch.count = 0
cache_inst_prefetch.share = 0.00%

cache_data_prefetch.count = 0
cache_data_prefetch.share = 0.00%

stlb_data_demand.count = 973
stlb_data_demand.share = 0.32%

stlb_inst_demand.count = 0
stlb_inst_demand.share = 0.00%

stlb_l1i_pref.count = 0
stlb_l1i_pref.share = 0.00%

stlb_l1d_pref.count = 0
stlb_l1d_pref.share = 0.00%

DRAM_RQ_READ_TRAFFIC_SUMMARY:
cache_demand.count = 300125
cache_demand.share = 99.68%

cache_prefetch.count = 0
cache_prefetch.share = 0.00%

stlb_demand.count = 973
stlb_demand.share = 0.32%

stlb_prefetch.count = 0
stlb_prefetch.share = 0.00%

DRAM_RQ_READ_TRAFFIC_DEBUG:
total_classified_read.count = 301098
unclassified_read.count = 0
total_read_with_other.count = 301098

classified_plus_unclassified_check.count = 301098
dram_rq_read_total_observed.count = 301098
dram_rq_read_total_observed.per_1K_instructions = 3.01098

STLB_MISS_PTW_DRAM_TOUCH_BREAKDOWN:
stlb_miss_total.count = 4258

stlb_miss_touch_dram.count = 971
stlb_miss_touch_dram.share = 22.80%

stlb_miss_no_dram_touch.count = 3287
stlb_miss_no_dram_touch.share = 77.20%

STLB_MISS_PTW_DRAM_TOUCH_DEBUG:
stlb_miss_touch_plus_no_touch.count = 4258
stlb_miss_total_check.count = 4258

======STLB miss causes ========
Core_0_STLB_miss_cause_breakdown
Core_0_STLB_cause_Demand_Data_miss 4258
Core_0_STLB_cause_Demand_Data_miss_rate 0.00110239
Core_0_STLB_cause_Demand_Instruction_miss 0
Core_0_STLB_cause_Demand_Instruction_miss_rate 0
Core_0_STLB_cause_L1D_Prefetch_miss 0
Core_0_STLB_cause_L1D_Prefetch_miss_rate 0
Core_0_STLB_cause_L1I_Prefetch_miss 0
Core_0_STLB_cause_L1I_Prefetch_miss_rate 0
Core_0_STLB_cause_Other_miss 0
Core_0_STLB_cause_Other_miss_rate 0
Core_0_STLB_Demand_miss 4258
Core_0_STLB_Demand_miss_rate 0.00110239
Core_0_STLB_L1D_Prefetch_miss 0
Core_0_STLB_L1D_Prefetch_miss_rate 0
Core_0_STLB_Other_miss 0
Core_0_STLB_Other_miss_rate 0
