[VMEM] WARNING: physical memory size is smaller than virtual memory size.

*** ChampSim Multicore Out-of-Order Simulator ***
Warmup Instructions: 50000000
Simulation Instructions: 100000000
Number of CPUs: 1
Page size: 4096
Core 0: /data0/tzh/champsim_traces/SPEC17/623.xalancbmk_s-10B.champsimtrace.xz
Off-chip DRAM Size: 16 GiB Channels: 1 Width: 64-bit Data Rate: 3205 MT/s
Warmup halting CPU 0 at instruction 50000004 cycle 11934224 for remainder of phase
Warmup finished CPU 0 instructions: 50000004 cycles: 11934224 cumulative IPC: 4.19 (Simulation time: 00 hr 02 min 22 sec)
Warmup complete CPU 0 instructions: 50000004 cycles: 11934224 cumulative IPC: 4.19 (Simulation time: 00 hr 02 min 22 sec)
Simulation finished CPU 0 instructions: 100000004 cycles: 151749323 cumulative IPC: 0.659 (Simulation time: 00 hr 19 min 45 sec)
Simulation complete CPU 0 instructions: 100000004 cycles: 151749323 cumulative IPC: 0.659 (Simulation time: 00 hr 19 min 45 sec)

ChampSim completed all CPUs

=== Simulation ===
CPU 0 runs /data0/tzh/champsim_traces/SPEC17/623.xalancbmk_s-10B.champsimtrace.xz

Region of Interest Statistics

CPU 0 cumulative IPC: 0.659 instructions: 100000004 cycles: 151749323
CPU 0 Branch Prediction Accuracy: 99.28% MPKI: 1.862 Average ROB Occupancy at Mispredict: 102.9
Branch type MPKI
BRANCH_DIRECT_JUMP: 0.09703
BRANCH_INDIRECT: 0.018
BRANCH_CONDITIONAL: 1.23
BRANCH_DIRECT_CALL: 9e-05
BRANCH_INDIRECT_CALL: 0.1243
BRANCH_RETURN: 0.3927

cpu0->cpu0_STLB TOTAL        ACCESS:     724043 HIT:     242865 MISS:     481178 MSHR_MERGE:          0
cpu0->cpu0_STLB LOAD         ACCESS:     724043 HIT:     242865 MISS:     481178 MSHR_MERGE:          0
cpu0->cpu0_STLB RFO          ACCESS:          0 HIT:          0 MISS:          0 MSHR_MERGE:          0
cpu0->cpu0_STLB PREFETCH     ACCESS:          0 HIT:          0 MISS:          0 MSHR_MERGE:          0
cpu0->cpu0_STLB WRITE        ACCESS:          0 HIT:          0 MISS:          0 MSHR_MERGE:          0
cpu0->cpu0_STLB TRANSLATION  ACCESS:          0 HIT:          0 MISS:          0 MSHR_MERGE:          0
cpu0->cpu0_STLB PREFETCH REQUESTED:          0 ISSUED:          0 USEFUL:          0 USELESS:          0 LATE:          0
cpu0->cpu0_STLB AVERAGE MISS LATENCY: 44.35 cycles
cpu0->cpu0_L2C TOTAL        ACCESS:    3213914 HIT:     649736 MISS:    2564178 MSHR_MERGE:          0
cpu0->cpu0_L2C LOAD         ACCESS:    2970201 HIT:     549049 MISS:    2421152 MSHR_MERGE:          0
cpu0->cpu0_L2C RFO          ACCESS:      42714 HIT:      14819 MISS:      27895 MSHR_MERGE:          0
cpu0->cpu0_L2C PREFETCH     ACCESS:          0 HIT:          0 MISS:          0 MSHR_MERGE:          0
cpu0->cpu0_L2C WRITE        ACCESS:      80084 HIT:      79734 MISS:        350 MSHR_MERGE:          0
cpu0->cpu0_L2C TRANSLATION  ACCESS:     120915 HIT:       6134 MISS:     114781 MSHR_MERGE:          0
cpu0->cpu0_L2C PREFETCH REQUESTED:          0 ISSUED:          0 USEFUL:          0 USELESS:          0 LATE:          0
cpu0->cpu0_L2C AVERAGE MISS LATENCY: 119.5 cycles
cpu0->cpu0_L1I TOTAL        ACCESS:   15059442 HIT:   14536904 MISS:     522538 MSHR_MERGE:     165843
cpu0->cpu0_L1I LOAD         ACCESS:   15059442 HIT:   14536904 MISS:     522538 MSHR_MERGE:     165843
cpu0->cpu0_L1I RFO          ACCESS:          0 HIT:          0 MISS:          0 MSHR_MERGE:          0
cpu0->cpu0_L1I PREFETCH     ACCESS:          0 HIT:          0 MISS:          0 MSHR_MERGE:          0
cpu0->cpu0_L1I WRITE        ACCESS:          0 HIT:          0 MISS:          0 MSHR_MERGE:          0
cpu0->cpu0_L1I TRANSLATION  ACCESS:          0 HIT:          0 MISS:          0 MSHR_MERGE:          0
cpu0->cpu0_L1I PREFETCH REQUESTED:          0 ISSUED:          0 USEFUL:          0 USELESS:          0 LATE:          0
cpu0->cpu0_L1I AVERAGE MISS LATENCY: 11.96 cycles
cpu0->cpu0_L1D TOTAL        ACCESS:   26769518 HIT:   21170460 MISS:    5599058 MSHR_MERGE:    2821922
cpu0->cpu0_L1D LOAD         ACCESS:   20910843 HIT:   15700596 MISS:    5210247 MSHR_MERGE:    2596740
cpu0->cpu0_L1D RFO          ACCESS:          0 HIT:          0 MISS:          0 MSHR_MERGE:          0
cpu0->cpu0_L1D PREFETCH     ACCESS:          0 HIT:          0 MISS:          0 MSHR_MERGE:          0
cpu0->cpu0_L1D WRITE        ACCESS:    4921233 HIT:    4666013 MISS:     255220 MSHR_MERGE:     212506
cpu0->cpu0_L1D TRANSLATION  ACCESS:     937442 HIT:     803851 MISS:     133591 MSHR_MERGE:      12676
cpu0->cpu0_L1D PREFETCH REQUESTED:          0 ISSUED:          0 USEFUL:          0 USELESS:          0 LATE:          0
cpu0->cpu0_L1D AVERAGE MISS LATENCY: 118.8 cycles
cpu0->cpu0_ITLB TOTAL        ACCESS:   13583331 HIT:   13418281 MISS:     165050 MSHR_MERGE:      99125
cpu0->cpu0_ITLB LOAD         ACCESS:   13583331 HIT:   13418281 MISS:     165050 MSHR_MERGE:      99125
cpu0->cpu0_ITLB RFO          ACCESS:          0 HIT:          0 MISS:          0 MSHR_MERGE:          0
cpu0->cpu0_ITLB PREFETCH     ACCESS:          0 HIT:          0 MISS:          0 MSHR_MERGE:          0
cpu0->cpu0_ITLB WRITE        ACCESS:          0 HIT:          0 MISS:          0 MSHR_MERGE:          0
cpu0->cpu0_ITLB TRANSLATION  ACCESS:          0 HIT:          0 MISS:          0 MSHR_MERGE:          0
cpu0->cpu0_ITLB PREFETCH REQUESTED:          0 ISSUED:          0 USEFUL:          0 USELESS:          0 LATE:          0
cpu0->cpu0_ITLB AVERAGE MISS LATENCY: 7.705 cycles
cpu0->cpu0_DTLB TOTAL        ACCESS:   25158597 HIT:   23685410 MISS:    1473187 MSHR_MERGE:     815069
cpu0->cpu0_DTLB LOAD         ACCESS:   25158597 HIT:   23685410 MISS:    1473187 MSHR_MERGE:     815069
cpu0->cpu0_DTLB RFO          ACCESS:          0 HIT:          0 MISS:          0 MSHR_MERGE:          0
cpu0->cpu0_DTLB PREFETCH     ACCESS:          0 HIT:          0 MISS:          0 MSHR_MERGE:          0
cpu0->cpu0_DTLB WRITE        ACCESS:          0 HIT:          0 MISS:          0 MSHR_MERGE:          0
cpu0->cpu0_DTLB TRANSLATION  ACCESS:          0 HIT:          0 MISS:          0 MSHR_MERGE:          0
cpu0->cpu0_DTLB PREFETCH REQUESTED:          0 ISSUED:          0 USEFUL:          0 USELESS:          0 LATE:          0
cpu0->cpu0_DTLB AVERAGE MISS LATENCY: 37.89 cycles
cpu0->LLC TOTAL        ACCESS:    2606839 HIT:    1278439 MISS:    1328400 MSHR_MERGE:          0
cpu0->LLC LOAD         ACCESS:    2421152 HIT:    1182571 MISS:    1238581 MSHR_MERGE:          0
cpu0->LLC RFO          ACCESS:      27895 HIT:       8306 MISS:      19589 MSHR_MERGE:          0
cpu0->LLC PREFETCH     ACCESS:          0 HIT:          0 MISS:          0 MSHR_MERGE:          0
cpu0->LLC WRITE        ACCESS:      43011 HIT:      30580 MISS:      12431 MSHR_MERGE:          0
cpu0->LLC TRANSLATION  ACCESS:     114781 HIT:      56982 MISS:      57799 MSHR_MERGE:          0
cpu0->LLC PREFETCH REQUESTED:          0 ISSUED:          0 USEFUL:          0 USELESS:          0 LATE:          0
cpu0->LLC AVERAGE MISS LATENCY: 200.9 cycles

DRAM Statistics

Channel 0 RQ ROW_BUFFER_HIT:      13900
  ROW_BUFFER_MISS:    1302066
  AVG DBUS CONGESTED CYCLE: 8.944
Channel 0 WQ ROW_BUFFER_HIT:       9744
  ROW_BUFFER_MISS:      14089
  FULL:          0
Channel 0 REFRESHES ISSUED:      12646

[ROI Statistics]
[System Configuration]
num_cpus 1
cpu_freq 4000
fetch_width 6
decode_width 6
dispatch_width 6
execute_width 6
lq_width 2
sq_width 2
retire_width 6
scheduler_size 128
branch_mispredict_penalty 15
rob_size 352
lq_size 128
sq_size 72
ifetch_buffer_size 64
decode_buffer_size 32
dispatch_buffer_size 32
register_file_size 288
decode_latency 1
dispatch_latency 1
schedule_latency 1
execute_latency 1
page_size 4096
block_size 64
core_0_itlb_set 16
core_0_itlb_way 4
core_0_itlb_rq_size 16
core_0_itlb_wq_size 16
core_0_itlb_pq_size 0
core_0_itlb_mshr_size 8
core_0_itlb_hit_latency 1
core_0_itlb_fill_latency 1
core_0_itlb_max_tag_check 2
core_0_itlb_max_fill 2
core_0_dtlb_set 16
core_0_dtlb_way 4
core_0_dtlb_rq_size 16
core_0_dtlb_wq_size 16
core_0_dtlb_pq_size 0
core_0_dtlb_mshr_size 8
core_0_dtlb_hit_latency 1
core_0_dtlb_fill_latency 1
core_0_dtlb_max_tag_check 2
core_0_dtlb_max_fill 2
core_0_stlb_set 128
core_0_stlb_way 12
core_0_stlb_rq_size 32
core_0_stlb_wq_size 32
core_0_stlb_pq_size 0
core_0_stlb_mshr_size 16
core_0_stlb_hit_latency 4
core_0_stlb_fill_latency 4
core_0_stlb_max_tag_check 1
core_0_stlb_max_fill 1
core_0_l1i_set 64
core_0_l1i_way 8
core_0_l1i_rq_size 64
core_0_l1i_wq_size 64
core_0_l1i_pq_size 32
core_0_l1i_mshr_size 8
core_0_l1i_hit_latency 2
core_0_l1i_fill_latency 2
core_0_l1i_max_tag_check 2
core_0_l1i_max_fill 2
core_0_l1d_set 64
core_0_l1d_way 12
core_0_l1d_rq_size 64
core_0_l1d_wq_size 64
core_0_l1d_pq_size 8
core_0_l1d_mshr_size 16
core_0_l1d_hit_latency 2
core_0_l1d_fill_latency 3
core_0_l1d_max_tag_check 2
core_0_l1d_max_fill 2
core_0_l2c_set 1024
core_0_l2c_way 8
core_0_l2c_rq_size 32
core_0_l2c_wq_size 32
core_0_l2c_pq_size 16
core_0_l2c_mshr_size 32
core_0_l2c_hit_latency 5
core_0_l2c_fill_latency 5
core_0_l2c_max_tag_check 1
core_0_l2c_max_fill 1
llc_set 2048
llc_way 16
llc_rq_size 32
llc_wq_size 32
llc_pq_size 32
llc_mshr_size 64
llc_hit_latency 10
llc_fill_latency 10
llc_max_tag_check 1
llc_max_fill 1
dram_channels 1
dram_ranks 1
dram_bankgroups 8
dram_banks 4
dram_rows 65536
dram_columns 1024
dram_channel_width 8
dram_rq_size 64
dram_wq_size 64
dram_size 17179869184
core_0_itlb_prefetcher no
core_0_dtlb_prefetcher no
core_0_stlb_prefetcher no
core_0_l1i_prefetcher no
core_0_l1d_prefetcher no
core_0_l2c_prefetcher no
llc_prefetcher no
llc_replacement drrip

Core_0_instructions 100000004
Core_0_cycles 151749323
Core_0_IPC 0.658982
Core_0_branch_prediction_accuracy 99.2798
Core_0_branch_MPKI 1.86203
Core_0_average_ROB_occupancy_at_mispredict 102.943

Core_0_ITLB_total_access 13583331
Core_0_ITLB_total_hit 13418281
Core_0_ITLB_total_miss 165050
Core_0_ITLB_total_MPKI 1.6505
Core_0_ITLB_total_miss_rate 0.0121509
Core_0_ITLB_demand_access 13583331
Core_0_ITLB_demand_hit 13418281
Core_0_ITLB_demand_miss 165050
Core_0_ITLB_demand_MPKI 1.6505
Core_0_ITLB_demand_miss_rate 0.0121509
Core_0_ITLB_load_access 13583331
Core_0_ITLB_load_hit 13418281
Core_0_ITLB_load_miss 165050
Core_0_ITLB_load_MPKI 1.6505
Core_0_ITLB_load_miss_rate 0.0121509
Core_0_ITLB_rfo_access 0
Core_0_ITLB_rfo_hit 0
Core_0_ITLB_rfo_miss 0
Core_0_ITLB_rfo_MPKI 0
Core_0_ITLB_rfo_miss_rate 0
Core_0_ITLB_prefetch_access 0
Core_0_ITLB_prefetch_hit 0
Core_0_ITLB_prefetch_miss 0
Core_0_ITLB_prefetch_MPKI 0
Core_0_ITLB_prefetch_miss_rate 0
Core_0_ITLB_writeback_access 0
Core_0_ITLB_writeback_hit 0
Core_0_ITLB_writeback_miss 0
Core_0_ITLB_writeback_MPKI 0
Core_0_ITLB_writeback_miss_rate 0
Core_0_ITLB_prefetch_requested 0
Core_0_ITLB_prefetch_issued 0
Core_0_ITLB_prefetch_useful 0
Core_0_ITLB_prefetch_useless 0
Core_0_ITLB_prefetch_late 0
Core_0_ITLB_prefetch_accuracy 0
Core_0_ITLB_prefetch_coverage 0

Core_0_DTLB_total_access 25158597
Core_0_DTLB_total_hit 23685410
Core_0_DTLB_total_miss 1473187
Core_0_DTLB_total_MPKI 14.7319
Core_0_DTLB_total_miss_rate 0.058556
Core_0_DTLB_demand_access 25158597
Core_0_DTLB_demand_hit 23685410
Core_0_DTLB_demand_miss 1473187
Core_0_DTLB_demand_MPKI 14.7319
Core_0_DTLB_demand_miss_rate 0.058556
Core_0_DTLB_load_access 25158597
Core_0_DTLB_load_hit 23685410
Core_0_DTLB_load_miss 1473187
Core_0_DTLB_load_MPKI 14.7319
Core_0_DTLB_load_miss_rate 0.058556
Core_0_DTLB_rfo_access 0
Core_0_DTLB_rfo_hit 0
Core_0_DTLB_rfo_miss 0
Core_0_DTLB_rfo_MPKI 0
Core_0_DTLB_rfo_miss_rate 0
Core_0_DTLB_prefetch_access 0
Core_0_DTLB_prefetch_hit 0
Core_0_DTLB_prefetch_miss 0
Core_0_DTLB_prefetch_MPKI 0
Core_0_DTLB_prefetch_miss_rate 0
Core_0_DTLB_writeback_access 0
Core_0_DTLB_writeback_hit 0
Core_0_DTLB_writeback_miss 0
Core_0_DTLB_writeback_MPKI 0
Core_0_DTLB_writeback_miss_rate 0
Core_0_DTLB_prefetch_requested 0
Core_0_DTLB_prefetch_issued 0
Core_0_DTLB_prefetch_useful 0
Core_0_DTLB_prefetch_useless 0
Core_0_DTLB_prefetch_late 0
Core_0_DTLB_prefetch_accuracy 0
Core_0_DTLB_prefetch_coverage 0

Core_0_STLB_total_access 724043
Core_0_STLB_total_hit 242865
Core_0_STLB_total_miss 481178
Core_0_STLB_total_MPKI 4.81178
Core_0_STLB_total_miss_rate 0.664571
Core_0_STLB_demand_access 724043
Core_0_STLB_demand_hit 242865
Core_0_STLB_demand_miss 481178
Core_0_STLB_demand_MPKI 4.81178
Core_0_STLB_demand_miss_rate 0.664571
Core_0_STLB_load_access 724043
Core_0_STLB_load_hit 242865
Core_0_STLB_load_miss 481178
Core_0_STLB_load_MPKI 4.81178
Core_0_STLB_load_miss_rate 0.664571
Core_0_STLB_rfo_access 0
Core_0_STLB_rfo_hit 0
Core_0_STLB_rfo_miss 0
Core_0_STLB_rfo_MPKI 0
Core_0_STLB_rfo_miss_rate 0
Core_0_STLB_prefetch_access 0
Core_0_STLB_prefetch_hit 0
Core_0_STLB_prefetch_miss 0
Core_0_STLB_prefetch_MPKI 0
Core_0_STLB_prefetch_miss_rate 0
Core_0_STLB_writeback_access 0
Core_0_STLB_writeback_hit 0
Core_0_STLB_writeback_miss 0
Core_0_STLB_writeback_MPKI 0
Core_0_STLB_writeback_miss_rate 0
Core_0_STLB_prefetch_requested 0
Core_0_STLB_prefetch_issued 0
Core_0_STLB_prefetch_useful 0
Core_0_STLB_prefetch_useless 0
Core_0_STLB_prefetch_late 0
Core_0_STLB_prefetch_accuracy 0
Core_0_STLB_prefetch_coverage 0

Core_0_L1I_total_access 15059442
Core_0_L1I_total_hit 14536904
Core_0_L1I_total_miss 522538
Core_0_L1I_total_MPKI 5.22538
Core_0_L1I_total_miss_rate 0.0346984
Core_0_L1I_demand_access 15059442
Core_0_L1I_demand_hit 14536904
Core_0_L1I_demand_miss 522538
Core_0_L1I_demand_MPKI 5.22538
Core_0_L1I_demand_miss_rate 0.0346984
Core_0_L1I_load_access 15059442
Core_0_L1I_load_hit 14536904
Core_0_L1I_load_miss 522538
Core_0_L1I_load_MPKI 5.22538
Core_0_L1I_load_miss_rate 0.0346984
Core_0_L1I_rfo_access 0
Core_0_L1I_rfo_hit 0
Core_0_L1I_rfo_miss 0
Core_0_L1I_rfo_MPKI 0
Core_0_L1I_rfo_miss_rate 0
Core_0_L1I_prefetch_access 0
Core_0_L1I_prefetch_hit 0
Core_0_L1I_prefetch_miss 0
Core_0_L1I_prefetch_MPKI 0
Core_0_L1I_prefetch_miss_rate 0
Core_0_L1I_writeback_access 0
Core_0_L1I_writeback_hit 0
Core_0_L1I_writeback_miss 0
Core_0_L1I_writeback_MPKI 0
Core_0_L1I_writeback_miss_rate 0
Core_0_L1I_prefetch_requested 0
Core_0_L1I_prefetch_issued 0
Core_0_L1I_prefetch_useful 0
Core_0_L1I_prefetch_useless 0
Core_0_L1I_prefetch_late 0
Core_0_L1I_prefetch_accuracy 0
Core_0_L1I_prefetch_coverage 0

Core_0_L1D_total_access 25832076
Core_0_L1D_total_hit 20366609
Core_0_L1D_total_miss 5465467
Core_0_L1D_total_MPKI 54.6547
Core_0_L1D_total_miss_rate 0.211577
Core_0_L1D_demand_access 20910843
Core_0_L1D_demand_hit 15700596
Core_0_L1D_demand_miss 5210247
Core_0_L1D_demand_MPKI 52.1025
Core_0_L1D_demand_miss_rate 0.249165
Core_0_L1D_load_access 20910843
Core_0_L1D_load_hit 15700596
Core_0_L1D_load_miss 5210247
Core_0_L1D_load_MPKI 52.1025
Core_0_L1D_load_miss_rate 0.249165
Core_0_L1D_rfo_access 0
Core_0_L1D_rfo_hit 0
Core_0_L1D_rfo_miss 0
Core_0_L1D_rfo_MPKI 0
Core_0_L1D_rfo_miss_rate 0
Core_0_L1D_prefetch_access 0
Core_0_L1D_prefetch_hit 0
Core_0_L1D_prefetch_miss 0
Core_0_L1D_prefetch_MPKI 0
Core_0_L1D_prefetch_miss_rate 0
Core_0_L1D_writeback_access 4921233
Core_0_L1D_writeback_hit 4666013
Core_0_L1D_writeback_miss 255220
Core_0_L1D_writeback_MPKI 2.5522
Core_0_L1D_writeback_miss_rate 0.051861
Core_0_L1D_prefetch_requested 0
Core_0_L1D_prefetch_issued 0
Core_0_L1D_prefetch_useful 0
Core_0_L1D_prefetch_useless 0
Core_0_L1D_prefetch_late 0
Core_0_L1D_prefetch_accuracy 0
Core_0_L1D_prefetch_coverage 0

Core_0_L2C_total_access 3092999
Core_0_L2C_total_hit 643602
Core_0_L2C_total_miss 2449397
Core_0_L2C_total_MPKI 24.494
Core_0_L2C_total_miss_rate 0.791917
Core_0_L2C_demand_access 3012915
Core_0_L2C_demand_hit 563868
Core_0_L2C_demand_miss 2449047
Core_0_L2C_demand_MPKI 24.4905
Core_0_L2C_demand_miss_rate 0.81285
Core_0_L2C_load_access 2970201
Core_0_L2C_load_hit 549049
Core_0_L2C_load_miss 2421152
Core_0_L2C_load_MPKI 24.2115
Core_0_L2C_load_miss_rate 0.815148
Core_0_L2C_rfo_access 42714
Core_0_L2C_rfo_hit 14819
Core_0_L2C_rfo_miss 27895
Core_0_L2C_rfo_MPKI 0.27895
Core_0_L2C_rfo_miss_rate 0.653065
Core_0_L2C_prefetch_access 0
Core_0_L2C_prefetch_hit 0
Core_0_L2C_prefetch_miss 0
Core_0_L2C_prefetch_MPKI 0
Core_0_L2C_prefetch_miss_rate 0
Core_0_L2C_writeback_access 80084
Core_0_L2C_writeback_hit 79734
Core_0_L2C_writeback_miss 350
Core_0_L2C_writeback_MPKI 0.0035
Core_0_L2C_writeback_miss_rate 0.00437041
Core_0_L2C_prefetch_requested 0
Core_0_L2C_prefetch_issued 0
Core_0_L2C_prefetch_useful 0
Core_0_L2C_prefetch_useless 0
Core_0_L2C_prefetch_late 0
Core_0_L2C_prefetch_accuracy 0
Core_0_L2C_prefetch_coverage 0

Core_0_LLC_total_access 2492058
Core_0_LLC_total_hit 1221457
Core_0_LLC_total_miss 1270601
Core_0_LLC_total_MPKI 12.706
Core_0_LLC_total_miss_rate 0.50986
Core_0_LLC_demand_access 2449047
Core_0_LLC_demand_hit 1190877
Core_0_LLC_demand_miss 1258170
Core_0_LLC_demand_MPKI 12.5817
Core_0_LLC_demand_miss_rate 0.513739
Core_0_LLC_load_access 2421152
Core_0_LLC_load_hit 1182571
Core_0_LLC_load_miss 1238581
Core_0_LLC_load_MPKI 12.3858
Core_0_LLC_load_miss_rate 0.511567
Core_0_LLC_rfo_access 27895
Core_0_LLC_rfo_hit 8306
Core_0_LLC_rfo_miss 19589
Core_0_LLC_rfo_MPKI 0.19589
Core_0_LLC_rfo_miss_rate 0.702241
Core_0_LLC_prefetch_access 0
Core_0_LLC_prefetch_hit 0
Core_0_LLC_prefetch_miss 0
Core_0_LLC_prefetch_MPKI 0
Core_0_LLC_prefetch_miss_rate 0
Core_0_LLC_writeback_access 43011
Core_0_LLC_writeback_hit 30580
Core_0_LLC_writeback_miss 12431
Core_0_LLC_writeback_MPKI 0.12431
Core_0_LLC_writeback_miss_rate 0.289019
Core_0_LLC_prefetch_requested 0
Core_0_LLC_prefetch_issued 0
Core_0_LLC_prefetch_useful 0
Core_0_LLC_prefetch_useless 0
Core_0_LLC_prefetch_late 0
Core_0_LLC_prefetch_accuracy 0
Core_0_LLC_prefetch_coverage 0

[DRAM Statistics]
Channel_0_RQ_row_buffer_hit 13900
Channel_0_RQ_row_buffer_miss 1302066
Channel_0_WQ_row_buffer_hit 9744
Channel_0_WQ_row_buffer_miss 14089
Channel_0_WQ_full 0
Channel_0_dbus_congested 1415151
DRAM_total_RQ_row_buffer_hit 13900
DRAM_total_RQ_row_buffer_miss 1302066
DRAM_total_WQ_row_buffer_hit 9744
DRAM_total_WQ_row_buffer_miss 14089
DRAM_total_WQ_full 0
DRAM_total_dbus_congested 1415151
DRAM_avg_congested_cycle 8.94372

====== DRAM_RQ_TRAFFIC ========
DRAM_RQ_READ_TRAFFIC_BREAKDOWN:
data_demand_read.count = 1254804
data_demand_read.share = 95.35%

inst_demand_read.count = 3366
inst_demand_read.share = 0.26%

cache_inst_prefetch.count = 0
cache_inst_prefetch.share = 0.00%

cache_data_prefetch.count = 0
cache_data_prefetch.share = 0.00%

stlb_data_demand.count = 57476
stlb_data_demand.share = 4.37%

stlb_inst_demand.count = 323
stlb_inst_demand.share = 0.02%

stlb_l1i_pref.count = 0
stlb_l1i_pref.share = 0.00%

stlb_l1d_pref.count = 0
stlb_l1d_pref.share = 0.00%

DRAM_RQ_READ_TRAFFIC_SUMMARY:
cache_demand.count = 1258170
cache_demand.share = 95.61%

cache_prefetch.count = 0
cache_prefetch.share = 0.00%

stlb_demand.count = 57799
stlb_demand.share = 4.39%

stlb_prefetch.count = 0
stlb_prefetch.share = 0.00%

DRAM_RQ_READ_TRAFFIC_DEBUG:
total_classified_read.count = 1315969
unclassified_read.count = 0
total_read_with_other.count = 1315969

classified_plus_unclassified_check.count = 1315969
dram_rq_read_total_observed.count = 1315969
dram_rq_read_total_observed.per_1K_instructions = 13.1597

STLB_MISS_PTW_DRAM_TOUCH_BREAKDOWN:
stlb_miss_total.count = 481178

stlb_miss_touch_dram.count = 57810
stlb_miss_touch_dram.share = 12.01%

stlb_miss_no_dram_touch.count = 423368
stlb_miss_no_dram_touch.share = 87.99%

STLB_MISS_PTW_DRAM_TOUCH_DEBUG:
stlb_miss_touch_plus_no_touch.count = 481178
stlb_miss_total_check.count = 481178

======STLB miss causes ========
Core_0_STLB_miss_cause_breakdown
Core_0_STLB_cause_Demand_Data_miss 476057
Core_0_STLB_cause_Demand_Data_miss_rate 0.657498
Core_0_STLB_cause_Demand_Instruction_miss 5121
Core_0_STLB_cause_Demand_Instruction_miss_rate 0.00707278
Core_0_STLB_cause_L1D_Prefetch_miss 0
Core_0_STLB_cause_L1D_Prefetch_miss_rate 0
Core_0_STLB_cause_L1I_Prefetch_miss 0
Core_0_STLB_cause_L1I_Prefetch_miss_rate 0
Core_0_STLB_cause_Other_miss 0
Core_0_STLB_cause_Other_miss_rate 0
Core_0_STLB_Demand_miss 481178
Core_0_STLB_Demand_miss_rate 0.664571
Core_0_STLB_L1D_Prefetch_miss 0
Core_0_STLB_L1D_Prefetch_miss_rate 0
Core_0_STLB_Other_miss 0
Core_0_STLB_Other_miss_rate 0
