[VMEM] WARNING: physical memory size is smaller than virtual memory size.

*** ChampSim Multicore Out-of-Order Simulator ***
Warmup Instructions: 50000000
Simulation Instructions: 100000000
Number of CPUs: 1
Page size: 4096
Core 0: /data0/tzh/champsim_traces/SPEC17/644.nab_s-12459B.champsimtrace.xz
Off-chip DRAM Size: 16 GiB Channels: 1 Width: 64-bit Data Rate: 3205 MT/s
Warmup halting CPU 0 at instruction 50000000 cycle 10454696 for remainder of phase
Warmup finished CPU 0 instructions: 50000000 cycles: 10454696 cumulative IPC: 4.783 (Simulation time: 00 hr 01 min 59 sec)
Warmup complete CPU 0 instructions: 50000000 cycles: 10454696 cumulative IPC: 4.783 (Simulation time: 00 hr 01 min 59 sec)
Simulation finished CPU 0 instructions: 100000003 cycles: 37709932 cumulative IPC: 2.652 (Simulation time: 00 hr 07 min 37 sec)
Simulation complete CPU 0 instructions: 100000003 cycles: 37709932 cumulative IPC: 2.652 (Simulation time: 00 hr 07 min 37 sec)

ChampSim completed all CPUs

=== Simulation ===
CPU 0 runs /data0/tzh/champsim_traces/SPEC17/644.nab_s-12459B.champsimtrace.xz

Region of Interest Statistics

CPU 0 cumulative IPC: 2.652 instructions: 100000003 cycles: 37709932
CPU 0 Branch Prediction Accuracy: 98% MPKI: 2.799 Average ROB Occupancy at Mispredict: 116.8
Branch type MPKI
BRANCH_DIRECT_JUMP: 0.201
BRANCH_INDIRECT: 0
BRANCH_CONDITIONAL: 2.598
BRANCH_DIRECT_CALL: 0
BRANCH_INDIRECT_CALL: 0
BRANCH_RETURN: 0

cpu0->cpu0_STLB TOTAL        ACCESS:      26353 HIT:      26100 MISS:        253 MSHR_MERGE:          0
cpu0->cpu0_STLB LOAD         ACCESS:      26353 HIT:      26100 MISS:        253 MSHR_MERGE:          0
cpu0->cpu0_STLB RFO          ACCESS:          0 HIT:          0 MISS:          0 MSHR_MERGE:          0
cpu0->cpu0_STLB PREFETCH     ACCESS:          0 HIT:          0 MISS:          0 MSHR_MERGE:          0
cpu0->cpu0_STLB WRITE        ACCESS:          0 HIT:          0 MISS:          0 MSHR_MERGE:          0
cpu0->cpu0_STLB TRANSLATION  ACCESS:          0 HIT:          0 MISS:          0 MSHR_MERGE:          0
cpu0->cpu0_STLB PREFETCH REQUESTED:          0 ISSUED:          0 USEFUL:          0 USELESS:          0 LATE:          0
cpu0->cpu0_STLB AVERAGE MISS LATENCY: 242.9 cycles
cpu0->cpu0_L2C TOTAL        ACCESS:     720976 HIT:     663404 MISS:      57572 MSHR_MERGE:          0
cpu0->cpu0_L2C LOAD         ACCESS:     639628 HIT:     596821 MISS:      42807 MSHR_MERGE:          0
cpu0->cpu0_L2C RFO          ACCESS:      32176 HIT:      17497 MISS:      14679 MSHR_MERGE:          0
cpu0->cpu0_L2C PREFETCH     ACCESS:          0 HIT:          0 MISS:          0 MSHR_MERGE:          0
cpu0->cpu0_L2C WRITE        ACCESS:      49000 HIT:      48955 MISS:         45 MSHR_MERGE:          0
cpu0->cpu0_L2C TRANSLATION  ACCESS:        172 HIT:        131 MISS:         41 MSHR_MERGE:          0
cpu0->cpu0_L2C PREFETCH REQUESTED:          0 ISSUED:          0 USEFUL:          0 USELESS:          0 LATE:          0
cpu0->cpu0_L2C AVERAGE MISS LATENCY: 59.56 cycles
cpu0->cpu0_L1I TOTAL        ACCESS:    3290748 HIT:    3290748 MISS:          0 MSHR_MERGE:          0
cpu0->cpu0_L1I LOAD         ACCESS:    3290748 HIT:    3290748 MISS:          0 MSHR_MERGE:          0
cpu0->cpu0_L1I RFO          ACCESS:          0 HIT:          0 MISS:          0 MSHR_MERGE:          0
cpu0->cpu0_L1I PREFETCH     ACCESS:          0 HIT:          0 MISS:          0 MSHR_MERGE:          0
cpu0->cpu0_L1I WRITE        ACCESS:          0 HIT:          0 MISS:          0 MSHR_MERGE:          0
cpu0->cpu0_L1I TRANSLATION  ACCESS:          0 HIT:          0 MISS:          0 MSHR_MERGE:          0
cpu0->cpu0_L1I PREFETCH REQUESTED:          0 ISSUED:          0 USEFUL:          0 USELESS:          0 LATE:          0
cpu0->cpu0_L1I AVERAGE MISS LATENCY: - cycles
cpu0->cpu0_L1D TOTAL        ACCESS:   23249340 HIT:   22225503 MISS:    1023837 MSHR_MERGE:     351855
cpu0->cpu0_L1D LOAD         ACCESS:   12797398 HIT:   12037912 MISS:     759486 MSHR_MERGE:     119858
cpu0->cpu0_L1D RFO          ACCESS:          0 HIT:          0 MISS:          0 MSHR_MERGE:          0
cpu0->cpu0_L1D PREFETCH     ACCESS:          0 HIT:          0 MISS:          0 MSHR_MERGE:          0
cpu0->cpu0_L1D WRITE        ACCESS:   10451440 HIT:   10187264 MISS:     264176 MSHR_MERGE:     231994
cpu0->cpu0_L1D TRANSLATION  ACCESS:        502 HIT:        327 MISS:        175 MSHR_MERGE:          3
cpu0->cpu0_L1D PREFETCH REQUESTED:          0 ISSUED:          0 USEFUL:          0 USELESS:          0 LATE:          0
cpu0->cpu0_L1D AVERAGE MISS LATENCY: 13.2 cycles
cpu0->cpu0_ITLB TOTAL        ACCESS:    2804268 HIT:    2804268 MISS:          0 MSHR_MERGE:          0
cpu0->cpu0_ITLB LOAD         ACCESS:    2804268 HIT:    2804268 MISS:          0 MSHR_MERGE:          0
cpu0->cpu0_ITLB RFO          ACCESS:          0 HIT:          0 MISS:          0 MSHR_MERGE:          0
cpu0->cpu0_ITLB PREFETCH     ACCESS:          0 HIT:          0 MISS:          0 MSHR_MERGE:          0
cpu0->cpu0_ITLB WRITE        ACCESS:          0 HIT:          0 MISS:          0 MSHR_MERGE:          0
cpu0->cpu0_ITLB TRANSLATION  ACCESS:          0 HIT:          0 MISS:          0 MSHR_MERGE:          0
cpu0->cpu0_ITLB PREFETCH REQUESTED:          0 ISSUED:          0 USEFUL:          0 USELESS:          0 LATE:          0
cpu0->cpu0_ITLB AVERAGE MISS LATENCY: - cycles
cpu0->cpu0_DTLB TOTAL        ACCESS:   21296099 HIT:   21262806 MISS:      33293 MSHR_MERGE:       6940
cpu0->cpu0_DTLB LOAD         ACCESS:   21296099 HIT:   21262806 MISS:      33293 MSHR_MERGE:       6940
cpu0->cpu0_DTLB RFO          ACCESS:          0 HIT:          0 MISS:          0 MSHR_MERGE:          0
cpu0->cpu0_DTLB PREFETCH     ACCESS:          0 HIT:          0 MISS:          0 MSHR_MERGE:          0
cpu0->cpu0_DTLB WRITE        ACCESS:          0 HIT:          0 MISS:          0 MSHR_MERGE:          0
cpu0->cpu0_DTLB TRANSLATION  ACCESS:          0 HIT:          0 MISS:          0 MSHR_MERGE:          0
cpu0->cpu0_DTLB PREFETCH REQUESTED:          0 ISSUED:          0 USEFUL:          0 USELESS:          0 LATE:          0
cpu0->cpu0_DTLB AVERAGE MISS LATENCY: 7.342 cycles
cpu0->LLC TOTAL        ACCESS:      71818 HIT:      55099 MISS:      16719 MSHR_MERGE:          0
cpu0->LLC LOAD         ACCESS:      42807 HIT:      41259 MISS:       1548 MSHR_MERGE:          0
cpu0->LLC RFO          ACCESS:      14679 HIT:        113 MISS:      14566 MSHR_MERGE:          0
cpu0->LLC PREFETCH     ACCESS:          0 HIT:          0 MISS:          0 MSHR_MERGE:          0
cpu0->LLC WRITE        ACCESS:      14291 HIT:      13717 MISS:        574 MSHR_MERGE:          0
cpu0->LLC TRANSLATION  ACCESS:         41 HIT:         10 MISS:         31 MSHR_MERGE:          0
cpu0->LLC PREFETCH REQUESTED:          0 ISSUED:          0 USEFUL:          0 USELESS:          0 LATE:          0
cpu0->LLC AVERAGE MISS LATENCY: 152.8 cycles

DRAM Statistics

Channel 0 RQ ROW_BUFFER_HIT:       4485
  ROW_BUFFER_MISS:      11660
  AVG DBUS CONGESTED CYCLE: 6.907
Channel 0 WQ ROW_BUFFER_HIT:         63
  ROW_BUFFER_MISS:        680
  FULL:          0
Channel 0 REFRESHES ISSUED:       3142

[ROI Statistics]
[System Configuration]
num_cpus 1
cpu_freq 4000
fetch_width 6
decode_width 6
dispatch_width 6
execute_width 6
lq_width 2
sq_width 2
retire_width 6
scheduler_size 128
branch_mispredict_penalty 15
rob_size 352
lq_size 128
sq_size 72
ifetch_buffer_size 64
decode_buffer_size 32
dispatch_buffer_size 32
register_file_size 288
decode_latency 1
dispatch_latency 1
schedule_latency 1
execute_latency 1
page_size 4096
block_size 64
core_0_itlb_set 16
core_0_itlb_way 4
core_0_itlb_rq_size 16
core_0_itlb_wq_size 16
core_0_itlb_pq_size 0
core_0_itlb_mshr_size 8
core_0_itlb_hit_latency 1
core_0_itlb_fill_latency 1
core_0_itlb_max_tag_check 2
core_0_itlb_max_fill 2
core_0_dtlb_set 16
core_0_dtlb_way 4
core_0_dtlb_rq_size 16
core_0_dtlb_wq_size 16
core_0_dtlb_pq_size 0
core_0_dtlb_mshr_size 8
core_0_dtlb_hit_latency 1
core_0_dtlb_fill_latency 1
core_0_dtlb_max_tag_check 2
core_0_dtlb_max_fill 2
core_0_stlb_set 128
core_0_stlb_way 12
core_0_stlb_rq_size 32
core_0_stlb_wq_size 32
core_0_stlb_pq_size 0
core_0_stlb_mshr_size 16
core_0_stlb_hit_latency 4
core_0_stlb_fill_latency 4
core_0_stlb_max_tag_check 1
core_0_stlb_max_fill 1
core_0_l1i_set 64
core_0_l1i_way 8
core_0_l1i_rq_size 64
core_0_l1i_wq_size 64
core_0_l1i_pq_size 32
core_0_l1i_mshr_size 8
core_0_l1i_hit_latency 2
core_0_l1i_fill_latency 2
core_0_l1i_max_tag_check 2
core_0_l1i_max_fill 2
core_0_l1d_set 64
core_0_l1d_way 12
core_0_l1d_rq_size 64
core_0_l1d_wq_size 64
core_0_l1d_pq_size 8
core_0_l1d_mshr_size 16
core_0_l1d_hit_latency 2
core_0_l1d_fill_latency 3
core_0_l1d_max_tag_check 2
core_0_l1d_max_fill 2
core_0_l2c_set 1024
core_0_l2c_way 8
core_0_l2c_rq_size 32
core_0_l2c_wq_size 32
core_0_l2c_pq_size 16
core_0_l2c_mshr_size 32
core_0_l2c_hit_latency 5
core_0_l2c_fill_latency 5
core_0_l2c_max_tag_check 1
core_0_l2c_max_fill 1
llc_set 2048
llc_way 16
llc_rq_size 32
llc_wq_size 32
llc_pq_size 32
llc_mshr_size 64
llc_hit_latency 10
llc_fill_latency 10
llc_max_tag_check 1
llc_max_fill 1
dram_channels 1
dram_ranks 1
dram_bankgroups 8
dram_banks 4
dram_rows 65536
dram_columns 1024
dram_channel_width 8
dram_rq_size 64
dram_wq_size 64
dram_size 17179869184
core_0_itlb_prefetcher no
core_0_dtlb_prefetcher no
core_0_stlb_prefetcher no
core_0_l1i_prefetcher no
core_0_l1d_prefetcher no
core_0_l2c_prefetcher no
llc_prefetcher no
llc_replacement drrip

Core_0_instructions 100000003
Core_0_cycles 37709932
Core_0_IPC 2.65182
Core_0_branch_prediction_accuracy 97.9971
Core_0_branch_MPKI 2.79941
Core_0_average_ROB_occupancy_at_mispredict 116.843

Core_0_ITLB_total_access 2804268
Core_0_ITLB_total_hit 2804268
Core_0_ITLB_total_miss 0
Core_0_ITLB_total_MPKI 0
Core_0_ITLB_total_miss_rate 0
Core_0_ITLB_demand_access 2804268
Core_0_ITLB_demand_hit 2804268
Core_0_ITLB_demand_miss 0
Core_0_ITLB_demand_MPKI 0
Core_0_ITLB_demand_miss_rate 0
Core_0_ITLB_load_access 2804268
Core_0_ITLB_load_hit 2804268
Core_0_ITLB_load_miss 0
Core_0_ITLB_load_MPKI 0
Core_0_ITLB_load_miss_rate 0
Core_0_ITLB_rfo_access 0
Core_0_ITLB_rfo_hit 0
Core_0_ITLB_rfo_miss 0
Core_0_ITLB_rfo_MPKI 0
Core_0_ITLB_rfo_miss_rate 0
Core_0_ITLB_prefetch_access 0
Core_0_ITLB_prefetch_hit 0
Core_0_ITLB_prefetch_miss 0
Core_0_ITLB_prefetch_MPKI 0
Core_0_ITLB_prefetch_miss_rate 0
Core_0_ITLB_writeback_access 0
Core_0_ITLB_writeback_hit 0
Core_0_ITLB_writeback_miss 0
Core_0_ITLB_writeback_MPKI 0
Core_0_ITLB_writeback_miss_rate 0
Core_0_ITLB_prefetch_requested 0
Core_0_ITLB_prefetch_issued 0
Core_0_ITLB_prefetch_useful 0
Core_0_ITLB_prefetch_useless 0
Core_0_ITLB_prefetch_late 0
Core_0_ITLB_prefetch_accuracy 0
Core_0_ITLB_prefetch_coverage 0

Core_0_DTLB_total_access 21296099
Core_0_DTLB_total_hit 21262806
Core_0_DTLB_total_miss 33293
Core_0_DTLB_total_MPKI 0.33293
Core_0_DTLB_total_miss_rate 0.00156334
Core_0_DTLB_demand_access 21296099
Core_0_DTLB_demand_hit 21262806
Core_0_DTLB_demand_miss 33293
Core_0_DTLB_demand_MPKI 0.33293
Core_0_DTLB_demand_miss_rate 0.00156334
Core_0_DTLB_load_access 21296099
Core_0_DTLB_load_hit 21262806
Core_0_DTLB_load_miss 33293
Core_0_DTLB_load_MPKI 0.33293
Core_0_DTLB_load_miss_rate 0.00156334
Core_0_DTLB_rfo_access 0
Core_0_DTLB_rfo_hit 0
Core_0_DTLB_rfo_miss 0
Core_0_DTLB_rfo_MPKI 0
Core_0_DTLB_rfo_miss_rate 0
Core_0_DTLB_prefetch_access 0
Core_0_DTLB_prefetch_hit 0
Core_0_DTLB_prefetch_miss 0
Core_0_DTLB_prefetch_MPKI 0
Core_0_DTLB_prefetch_miss_rate 0
Core_0_DTLB_writeback_access 0
Core_0_DTLB_writeback_hit 0
Core_0_DTLB_writeback_miss 0
Core_0_DTLB_writeback_MPKI 0
Core_0_DTLB_writeback_miss_rate 0
Core_0_DTLB_prefetch_requested 0
Core_0_DTLB_prefetch_issued 0
Core_0_DTLB_prefetch_useful 0
Core_0_DTLB_prefetch_useless 0
Core_0_DTLB_prefetch_late 0
Core_0_DTLB_prefetch_accuracy 0
Core_0_DTLB_prefetch_coverage 0

Core_0_STLB_total_access 26353
Core_0_STLB_total_hit 26100
Core_0_STLB_total_miss 253
Core_0_STLB_total_MPKI 0.00253
Core_0_STLB_total_miss_rate 0.00960042
Core_0_STLB_demand_access 26353
Core_0_STLB_demand_hit 26100
Core_0_STLB_demand_miss 253
Core_0_STLB_demand_MPKI 0.00253
Core_0_STLB_demand_miss_rate 0.00960042
Core_0_STLB_load_access 26353
Core_0_STLB_load_hit 26100
Core_0_STLB_load_miss 253
Core_0_STLB_load_MPKI 0.00253
Core_0_STLB_load_miss_rate 0.00960042
Core_0_STLB_rfo_access 0
Core_0_STLB_rfo_hit 0
Core_0_STLB_rfo_miss 0
Core_0_STLB_rfo_MPKI 0
Core_0_STLB_rfo_miss_rate 0
Core_0_STLB_prefetch_access 0
Core_0_STLB_prefetch_hit 0
Core_0_STLB_prefetch_miss 0
Core_0_STLB_prefetch_MPKI 0
Core_0_STLB_prefetch_miss_rate 0
Core_0_STLB_writeback_access 0
Core_0_STLB_writeback_hit 0
Core_0_STLB_writeback_miss 0
Core_0_STLB_writeback_MPKI 0
Core_0_STLB_writeback_miss_rate 0
Core_0_STLB_prefetch_requested 0
Core_0_STLB_prefetch_issued 0
Core_0_STLB_prefetch_useful 0
Core_0_STLB_prefetch_useless 0
Core_0_STLB_prefetch_late 0
Core_0_STLB_prefetch_accuracy 0
Core_0_STLB_prefetch_coverage 0

Core_0_L1I_total_access 3290748
Core_0_L1I_total_hit 3290748
Core_0_L1I_total_miss 0
Core_0_L1I_total_MPKI 0
Core_0_L1I_total_miss_rate 0
Core_0_L1I_demand_access 3290748
Core_0_L1I_demand_hit 3290748
Core_0_L1I_demand_miss 0
Core_0_L1I_demand_MPKI 0
Core_0_L1I_demand_miss_rate 0
Core_0_L1I_load_access 3290748
Core_0_L1I_load_hit 3290748
Core_0_L1I_load_miss 0
Core_0_L1I_load_MPKI 0
Core_0_L1I_load_miss_rate 0
Core_0_L1I_rfo_access 0
Core_0_L1I_rfo_hit 0
Core_0_L1I_rfo_miss 0
Core_0_L1I_rfo_MPKI 0
Core_0_L1I_rfo_miss_rate 0
Core_0_L1I_prefetch_access 0
Core_0_L1I_prefetch_hit 0
Core_0_L1I_prefetch_miss 0
Core_0_L1I_prefetch_MPKI 0
Core_0_L1I_prefetch_miss_rate 0
Core_0_L1I_writeback_access 0
Core_0_L1I_writeback_hit 0
Core_0_L1I_writeback_miss 0
Core_0_L1I_writeback_MPKI 0
Core_0_L1I_writeback_miss_rate 0
Core_0_L1I_prefetch_requested 0
Core_0_L1I_prefetch_issued 0
Core_0_L1I_prefetch_useful 0
Core_0_L1I_prefetch_useless 0
Core_0_L1I_prefetch_late 0
Core_0_L1I_prefetch_accuracy 0
Core_0_L1I_prefetch_coverage 0

Core_0_L1D_total_access 23248838
Core_0_L1D_total_hit 22225176
Core_0_L1D_total_miss 1023662
Core_0_L1D_total_MPKI 10.2366
Core_0_L1D_total_miss_rate 0.0440307
Core_0_L1D_demand_access 12797398
Core_0_L1D_demand_hit 12037912
Core_0_L1D_demand_miss 759486
Core_0_L1D_demand_MPKI 7.59486
Core_0_L1D_demand_miss_rate 0.0593469
Core_0_L1D_load_access 12797398
Core_0_L1D_load_hit 12037912
Core_0_L1D_load_miss 759486
Core_0_L1D_load_MPKI 7.59486
Core_0_L1D_load_miss_rate 0.0593469
Core_0_L1D_rfo_access 0
Core_0_L1D_rfo_hit 0
Core_0_L1D_rfo_miss 0
Core_0_L1D_rfo_MPKI 0
Core_0_L1D_rfo_miss_rate 0
Core_0_L1D_prefetch_access 0
Core_0_L1D_prefetch_hit 0
Core_0_L1D_prefetch_miss 0
Core_0_L1D_prefetch_MPKI 0
Core_0_L1D_prefetch_miss_rate 0
Core_0_L1D_writeback_access 10451440
Core_0_L1D_writeback_hit 10187264
Core_0_L1D_writeback_miss 264176
Core_0_L1D_writeback_MPKI 2.64176
Core_0_L1D_writeback_miss_rate 0.0252765
Core_0_L1D_prefetch_requested 0
Core_0_L1D_prefetch_issued 0
Core_0_L1D_prefetch_useful 0
Core_0_L1D_prefetch_useless 0
Core_0_L1D_prefetch_late 0
Core_0_L1D_prefetch_accuracy 0
Core_0_L1D_prefetch_coverage 0

Core_0_L2C_total_access 720804
Core_0_L2C_total_hit 663273
Core_0_L2C_total_miss 57531
Core_0_L2C_total_MPKI 0.57531
Core_0_L2C_total_miss_rate 0.079815
Core_0_L2C_demand_access 671804
Core_0_L2C_demand_hit 614318
Core_0_L2C_demand_miss 57486
Core_0_L2C_demand_MPKI 0.57486
Core_0_L2C_demand_miss_rate 0.0855696
Core_0_L2C_load_access 639628
Core_0_L2C_load_hit 596821
Core_0_L2C_load_miss 42807
Core_0_L2C_load_MPKI 0.42807
Core_0_L2C_load_miss_rate 0.0669248
Core_0_L2C_rfo_access 32176
Core_0_L2C_rfo_hit 17497
Core_0_L2C_rfo_miss 14679
Core_0_L2C_rfo_MPKI 0.14679
Core_0_L2C_rfo_miss_rate 0.45621
Core_0_L2C_prefetch_access 0
Core_0_L2C_prefetch_hit 0
Core_0_L2C_prefetch_miss 0
Core_0_L2C_prefetch_MPKI 0
Core_0_L2C_prefetch_miss_rate 0
Core_0_L2C_writeback_access 49000
Core_0_L2C_writeback_hit 48955
Core_0_L2C_writeback_miss 45
Core_0_L2C_writeback_MPKI 0.00045
Core_0_L2C_writeback_miss_rate 0.000918367
Core_0_L2C_prefetch_requested 0
Core_0_L2C_prefetch_issued 0
Core_0_L2C_prefetch_useful 0
Core_0_L2C_prefetch_useless 0
Core_0_L2C_prefetch_late 0
Core_0_L2C_prefetch_accuracy 0
Core_0_L2C_prefetch_coverage 0

Core_0_LLC_total_access 71777
Core_0_LLC_total_hit 55089
Core_0_LLC_total_miss 16688
Core_0_LLC_total_MPKI 0.16688
Core_0_LLC_total_miss_rate 0.232498
Core_0_LLC_demand_access 57486
Core_0_LLC_demand_hit 41372
Core_0_LLC_demand_miss 16114
Core_0_LLC_demand_MPKI 0.16114
Core_0_LLC_demand_miss_rate 0.280312
Core_0_LLC_load_access 42807
Core_0_LLC_load_hit 41259
Core_0_LLC_load_miss 1548
Core_0_LLC_load_MPKI 0.01548
Core_0_LLC_load_miss_rate 0.0361623
Core_0_LLC_rfo_access 14679
Core_0_LLC_rfo_hit 113
Core_0_LLC_rfo_miss 14566
Core_0_LLC_rfo_MPKI 0.14566
Core_0_LLC_rfo_miss_rate 0.992302
Core_0_LLC_prefetch_access 0
Core_0_LLC_prefetch_hit 0
Core_0_LLC_prefetch_miss 0
Core_0_LLC_prefetch_MPKI 0
Core_0_LLC_prefetch_miss_rate 0
Core_0_LLC_writeback_access 14291
Core_0_LLC_writeback_hit 13717
Core_0_LLC_writeback_miss 574
Core_0_LLC_writeback_MPKI 0.00574
Core_0_LLC_writeback_miss_rate 0.0401651
Core_0_LLC_prefetch_requested 0
Core_0_LLC_prefetch_issued 0
Core_0_LLC_prefetch_useful 0
Core_0_LLC_prefetch_useless 0
Core_0_LLC_prefetch_late 0
Core_0_LLC_prefetch_accuracy 0
Core_0_LLC_prefetch_coverage 0

[DRAM Statistics]
Channel_0_RQ_row_buffer_hit 4485
Channel_0_RQ_row_buffer_miss 11660
Channel_0_WQ_row_buffer_hit 63
Channel_0_WQ_row_buffer_miss 680
Channel_0_WQ_full 0
Channel_0_dbus_congested 9616
DRAM_total_RQ_row_buffer_hit 4485
DRAM_total_RQ_row_buffer_miss 11660
DRAM_total_WQ_row_buffer_hit 63
DRAM_total_WQ_row_buffer_miss 680
DRAM_total_WQ_full 0
DRAM_total_dbus_congested 9616
DRAM_avg_congested_cycle 6.90661

====== DRAM_RQ_TRAFFIC ========
DRAM_RQ_READ_TRAFFIC_BREAKDOWN:
data_demand_read.count = 16114
data_demand_read.share = 99.81%

inst_demand_read.count = 0
inst_demand_read.share = 0.00%

cache_inst_prefetch.count = 0
cache_inst_prefetch.share = 0.00%

cache_data_prefetch.count = 0
cache_data_prefetch.share = 0.00%

stlb_data_demand.count = 31
stlb_data_demand.share = 0.19%

stlb_inst_demand.count = 0
stlb_inst_demand.share = 0.00%

stlb_l1i_pref.count = 0
stlb_l1i_pref.share = 0.00%

stlb_l1d_pref.count = 0
stlb_l1d_pref.share = 0.00%

DRAM_RQ_READ_TRAFFIC_SUMMARY:
cache_demand.count = 16114
cache_demand.share = 99.81%

cache_prefetch.count = 0
cache_prefetch.share = 0.00%

stlb_demand.count = 31
stlb_demand.share = 0.19%

stlb_prefetch.count = 0
stlb_prefetch.share = 0.00%

DRAM_RQ_READ_TRAFFIC_DEBUG:
total_classified_read.count = 16145
unclassified_read.count = 0
total_read_with_other.count = 16145

classified_plus_unclassified_check.count = 16145
dram_rq_read_total_observed.count = 16145
dram_rq_read_total_observed.per_1K_instructions = 0.16145

STLB_MISS_PTW_DRAM_TOUCH_BREAKDOWN:
stlb_miss_total.count = 253

stlb_miss_touch_dram.count = 31
stlb_miss_touch_dram.share = 12.25%

stlb_miss_no_dram_touch.count = 222
stlb_miss_no_dram_touch.share = 87.75%

STLB_MISS_PTW_DRAM_TOUCH_DEBUG:
stlb_miss_touch_plus_no_touch.count = 253
stlb_miss_total_check.count = 253

======STLB miss causes ========
Core_0_STLB_miss_cause_breakdown
Core_0_STLB_cause_Demand_Data_miss 253
Core_0_STLB_cause_Demand_Data_miss_rate 0.00960042
Core_0_STLB_cause_Demand_Instruction_miss 0
Core_0_STLB_cause_Demand_Instruction_miss_rate 0
Core_0_STLB_cause_L1D_Prefetch_miss 0
Core_0_STLB_cause_L1D_Prefetch_miss_rate 0
Core_0_STLB_cause_L1I_Prefetch_miss 0
Core_0_STLB_cause_L1I_Prefetch_miss_rate 0
Core_0_STLB_cause_Other_miss 0
Core_0_STLB_cause_Other_miss_rate 0
Core_0_STLB_Demand_miss 253
Core_0_STLB_Demand_miss_rate 0.00960042
Core_0_STLB_L1D_Prefetch_miss 0
Core_0_STLB_L1D_Prefetch_miss_rate 0
Core_0_STLB_Other_miss 0
Core_0_STLB_Other_miss_rate 0
