[VMEM] WARNING: physical memory size is smaller than virtual memory size.

*** ChampSim Multicore Out-of-Order Simulator ***
Warmup Instructions: 50000000
Simulation Instructions: 100000000
Number of CPUs: 1
Page size: 4096
Core 0: /data2/zcq/champsim_traces_gap/bfs.kron-469B.champsimtrace.xz
Off-chip DRAM Size: 16 GiB Channels: 1 Width: 64-bit Data Rate: 3205 MT/s
Warmup halting CPU 0 at instruction 50000003 cycle 11340069 for remainder of phase
Warmup finished CPU 0 instructions: 50000003 cycles: 11340069 cumulative IPC: 4.409 (Simulation time: 00 hr 02 min 22 sec)
Warmup complete CPU 0 instructions: 50000003 cycles: 11340069 cumulative IPC: 4.409 (Simulation time: 00 hr 02 min 22 sec)
Simulation finished CPU 0 instructions: 100000002 cycles: 400496766 cumulative IPC: 0.2497 (Simulation time: 00 hr 25 min 50 sec)
Simulation complete CPU 0 instructions: 100000002 cycles: 400496766 cumulative IPC: 0.2497 (Simulation time: 00 hr 25 min 50 sec)

ChampSim completed all CPUs

=== Simulation ===
CPU 0 runs /data2/zcq/champsim_traces_gap/bfs.kron-469B.champsimtrace.xz

Region of Interest Statistics

CPU 0 cumulative IPC: 0.2497 instructions: 100000002 cycles: 400496766
CPU 0 Branch Prediction Accuracy: 76.5% MPKI: 45.14 Average ROB Occupancy at Mispredict: 6.514
Branch type MPKI
BRANCH_DIRECT_JUMP: 0
BRANCH_INDIRECT: 0
BRANCH_CONDITIONAL: 45.14
BRANCH_DIRECT_CALL: 0
BRANCH_INDIRECT_CALL: 0
BRANCH_RETURN: 0

cpu0->cpu0_STLB TOTAL        ACCESS:      28143 HIT:          0 MISS:      28143 MSHR_MERGE:          0
cpu0->cpu0_STLB LOAD         ACCESS:      28143 HIT:          0 MISS:      28143 MSHR_MERGE:          0
cpu0->cpu0_STLB RFO          ACCESS:          0 HIT:          0 MISS:          0 MSHR_MERGE:          0
cpu0->cpu0_STLB PREFETCH     ACCESS:          0 HIT:          0 MISS:          0 MSHR_MERGE:          0
cpu0->cpu0_STLB WRITE        ACCESS:          0 HIT:          0 MISS:          0 MSHR_MERGE:          0
cpu0->cpu0_STLB TRANSLATION  ACCESS:          0 HIT:          0 MISS:          0 MSHR_MERGE:          0
cpu0->cpu0_STLB PREFETCH REQUESTED:          0 ISSUED:          0 USEFUL:          0 USELESS:          0 LATE:          0
cpu0->cpu0_STLB AVERAGE MISS LATENCY: 238.8 cycles
cpu0->cpu0_L2C TOTAL        ACCESS:    2405183 HIT:     600406 MISS:    1804777 MSHR_MERGE:          0
cpu0->cpu0_L2C LOAD         ACCESS:    1200802 HIT:          0 MISS:    1200802 MSHR_MERGE:          0
cpu0->cpu0_L2C RFO          ACCESS:     600402 HIT:          0 MISS:     600402 MSHR_MERGE:          0
cpu0->cpu0_L2C PREFETCH     ACCESS:          0 HIT:          0 MISS:          0 MSHR_MERGE:          0
cpu0->cpu0_L2C WRITE        ACCESS:     600406 HIT:     600406 MISS:          0 MSHR_MERGE:          0
cpu0->cpu0_L2C TRANSLATION  ACCESS:       3573 HIT:          0 MISS:       3573 MSHR_MERGE:          0
cpu0->cpu0_L2C PREFETCH REQUESTED:          0 ISSUED:          0 USEFUL:          0 USELESS:          0 LATE:          0
cpu0->cpu0_L2C AVERAGE MISS LATENCY: 201 cycles
cpu0->cpu0_L1I TOTAL        ACCESS:          9 HIT:          9 MISS:          0 MSHR_MERGE:          0
cpu0->cpu0_L1I LOAD         ACCESS:          9 HIT:          9 MISS:          0 MSHR_MERGE:          0
cpu0->cpu0_L1I RFO          ACCESS:          0 HIT:          0 MISS:          0 MSHR_MERGE:          0
cpu0->cpu0_L1I PREFETCH     ACCESS:          0 HIT:          0 MISS:          0 MSHR_MERGE:          0
cpu0->cpu0_L1I WRITE        ACCESS:          0 HIT:          0 MISS:          0 MSHR_MERGE:          0
cpu0->cpu0_L1I TRANSLATION  ACCESS:          0 HIT:          0 MISS:          0 MSHR_MERGE:          0
cpu0->cpu0_L1I PREFETCH REQUESTED:          0 ISSUED:          0 USEFUL:          0 USELESS:          0 LATE:          0
cpu0->cpu0_L1I AVERAGE MISS LATENCY: - cycles
cpu0->cpu0_L1D TOTAL        ACCESS:   20470034 HIT:   16385773 MISS:    4084261 MSHR_MERGE:    2279484
cpu0->cpu0_L1D LOAD         ACCESS:   10807249 HIT:    8259069 MISS:    2548180 MSHR_MERGE:    1347378
cpu0->cpu0_L1D RFO          ACCESS:          0 HIT:          0 MISS:          0 MSHR_MERGE:          0
cpu0->cpu0_L1D PREFETCH     ACCESS:          0 HIT:          0 MISS:          0 MSHR_MERGE:          0
cpu0->cpu0_L1D WRITE        ACCESS:    9606444 HIT:    8073936 MISS:    1532508 MSHR_MERGE:     932106
cpu0->cpu0_L1D TRANSLATION  ACCESS:      56341 HIT:      52768 MISS:       3573 MSHR_MERGE:          0
cpu0->cpu0_L1D PREFETCH REQUESTED:          0 ISSUED:          0 USEFUL:          0 USELESS:          0 LATE:          0
cpu0->cpu0_L1D AVERAGE MISS LATENCY: 210.1 cycles
cpu0->cpu0_ITLB TOTAL        ACCESS:          8 HIT:          8 MISS:          0 MSHR_MERGE:          0
cpu0->cpu0_ITLB LOAD         ACCESS:          8 HIT:          8 MISS:          0 MSHR_MERGE:          0
cpu0->cpu0_ITLB RFO          ACCESS:          0 HIT:          0 MISS:          0 MSHR_MERGE:          0
cpu0->cpu0_ITLB PREFETCH     ACCESS:          0 HIT:          0 MISS:          0 MSHR_MERGE:          0
cpu0->cpu0_ITLB WRITE        ACCESS:          0 HIT:          0 MISS:          0 MSHR_MERGE:          0
cpu0->cpu0_ITLB TRANSLATION  ACCESS:          0 HIT:          0 MISS:          0 MSHR_MERGE:          0
cpu0->cpu0_ITLB PREFETCH REQUESTED:          0 ISSUED:          0 USEFUL:          0 USELESS:          0 LATE:          0
cpu0->cpu0_ITLB AVERAGE MISS LATENCY: - cycles
cpu0->cpu0_DTLB TOTAL        ACCESS:   20028321 HIT:   19978105 MISS:      50216 MSHR_MERGE:      22073
cpu0->cpu0_DTLB LOAD         ACCESS:   20028321 HIT:   19978105 MISS:      50216 MSHR_MERGE:      22073
cpu0->cpu0_DTLB RFO          ACCESS:          0 HIT:          0 MISS:          0 MSHR_MERGE:          0
cpu0->cpu0_DTLB PREFETCH     ACCESS:          0 HIT:          0 MISS:          0 MSHR_MERGE:          0
cpu0->cpu0_DTLB WRITE        ACCESS:          0 HIT:          0 MISS:          0 MSHR_MERGE:          0
cpu0->cpu0_DTLB TRANSLATION  ACCESS:          0 HIT:          0 MISS:          0 MSHR_MERGE:          0
cpu0->cpu0_DTLB PREFETCH REQUESTED:          0 ISSUED:          0 USEFUL:          0 USELESS:          0 LATE:          0
cpu0->cpu0_DTLB AVERAGE MISS LATENCY: 244.9 cycles
cpu0->LLC TOTAL        ACCESS:    2405264 HIT:     183192 MISS:    2222072 MSHR_MERGE:          0
cpu0->LLC LOAD         ACCESS:    1200802 HIT:          0 MISS:    1200802 MSHR_MERGE:          0
cpu0->LLC RFO          ACCESS:     600402 HIT:          0 MISS:     600402 MSHR_MERGE:          0
cpu0->LLC PREFETCH     ACCESS:          0 HIT:          0 MISS:          0 MSHR_MERGE:          0
cpu0->LLC WRITE        ACCESS:     600487 HIT:     183183 MISS:     417304 MSHR_MERGE:          0
cpu0->LLC TRANSLATION  ACCESS:       3573 HIT:          9 MISS:       3564 MSHR_MERGE:          0
cpu0->LLC PREFETCH REQUESTED:          0 ISSUED:          0 USEFUL:          0 USELESS:          0 LATE:          0
cpu0->LLC AVERAGE MISS LATENCY: 151.9 cycles

DRAM Statistics

Channel 0 RQ ROW_BUFFER_HIT:      27803
  ROW_BUFFER_MISS:    1776965
  AVG DBUS CONGESTED CYCLE: 17.07
Channel 0 WQ ROW_BUFFER_HIT:     113344
  ROW_BUFFER_MISS:     472017
  FULL:          0
Channel 0 REFRESHES ISSUED:      33374

[ROI Statistics]
[System Configuration]
num_cpus 1
cpu_freq 4000
fetch_width 6
decode_width 6
dispatch_width 6
execute_width 6
lq_width 2
sq_width 2
retire_width 6
scheduler_size 128
branch_mispredict_penalty 15
rob_size 352
lq_size 128
sq_size 72
ifetch_buffer_size 64
decode_buffer_size 32
dispatch_buffer_size 32
register_file_size 288
decode_latency 1
dispatch_latency 1
schedule_latency 1
execute_latency 1
page_size 4096
block_size 64
core_0_itlb_set 16
core_0_itlb_way 4
core_0_itlb_rq_size 16
core_0_itlb_wq_size 16
core_0_itlb_pq_size 0
core_0_itlb_mshr_size 8
core_0_itlb_hit_latency 1
core_0_itlb_fill_latency 1
core_0_itlb_max_tag_check 2
core_0_itlb_max_fill 2
core_0_dtlb_set 16
core_0_dtlb_way 4
core_0_dtlb_rq_size 16
core_0_dtlb_wq_size 16
core_0_dtlb_pq_size 0
core_0_dtlb_mshr_size 8
core_0_dtlb_hit_latency 1
core_0_dtlb_fill_latency 1
core_0_dtlb_max_tag_check 2
core_0_dtlb_max_fill 2
core_0_stlb_set 128
core_0_stlb_way 12
core_0_stlb_rq_size 32
core_0_stlb_wq_size 32
core_0_stlb_pq_size 0
core_0_stlb_mshr_size 16
core_0_stlb_hit_latency 4
core_0_stlb_fill_latency 4
core_0_stlb_max_tag_check 1
core_0_stlb_max_fill 1
core_0_l1i_set 64
core_0_l1i_way 8
core_0_l1i_rq_size 64
core_0_l1i_wq_size 64
core_0_l1i_pq_size 32
core_0_l1i_mshr_size 8
core_0_l1i_hit_latency 2
core_0_l1i_fill_latency 2
core_0_l1i_max_tag_check 2
core_0_l1i_max_fill 2
core_0_l1d_set 64
core_0_l1d_way 12
core_0_l1d_rq_size 64
core_0_l1d_wq_size 64
core_0_l1d_pq_size 8
core_0_l1d_mshr_size 16
core_0_l1d_hit_latency 2
core_0_l1d_fill_latency 3
core_0_l1d_max_tag_check 2
core_0_l1d_max_fill 2
core_0_l2c_set 1024
core_0_l2c_way 8
core_0_l2c_rq_size 32
core_0_l2c_wq_size 32
core_0_l2c_pq_size 16
core_0_l2c_mshr_size 32
core_0_l2c_hit_latency 5
core_0_l2c_fill_latency 5
core_0_l2c_max_tag_check 1
core_0_l2c_max_fill 1
llc_set 2048
llc_way 16
llc_rq_size 32
llc_wq_size 32
llc_pq_size 32
llc_mshr_size 64
llc_hit_latency 10
llc_fill_latency 10
llc_max_tag_check 1
llc_max_fill 1
dram_channels 1
dram_ranks 1
dram_bankgroups 8
dram_banks 4
dram_rows 65536
dram_columns 1024
dram_channel_width 8
dram_rq_size 64
dram_wq_size 64
dram_size 17179869184
core_0_itlb_prefetcher no
core_0_dtlb_prefetcher no
core_0_stlb_prefetcher no
core_0_l1i_prefetcher no
core_0_l1d_prefetcher no
core_0_l2c_prefetcher no
llc_prefetcher no
llc_replacement drrip

Core_0_instructions 100000002
Core_0_cycles 400496766
Core_0_IPC 0.24969
Core_0_branch_prediction_accuracy 76.5033
Core_0_branch_MPKI 45.1438
Core_0_average_ROB_occupancy_at_mispredict 6.51389

Core_0_ITLB_total_access 8
Core_0_ITLB_total_hit 8
Core_0_ITLB_total_miss 0
Core_0_ITLB_total_MPKI 0
Core_0_ITLB_total_miss_rate 0
Core_0_ITLB_demand_access 8
Core_0_ITLB_demand_hit 8
Core_0_ITLB_demand_miss 0
Core_0_ITLB_demand_MPKI 0
Core_0_ITLB_demand_miss_rate 0
Core_0_ITLB_load_access 8
Core_0_ITLB_load_hit 8
Core_0_ITLB_load_miss 0
Core_0_ITLB_load_MPKI 0
Core_0_ITLB_load_miss_rate 0
Core_0_ITLB_rfo_access 0
Core_0_ITLB_rfo_hit 0
Core_0_ITLB_rfo_miss 0
Core_0_ITLB_rfo_MPKI 0
Core_0_ITLB_rfo_miss_rate 0
Core_0_ITLB_prefetch_access 0
Core_0_ITLB_prefetch_hit 0
Core_0_ITLB_prefetch_miss 0
Core_0_ITLB_prefetch_MPKI 0
Core_0_ITLB_prefetch_miss_rate 0
Core_0_ITLB_writeback_access 0
Core_0_ITLB_writeback_hit 0
Core_0_ITLB_writeback_miss 0
Core_0_ITLB_writeback_MPKI 0
Core_0_ITLB_writeback_miss_rate 0
Core_0_ITLB_prefetch_requested 0
Core_0_ITLB_prefetch_issued 0
Core_0_ITLB_prefetch_useful 0
Core_0_ITLB_prefetch_useless 0
Core_0_ITLB_prefetch_late 0
Core_0_ITLB_prefetch_accuracy 0
Core_0_ITLB_prefetch_coverage 0

Core_0_DTLB_total_access 20028321
Core_0_DTLB_total_hit 19978105
Core_0_DTLB_total_miss 50216
Core_0_DTLB_total_MPKI 0.50216
Core_0_DTLB_total_miss_rate 0.00250725
Core_0_DTLB_demand_access 20028321
Core_0_DTLB_demand_hit 19978105
Core_0_DTLB_demand_miss 50216
Core_0_DTLB_demand_MPKI 0.50216
Core_0_DTLB_demand_miss_rate 0.00250725
Core_0_DTLB_load_access 20028321
Core_0_DTLB_load_hit 19978105
Core_0_DTLB_load_miss 50216
Core_0_DTLB_load_MPKI 0.50216
Core_0_DTLB_load_miss_rate 0.00250725
Core_0_DTLB_rfo_access 0
Core_0_DTLB_rfo_hit 0
Core_0_DTLB_rfo_miss 0
Core_0_DTLB_rfo_MPKI 0
Core_0_DTLB_rfo_miss_rate 0
Core_0_DTLB_prefetch_access 0
Core_0_DTLB_prefetch_hit 0
Core_0_DTLB_prefetch_miss 0
Core_0_DTLB_prefetch_MPKI 0
Core_0_DTLB_prefetch_miss_rate 0
Core_0_DTLB_writeback_access 0
Core_0_DTLB_writeback_hit 0
Core_0_DTLB_writeback_miss 0
Core_0_DTLB_writeback_MPKI 0
Core_0_DTLB_writeback_miss_rate 0
Core_0_DTLB_prefetch_requested 0
Core_0_DTLB_prefetch_issued 0
Core_0_DTLB_prefetch_useful 0
Core_0_DTLB_prefetch_useless 0
Core_0_DTLB_prefetch_late 0
Core_0_DTLB_prefetch_accuracy 0
Core_0_DTLB_prefetch_coverage 0

Core_0_STLB_total_access 28143
Core_0_STLB_total_hit 0
Core_0_STLB_total_miss 28143
Core_0_STLB_total_MPKI 0.28143
Core_0_STLB_total_miss_rate 1
Core_0_STLB_demand_access 28143
Core_0_STLB_demand_hit 0
Core_0_STLB_demand_miss 28143
Core_0_STLB_demand_MPKI 0.28143
Core_0_STLB_demand_miss_rate 1
Core_0_STLB_load_access 28143
Core_0_STLB_load_hit 0
Core_0_STLB_load_miss 28143
Core_0_STLB_load_MPKI 0.28143
Core_0_STLB_load_miss_rate 1
Core_0_STLB_rfo_access 0
Core_0_STLB_rfo_hit 0
Core_0_STLB_rfo_miss 0
Core_0_STLB_rfo_MPKI 0
Core_0_STLB_rfo_miss_rate 0
Core_0_STLB_prefetch_access 0
Core_0_STLB_prefetch_hit 0
Core_0_STLB_prefetch_miss 0
Core_0_STLB_prefetch_MPKI 0
Core_0_STLB_prefetch_miss_rate 0
Core_0_STLB_writeback_access 0
Core_0_STLB_writeback_hit 0
Core_0_STLB_writeback_miss 0
Core_0_STLB_writeback_MPKI 0
Core_0_STLB_writeback_miss_rate 0
Core_0_STLB_prefetch_requested 0
Core_0_STLB_prefetch_issued 0
Core_0_STLB_prefetch_useful 0
Core_0_STLB_prefetch_useless 0
Core_0_STLB_prefetch_late 0
Core_0_STLB_prefetch_accuracy 0
Core_0_STLB_prefetch_coverage 0

Core_0_L1I_total_access 9
Core_0_L1I_total_hit 9
Core_0_L1I_total_miss 0
Core_0_L1I_total_MPKI 0
Core_0_L1I_total_miss_rate 0
Core_0_L1I_demand_access 9
Core_0_L1I_demand_hit 9
Core_0_L1I_demand_miss 0
Core_0_L1I_demand_MPKI 0
Core_0_L1I_demand_miss_rate 0
Core_0_L1I_load_access 9
Core_0_L1I_load_hit 9
Core_0_L1I_load_miss 0
Core_0_L1I_load_MPKI 0
Core_0_L1I_load_miss_rate 0
Core_0_L1I_rfo_access 0
Core_0_L1I_rfo_hit 0
Core_0_L1I_rfo_miss 0
Core_0_L1I_rfo_MPKI 0
Core_0_L1I_rfo_miss_rate 0
Core_0_L1I_prefetch_access 0
Core_0_L1I_prefetch_hit 0
Core_0_L1I_prefetch_miss 0
Core_0_L1I_prefetch_MPKI 0
Core_0_L1I_prefetch_miss_rate 0
Core_0_L1I_writeback_access 0
Core_0_L1I_writeback_hit 0
Core_0_L1I_writeback_miss 0
Core_0_L1I_writeback_MPKI 0
Core_0_L1I_writeback_miss_rate 0
Core_0_L1I_prefetch_requested 0
Core_0_L1I_prefetch_issued 0
Core_0_L1I_prefetch_useful 0
Core_0_L1I_prefetch_useless 0
Core_0_L1I_prefetch_late 0
Core_0_L1I_prefetch_accuracy 0
Core_0_L1I_prefetch_coverage 0

Core_0_L1D_total_access 20413693
Core_0_L1D_total_hit 16333005
Core_0_L1D_total_miss 4080688
Core_0_L1D_total_MPKI 40.8069
Core_0_L1D_total_miss_rate 0.1999
Core_0_L1D_demand_access 10807249
Core_0_L1D_demand_hit 8259069
Core_0_L1D_demand_miss 2548180
Core_0_L1D_demand_MPKI 25.4818
Core_0_L1D_demand_miss_rate 0.235784
Core_0_L1D_load_access 10807249
Core_0_L1D_load_hit 8259069
Core_0_L1D_load_miss 2548180
Core_0_L1D_load_MPKI 25.4818
Core_0_L1D_load_miss_rate 0.235784
Core_0_L1D_rfo_access 0
Core_0_L1D_rfo_hit 0
Core_0_L1D_rfo_miss 0
Core_0_L1D_rfo_MPKI 0
Core_0_L1D_rfo_miss_rate 0
Core_0_L1D_prefetch_access 0
Core_0_L1D_prefetch_hit 0
Core_0_L1D_prefetch_miss 0
Core_0_L1D_prefetch_MPKI 0
Core_0_L1D_prefetch_miss_rate 0
Core_0_L1D_writeback_access 9606444
Core_0_L1D_writeback_hit 8073936
Core_0_L1D_writeback_miss 1532508
Core_0_L1D_writeback_MPKI 15.3251
Core_0_L1D_writeback_miss_rate 0.159529
Core_0_L1D_prefetch_requested 0
Core_0_L1D_prefetch_issued 0
Core_0_L1D_prefetch_useful 0
Core_0_L1D_prefetch_useless 0
Core_0_L1D_prefetch_late 0
Core_0_L1D_prefetch_accuracy 0
Core_0_L1D_prefetch_coverage 0

Core_0_L2C_total_access 2401610
Core_0_L2C_total_hit 600406
Core_0_L2C_total_miss 1801204
Core_0_L2C_total_MPKI 18.012
Core_0_L2C_total_miss_rate 0.749999
Core_0_L2C_demand_access 1801204
Core_0_L2C_demand_hit 0
Core_0_L2C_demand_miss 1801204
Core_0_L2C_demand_MPKI 18.012
Core_0_L2C_demand_miss_rate 1
Core_0_L2C_load_access 1200802
Core_0_L2C_load_hit 0
Core_0_L2C_load_miss 1200802
Core_0_L2C_load_MPKI 12.008
Core_0_L2C_load_miss_rate 1
Core_0_L2C_rfo_access 600402
Core_0_L2C_rfo_hit 0
Core_0_L2C_rfo_miss 600402
Core_0_L2C_rfo_MPKI 6.00402
Core_0_L2C_rfo_miss_rate 1
Core_0_L2C_prefetch_access 0
Core_0_L2C_prefetch_hit 0
Core_0_L2C_prefetch_miss 0
Core_0_L2C_prefetch_MPKI 0
Core_0_L2C_prefetch_miss_rate 0
Core_0_L2C_writeback_access 600406
Core_0_L2C_writeback_hit 600406
Core_0_L2C_writeback_miss 0
Core_0_L2C_writeback_MPKI 0
Core_0_L2C_writeback_miss_rate 0
Core_0_L2C_prefetch_requested 0
Core_0_L2C_prefetch_issued 0
Core_0_L2C_prefetch_useful 0
Core_0_L2C_prefetch_useless 0
Core_0_L2C_prefetch_late 0
Core_0_L2C_prefetch_accuracy 0
Core_0_L2C_prefetch_coverage 0

Core_0_LLC_total_access 2401691
Core_0_LLC_total_hit 183183
Core_0_LLC_total_miss 2218508
Core_0_LLC_total_MPKI 22.1851
Core_0_LLC_total_miss_rate 0.923727
Core_0_LLC_demand_access 1801204
Core_0_LLC_demand_hit 0
Core_0_LLC_demand_miss 1801204
Core_0_LLC_demand_MPKI 18.012
Core_0_LLC_demand_miss_rate 1
Core_0_LLC_load_access 1200802
Core_0_LLC_load_hit 0
Core_0_LLC_load_miss 1200802
Core_0_LLC_load_MPKI 12.008
Core_0_LLC_load_miss_rate 1
Core_0_LLC_rfo_access 600402
Core_0_LLC_rfo_hit 0
Core_0_LLC_rfo_miss 600402
Core_0_LLC_rfo_MPKI 6.00402
Core_0_LLC_rfo_miss_rate 1
Core_0_LLC_prefetch_access 0
Core_0_LLC_prefetch_hit 0
Core_0_LLC_prefetch_miss 0
Core_0_LLC_prefetch_MPKI 0
Core_0_LLC_prefetch_miss_rate 0
Core_0_LLC_writeback_access 600487
Core_0_LLC_writeback_hit 183183
Core_0_LLC_writeback_miss 417304
Core_0_LLC_writeback_MPKI 4.17304
Core_0_LLC_writeback_miss_rate 0.694943
Core_0_LLC_prefetch_requested 0
Core_0_LLC_prefetch_issued 0
Core_0_LLC_prefetch_useful 0
Core_0_LLC_prefetch_useless 0
Core_0_LLC_prefetch_late 0
Core_0_LLC_prefetch_accuracy 0
Core_0_LLC_prefetch_coverage 0

[DRAM Statistics]
Channel_0_RQ_row_buffer_hit 27803
Channel_0_RQ_row_buffer_miss 1776965
Channel_0_WQ_row_buffer_hit 113344
Channel_0_WQ_row_buffer_miss 472017
Channel_0_WQ_full 0
Channel_0_dbus_congested 6999739
DRAM_total_RQ_row_buffer_hit 27803
DRAM_total_RQ_row_buffer_miss 1776965
DRAM_total_WQ_row_buffer_hit 113344
DRAM_total_WQ_row_buffer_miss 472017
DRAM_total_WQ_full 0
DRAM_total_dbus_congested 6999739
DRAM_avg_congested_cycle 17.071

====== DRAM_RQ_TRAFFIC ========
DRAM_RQ_READ_TRAFFIC_BREAKDOWN:
data_demand_read.count = 1801204
data_demand_read.share = 99.80%

inst_demand_read.count = 0
inst_demand_read.share = 0.00%

cache_inst_prefetch.count = 0
cache_inst_prefetch.share = 0.00%

cache_data_prefetch.count = 0
cache_data_prefetch.share = 0.00%

stlb_data_demand.count = 3564
stlb_data_demand.share = 0.20%

stlb_inst_demand.count = 0
stlb_inst_demand.share = 0.00%

stlb_l1i_pref.count = 0
stlb_l1i_pref.share = 0.00%

stlb_l1d_pref.count = 0
stlb_l1d_pref.share = 0.00%

DRAM_RQ_READ_TRAFFIC_SUMMARY:
cache_demand.count = 1801204
cache_demand.share = 99.80%

cache_prefetch.count = 0
cache_prefetch.share = 0.00%

stlb_demand.count = 3564
stlb_demand.share = 0.20%

stlb_prefetch.count = 0
stlb_prefetch.share = 0.00%

DRAM_RQ_READ_TRAFFIC_DEBUG:
total_classified_read.count = 1804768
unclassified_read.count = 0
total_read_with_other.count = 1804768

classified_plus_unclassified_check.count = 1804768
dram_rq_read_total_observed.count = 1804768
dram_rq_read_total_observed.per_1K_instructions = 18.0477

STLB_MISS_PTW_DRAM_TOUCH_BREAKDOWN:
stlb_miss_total.count = 28143

stlb_miss_touch_dram.count = 3518
stlb_miss_touch_dram.share = 12.50%

stlb_miss_no_dram_touch.count = 24625
stlb_miss_no_dram_touch.share = 87.50%

STLB_MISS_PTW_DRAM_TOUCH_DEBUG:
stlb_miss_touch_plus_no_touch.count = 28143
stlb_miss_total_check.count = 28143

======STLB miss causes ========
Core_0_STLB_miss_cause_breakdown
Core_0_STLB_cause_Demand_Data_miss 28143
Core_0_STLB_cause_Demand_Data_miss_rate 1
Core_0_STLB_cause_Demand_Instruction_miss 0
Core_0_STLB_cause_Demand_Instruction_miss_rate 0
Core_0_STLB_cause_L1D_Prefetch_miss 0
Core_0_STLB_cause_L1D_Prefetch_miss_rate 0
Core_0_STLB_cause_L1I_Prefetch_miss 0
Core_0_STLB_cause_L1I_Prefetch_miss_rate 0
Core_0_STLB_cause_Other_miss 0
Core_0_STLB_cause_Other_miss_rate 0
Core_0_STLB_Demand_miss 28143
Core_0_STLB_Demand_miss_rate 1
Core_0_STLB_L1D_Prefetch_miss 0
Core_0_STLB_L1D_Prefetch_miss_rate 0
Core_0_STLB_Other_miss 0
Core_0_STLB_Other_miss_rate 0
