[VMEM] WARNING: physical memory size is smaller than virtual memory size.

*** ChampSim Multicore Out-of-Order Simulator ***
Warmup Instructions: 50000000
Simulation Instructions: 100000000
Number of CPUs: 1
Page size: 4096
Core 0: /data0/tzh/champsim_traces/QMM/compute_int_23_new.xz
Off-chip DRAM Size: 16 GiB Channels: 1 Width: 64-bit Data Rate: 3205 MT/s
*** Reached end of trace: (0, "/data0/tzh/champsim_traces/QMM/compute_int_23_new.xz")
Warmup halting CPU 0 at instruction 50000003 cycle 13796330 for remainder of phase
Warmup finished CPU 0 instructions: 50000003 cycles: 13796330 cumulative IPC: 3.624 (Simulation time: 00 hr 02 min 22 sec)
Warmup complete CPU 0 instructions: 50000003 cycles: 13796330 cumulative IPC: 3.624 (Simulation time: 00 hr 02 min 22 sec)
*** Reached end of trace: (0, "/data0/tzh/champsim_traces/QMM/compute_int_23_new.xz")
*** Reached end of trace: (0, "/data0/tzh/champsim_traces/QMM/compute_int_23_new.xz")
*** Reached end of trace: (0, "/data0/tzh/champsim_traces/QMM/compute_int_23_new.xz")
Simulation finished CPU 0 instructions: 100000001 cycles: 289894342 cumulative IPC: 0.345 (Simulation time: 00 hr 24 min 32 sec)
Simulation complete CPU 0 instructions: 100000001 cycles: 289894342 cumulative IPC: 0.345 (Simulation time: 00 hr 24 min 32 sec)

ChampSim completed all CPUs

=== Simulation ===
CPU 0 runs /data0/tzh/champsim_traces/QMM/compute_int_23_new.xz

Region of Interest Statistics

CPU 0 cumulative IPC: 0.345 instructions: 100000001 cycles: 289894342
CPU 0 Branch Prediction Accuracy: 91.76% MPKI: 12.79 Average ROB Occupancy at Mispredict: 63.91
Branch type MPKI
BRANCH_DIRECT_JUMP: 0
BRANCH_INDIRECT: 0
BRANCH_CONDITIONAL: 12.79
BRANCH_DIRECT_CALL: 0
BRANCH_INDIRECT_CALL: 0
BRANCH_RETURN: 0

cpu0->cpu0_STLB TOTAL        ACCESS:     507321 HIT:     241363 MISS:     265958 MSHR_MERGE:          0
cpu0->cpu0_STLB LOAD         ACCESS:     507321 HIT:     241363 MISS:     265958 MSHR_MERGE:          0
cpu0->cpu0_STLB RFO          ACCESS:          0 HIT:          0 MISS:          0 MSHR_MERGE:          0
cpu0->cpu0_STLB PREFETCH     ACCESS:          0 HIT:          0 MISS:          0 MSHR_MERGE:          0
cpu0->cpu0_STLB WRITE        ACCESS:          0 HIT:          0 MISS:          0 MSHR_MERGE:          0
cpu0->cpu0_STLB TRANSLATION  ACCESS:          0 HIT:          0 MISS:          0 MSHR_MERGE:          0
cpu0->cpu0_STLB PREFETCH REQUESTED:          0 ISSUED:          0 USEFUL:          0 USELESS:          0 LATE:          0
cpu0->cpu0_STLB AVERAGE MISS LATENCY: 61.53 cycles
cpu0->cpu0_L2C TOTAL        ACCESS:    3218770 HIT:    1080163 MISS:    2138607 MSHR_MERGE:          0
cpu0->cpu0_L2C LOAD         ACCESS:    2045996 HIT:      63597 MISS:    1982399 MSHR_MERGE:          0
cpu0->cpu0_L2C RFO          ACCESS:      92552 HIT:          0 MISS:      92552 MSHR_MERGE:          0
cpu0->cpu0_L2C PREFETCH     ACCESS:          0 HIT:          0 MISS:          0 MSHR_MERGE:          0
cpu0->cpu0_L2C WRITE        ACCESS:     997991 HIT:     997991 MISS:          0 MSHR_MERGE:          0
cpu0->cpu0_L2C TRANSLATION  ACCESS:      82231 HIT:      18575 MISS:      63656 MSHR_MERGE:          0
cpu0->cpu0_L2C PREFETCH REQUESTED:          0 ISSUED:          0 USEFUL:          0 USELESS:          0 LATE:          0
cpu0->cpu0_L2C AVERAGE MISS LATENCY: 216.4 cycles
cpu0->cpu0_L1I TOTAL        ACCESS:     333496 HIT:     333496 MISS:          0 MSHR_MERGE:          0
cpu0->cpu0_L1I LOAD         ACCESS:     333496 HIT:     333496 MISS:          0 MSHR_MERGE:          0
cpu0->cpu0_L1I RFO          ACCESS:          0 HIT:          0 MISS:          0 MSHR_MERGE:          0
cpu0->cpu0_L1I PREFETCH     ACCESS:          0 HIT:          0 MISS:          0 MSHR_MERGE:          0
cpu0->cpu0_L1I WRITE        ACCESS:          0 HIT:          0 MISS:          0 MSHR_MERGE:          0
cpu0->cpu0_L1I TRANSLATION  ACCESS:          0 HIT:          0 MISS:          0 MSHR_MERGE:          0
cpu0->cpu0_L1I PREFETCH REQUESTED:          0 ISSUED:          0 USEFUL:          0 USELESS:          0 LATE:          0
cpu0->cpu0_L1I AVERAGE MISS LATENCY: - cycles
cpu0->cpu0_L1D TOTAL        ACCESS:   29101001 HIT:   25774699 MISS:    3326302 MSHR_MERGE:    1105523
cpu0->cpu0_L1D LOAD         ACCESS:   16287498 HIT:   13140683 MISS:    3146815 MSHR_MERGE:    1100819
cpu0->cpu0_L1D RFO          ACCESS:          0 HIT:          0 MISS:          0 MSHR_MERGE:          0
cpu0->cpu0_L1D PREFETCH     ACCESS:          0 HIT:          0 MISS:          0 MSHR_MERGE:          0
cpu0->cpu0_L1D WRITE        ACCESS:   12278766 HIT:   12183045 MISS:      95721 MSHR_MERGE:       3169
cpu0->cpu0_L1D TRANSLATION  ACCESS:     534737 HIT:     450971 MISS:      83766 MSHR_MERGE:       1535
cpu0->cpu0_L1D PREFETCH REQUESTED:          0 ISSUED:          0 USEFUL:          0 USELESS:          0 LATE:          0
cpu0->cpu0_L1D AVERAGE MISS LATENCY: 217.4 cycles
cpu0->cpu0_ITLB TOTAL        ACCESS:     327244 HIT:     327059 MISS:        185 MSHR_MERGE:        131
cpu0->cpu0_ITLB LOAD         ACCESS:     327244 HIT:     327059 MISS:        185 MSHR_MERGE:        131
cpu0->cpu0_ITLB RFO          ACCESS:          0 HIT:          0 MISS:          0 MSHR_MERGE:          0
cpu0->cpu0_ITLB PREFETCH     ACCESS:          0 HIT:          0 MISS:          0 MSHR_MERGE:          0
cpu0->cpu0_ITLB WRITE        ACCESS:          0 HIT:          0 MISS:          0 MSHR_MERGE:          0
cpu0->cpu0_ITLB TRANSLATION  ACCESS:          0 HIT:          0 MISS:          0 MSHR_MERGE:          0
cpu0->cpu0_ITLB PREFETCH REQUESTED:          0 ISSUED:          0 USEFUL:          0 USELESS:          0 LATE:          0
cpu0->cpu0_ITLB AVERAGE MISS LATENCY: 286.4 cycles
cpu0->cpu0_DTLB TOTAL        ACCESS:   27669179 HIT:   27031920 MISS:     637259 MSHR_MERGE:     129992
cpu0->cpu0_DTLB LOAD         ACCESS:   27669179 HIT:   27031920 MISS:     637259 MSHR_MERGE:     129992
cpu0->cpu0_DTLB RFO          ACCESS:          0 HIT:          0 MISS:          0 MSHR_MERGE:          0
cpu0->cpu0_DTLB PREFETCH     ACCESS:          0 HIT:          0 MISS:          0 MSHR_MERGE:          0
cpu0->cpu0_DTLB WRITE        ACCESS:          0 HIT:          0 MISS:          0 MSHR_MERGE:          0
cpu0->cpu0_DTLB TRANSLATION  ACCESS:          0 HIT:          0 MISS:          0 MSHR_MERGE:          0
cpu0->cpu0_DTLB PREFETCH REQUESTED:          0 ISSUED:          0 USEFUL:          0 USELESS:          0 LATE:          0
cpu0->cpu0_DTLB AVERAGE MISS LATENCY: 37.75 cycles
cpu0->LLC TOTAL        ACCESS:    3125297 HIT:     877764 MISS:    2247533 MSHR_MERGE:          0
cpu0->LLC LOAD         ACCESS:    1982399 HIT:      10939 MISS:    1971460 MSHR_MERGE:          0
cpu0->LLC RFO          ACCESS:      92552 HIT:         16 MISS:      92536 MSHR_MERGE:          0
cpu0->LLC PREFETCH     ACCESS:          0 HIT:          0 MISS:          0 MSHR_MERGE:          0
cpu0->LLC WRITE        ACCESS:     986690 HIT:     858416 MISS:     128274 MSHR_MERGE:          0
cpu0->LLC TRANSLATION  ACCESS:      63656 HIT:       8393 MISS:      55263 MSHR_MERGE:          0
cpu0->LLC PREFETCH REQUESTED:          0 ISSUED:          0 USEFUL:          0 USELESS:          0 LATE:          0
cpu0->LLC AVERAGE MISS LATENCY: 191.2 cycles

DRAM Statistics

Channel 0 RQ ROW_BUFFER_HIT:     104945
  ROW_BUFFER_MISS:    2014286
  AVG DBUS CONGESTED CYCLE: 15.33
Channel 0 WQ ROW_BUFFER_HIT:     278330
  ROW_BUFFER_MISS:     705407
  FULL:          0
Channel 0 REFRESHES ISSUED:      24158

[ROI Statistics]
[System Configuration]
num_cpus 1
cpu_freq 4000
fetch_width 6
decode_width 6
dispatch_width 6
execute_width 6
lq_width 2
sq_width 2
retire_width 6
scheduler_size 128
branch_mispredict_penalty 15
rob_size 352
lq_size 128
sq_size 72
ifetch_buffer_size 64
decode_buffer_size 32
dispatch_buffer_size 32
register_file_size 288
decode_latency 1
dispatch_latency 1
schedule_latency 1
execute_latency 1
page_size 4096
block_size 64
core_0_itlb_set 16
core_0_itlb_way 4
core_0_itlb_rq_size 16
core_0_itlb_wq_size 16
core_0_itlb_pq_size 0
core_0_itlb_mshr_size 8
core_0_itlb_hit_latency 1
core_0_itlb_fill_latency 1
core_0_itlb_max_tag_check 2
core_0_itlb_max_fill 2
core_0_dtlb_set 16
core_0_dtlb_way 4
core_0_dtlb_rq_size 16
core_0_dtlb_wq_size 16
core_0_dtlb_pq_size 0
core_0_dtlb_mshr_size 8
core_0_dtlb_hit_latency 1
core_0_dtlb_fill_latency 1
core_0_dtlb_max_tag_check 2
core_0_dtlb_max_fill 2
core_0_stlb_set 128
core_0_stlb_way 12
core_0_stlb_rq_size 32
core_0_stlb_wq_size 32
core_0_stlb_pq_size 0
core_0_stlb_mshr_size 16
core_0_stlb_hit_latency 4
core_0_stlb_fill_latency 4
core_0_stlb_max_tag_check 1
core_0_stlb_max_fill 1
core_0_l1i_set 64
core_0_l1i_way 8
core_0_l1i_rq_size 64
core_0_l1i_wq_size 64
core_0_l1i_pq_size 32
core_0_l1i_mshr_size 8
core_0_l1i_hit_latency 2
core_0_l1i_fill_latency 2
core_0_l1i_max_tag_check 2
core_0_l1i_max_fill 2
core_0_l1d_set 64
core_0_l1d_way 12
core_0_l1d_rq_size 64
core_0_l1d_wq_size 64
core_0_l1d_pq_size 8
core_0_l1d_mshr_size 16
core_0_l1d_hit_latency 2
core_0_l1d_fill_latency 3
core_0_l1d_max_tag_check 2
core_0_l1d_max_fill 2
core_0_l2c_set 1024
core_0_l2c_way 8
core_0_l2c_rq_size 32
core_0_l2c_wq_size 32
core_0_l2c_pq_size 16
core_0_l2c_mshr_size 32
core_0_l2c_hit_latency 5
core_0_l2c_fill_latency 5
core_0_l2c_max_tag_check 1
core_0_l2c_max_fill 1
llc_set 2048
llc_way 16
llc_rq_size 32
llc_wq_size 32
llc_pq_size 32
llc_mshr_size 64
llc_hit_latency 10
llc_fill_latency 10
llc_max_tag_check 1
llc_max_fill 1
dram_channels 1
dram_ranks 1
dram_bankgroups 8
dram_banks 4
dram_rows 65536
dram_columns 1024
dram_channel_width 8
dram_rq_size 64
dram_wq_size 64
dram_size 17179869184
core_0_itlb_prefetcher no
core_0_dtlb_prefetcher no
core_0_stlb_prefetcher no
core_0_l1i_prefetcher no
core_0_l1d_prefetcher no
core_0_l2c_prefetcher no
llc_prefetcher no
llc_replacement drrip

Core_0_instructions 100000001
Core_0_cycles 289894342
Core_0_IPC 0.344953
Core_0_branch_prediction_accuracy 91.758
Core_0_branch_MPKI 12.7875
Core_0_average_ROB_occupancy_at_mispredict 63.9149

Core_0_ITLB_total_access 327244
Core_0_ITLB_total_hit 327059
Core_0_ITLB_total_miss 185
Core_0_ITLB_total_MPKI 0.00185
Core_0_ITLB_total_miss_rate 0.000565327
Core_0_ITLB_demand_access 327244
Core_0_ITLB_demand_hit 327059
Core_0_ITLB_demand_miss 185
Core_0_ITLB_demand_MPKI 0.00185
Core_0_ITLB_demand_miss_rate 0.000565327
Core_0_ITLB_load_access 327244
Core_0_ITLB_load_hit 327059
Core_0_ITLB_load_miss 185
Core_0_ITLB_load_MPKI 0.00185
Core_0_ITLB_load_miss_rate 0.000565327
Core_0_ITLB_rfo_access 0
Core_0_ITLB_rfo_hit 0
Core_0_ITLB_rfo_miss 0
Core_0_ITLB_rfo_MPKI 0
Core_0_ITLB_rfo_miss_rate 0
Core_0_ITLB_prefetch_access 0
Core_0_ITLB_prefetch_hit 0
Core_0_ITLB_prefetch_miss 0
Core_0_ITLB_prefetch_MPKI 0
Core_0_ITLB_prefetch_miss_rate 0
Core_0_ITLB_writeback_access 0
Core_0_ITLB_writeback_hit 0
Core_0_ITLB_writeback_miss 0
Core_0_ITLB_writeback_MPKI 0
Core_0_ITLB_writeback_miss_rate 0
Core_0_ITLB_prefetch_requested 0
Core_0_ITLB_prefetch_issued 0
Core_0_ITLB_prefetch_useful 0
Core_0_ITLB_prefetch_useless 0
Core_0_ITLB_prefetch_late 0
Core_0_ITLB_prefetch_accuracy 0
Core_0_ITLB_prefetch_coverage 0

Core_0_DTLB_total_access 27669179
Core_0_DTLB_total_hit 27031920
Core_0_DTLB_total_miss 637259
Core_0_DTLB_total_MPKI 6.37259
Core_0_DTLB_total_miss_rate 0.0230314
Core_0_DTLB_demand_access 27669179
Core_0_DTLB_demand_hit 27031920
Core_0_DTLB_demand_miss 637259
Core_0_DTLB_demand_MPKI 6.37259
Core_0_DTLB_demand_miss_rate 0.0230314
Core_0_DTLB_load_access 27669179
Core_0_DTLB_load_hit 27031920
Core_0_DTLB_load_miss 637259
Core_0_DTLB_load_MPKI 6.37259
Core_0_DTLB_load_miss_rate 0.0230314
Core_0_DTLB_rfo_access 0
Core_0_DTLB_rfo_hit 0
Core_0_DTLB_rfo_miss 0
Core_0_DTLB_rfo_MPKI 0
Core_0_DTLB_rfo_miss_rate 0
Core_0_DTLB_prefetch_access 0
Core_0_DTLB_prefetch_hit 0
Core_0_DTLB_prefetch_miss 0
Core_0_DTLB_prefetch_MPKI 0
Core_0_DTLB_prefetch_miss_rate 0
Core_0_DTLB_writeback_access 0
Core_0_DTLB_writeback_hit 0
Core_0_DTLB_writeback_miss 0
Core_0_DTLB_writeback_MPKI 0
Core_0_DTLB_writeback_miss_rate 0
Core_0_DTLB_prefetch_requested 0
Core_0_DTLB_prefetch_issued 0
Core_0_DTLB_prefetch_useful 0
Core_0_DTLB_prefetch_useless 0
Core_0_DTLB_prefetch_late 0
Core_0_DTLB_prefetch_accuracy 0
Core_0_DTLB_prefetch_coverage 0

Core_0_STLB_total_access 507321
Core_0_STLB_total_hit 241363
Core_0_STLB_total_miss 265958
Core_0_STLB_total_MPKI 2.65958
Core_0_STLB_total_miss_rate 0.52424
Core_0_STLB_demand_access 507321
Core_0_STLB_demand_hit 241363
Core_0_STLB_demand_miss 265958
Core_0_STLB_demand_MPKI 2.65958
Core_0_STLB_demand_miss_rate 0.52424
Core_0_STLB_load_access 507321
Core_0_STLB_load_hit 241363
Core_0_STLB_load_miss 265958
Core_0_STLB_load_MPKI 2.65958
Core_0_STLB_load_miss_rate 0.52424
Core_0_STLB_rfo_access 0
Core_0_STLB_rfo_hit 0
Core_0_STLB_rfo_miss 0
Core_0_STLB_rfo_MPKI 0
Core_0_STLB_rfo_miss_rate 0
Core_0_STLB_prefetch_access 0
Core_0_STLB_prefetch_hit 0
Core_0_STLB_prefetch_miss 0
Core_0_STLB_prefetch_MPKI 0
Core_0_STLB_prefetch_miss_rate 0
Core_0_STLB_writeback_access 0
Core_0_STLB_writeback_hit 0
Core_0_STLB_writeback_miss 0
Core_0_STLB_writeback_MPKI 0
Core_0_STLB_writeback_miss_rate 0
Core_0_STLB_prefetch_requested 0
Core_0_STLB_prefetch_issued 0
Core_0_STLB_prefetch_useful 0
Core_0_STLB_prefetch_useless 0
Core_0_STLB_prefetch_late 0
Core_0_STLB_prefetch_accuracy 0
Core_0_STLB_prefetch_coverage 0

Core_0_L1I_total_access 333496
Core_0_L1I_total_hit 333496
Core_0_L1I_total_miss 0
Core_0_L1I_total_MPKI 0
Core_0_L1I_total_miss_rate 0
Core_0_L1I_demand_access 333496
Core_0_L1I_demand_hit 333496
Core_0_L1I_demand_miss 0
Core_0_L1I_demand_MPKI 0
Core_0_L1I_demand_miss_rate 0
Core_0_L1I_load_access 333496
Core_0_L1I_load_hit 333496
Core_0_L1I_load_miss 0
Core_0_L1I_load_MPKI 0
Core_0_L1I_load_miss_rate 0
Core_0_L1I_rfo_access 0
Core_0_L1I_rfo_hit 0
Core_0_L1I_rfo_miss 0
Core_0_L1I_rfo_MPKI 0
Core_0_L1I_rfo_miss_rate 0
Core_0_L1I_prefetch_access 0
Core_0_L1I_prefetch_hit 0
Core_0_L1I_prefetch_miss 0
Core_0_L1I_prefetch_MPKI 0
Core_0_L1I_prefetch_miss_rate 0
Core_0_L1I_writeback_access 0
Core_0_L1I_writeback_hit 0
Core_0_L1I_writeback_miss 0
Core_0_L1I_writeback_MPKI 0
Core_0_L1I_writeback_miss_rate 0
Core_0_L1I_prefetch_requested 0
Core_0_L1I_prefetch_issued 0
Core_0_L1I_prefetch_useful 0
Core_0_L1I_prefetch_useless 0
Core_0_L1I_prefetch_late 0
Core_0_L1I_prefetch_accuracy 0
Core_0_L1I_prefetch_coverage 0

Core_0_L1D_total_access 28566264
Core_0_L1D_total_hit 25323728
Core_0_L1D_total_miss 3242536
Core_0_L1D_total_MPKI 32.4254
Core_0_L1D_total_miss_rate 0.113509
Core_0_L1D_demand_access 16287498
Core_0_L1D_demand_hit 13140683
Core_0_L1D_demand_miss 3146815
Core_0_L1D_demand_MPKI 31.4681
Core_0_L1D_demand_miss_rate 0.193204
Core_0_L1D_load_access 16287498
Core_0_L1D_load_hit 13140683
Core_0_L1D_load_miss 3146815
Core_0_L1D_load_MPKI 31.4681
Core_0_L1D_load_miss_rate 0.193204
Core_0_L1D_rfo_access 0
Core_0_L1D_rfo_hit 0
Core_0_L1D_rfo_miss 0
Core_0_L1D_rfo_MPKI 0
Core_0_L1D_rfo_miss_rate 0
Core_0_L1D_prefetch_access 0
Core_0_L1D_prefetch_hit 0
Core_0_L1D_prefetch_miss 0
Core_0_L1D_prefetch_MPKI 0
Core_0_L1D_prefetch_miss_rate 0
Core_0_L1D_writeback_access 12278766
Core_0_L1D_writeback_hit 12183045
Core_0_L1D_writeback_miss 95721
Core_0_L1D_writeback_MPKI 0.95721
Core_0_L1D_writeback_miss_rate 0.00779565
Core_0_L1D_prefetch_requested 0
Core_0_L1D_prefetch_issued 0
Core_0_L1D_prefetch_useful 0
Core_0_L1D_prefetch_useless 0
Core_0_L1D_prefetch_late 0
Core_0_L1D_prefetch_accuracy 0
Core_0_L1D_prefetch_coverage 0

Core_0_L2C_total_access 3136539
Core_0_L2C_total_hit 1061588
Core_0_L2C_total_miss 2074951
Core_0_L2C_total_MPKI 20.7495
Core_0_L2C_total_miss_rate 0.661542
Core_0_L2C_demand_access 2138548
Core_0_L2C_demand_hit 63597
Core_0_L2C_demand_miss 2074951
Core_0_L2C_demand_MPKI 20.7495
Core_0_L2C_demand_miss_rate 0.970262
Core_0_L2C_load_access 2045996
Core_0_L2C_load_hit 63597
Core_0_L2C_load_miss 1982399
Core_0_L2C_load_MPKI 19.824
Core_0_L2C_load_miss_rate 0.968916
Core_0_L2C_rfo_access 92552
Core_0_L2C_rfo_hit 0
Core_0_L2C_rfo_miss 92552
Core_0_L2C_rfo_MPKI 0.92552
Core_0_L2C_rfo_miss_rate 1
Core_0_L2C_prefetch_access 0
Core_0_L2C_prefetch_hit 0
Core_0_L2C_prefetch_miss 0
Core_0_L2C_prefetch_MPKI 0
Core_0_L2C_prefetch_miss_rate 0
Core_0_L2C_writeback_access 997991
Core_0_L2C_writeback_hit 997991
Core_0_L2C_writeback_miss 0
Core_0_L2C_writeback_MPKI 0
Core_0_L2C_writeback_miss_rate 0
Core_0_L2C_prefetch_requested 0
Core_0_L2C_prefetch_issued 0
Core_0_L2C_prefetch_useful 0
Core_0_L2C_prefetch_useless 0
Core_0_L2C_prefetch_late 0
Core_0_L2C_prefetch_accuracy 0
Core_0_L2C_prefetch_coverage 0

Core_0_LLC_total_access 3061641
Core_0_LLC_total_hit 869371
Core_0_LLC_total_miss 2192270
Core_0_LLC_total_MPKI 21.9227
Core_0_LLC_total_miss_rate 0.716044
Core_0_LLC_demand_access 2074951
Core_0_LLC_demand_hit 10955
Core_0_LLC_demand_miss 2063996
Core_0_LLC_demand_MPKI 20.64
Core_0_LLC_demand_miss_rate 0.99472
Core_0_LLC_load_access 1982399
Core_0_LLC_load_hit 10939
Core_0_LLC_load_miss 1971460
Core_0_LLC_load_MPKI 19.7146
Core_0_LLC_load_miss_rate 0.994482
Core_0_LLC_rfo_access 92552
Core_0_LLC_rfo_hit 16
Core_0_LLC_rfo_miss 92536
Core_0_LLC_rfo_MPKI 0.92536
Core_0_LLC_rfo_miss_rate 0.999827
Core_0_LLC_prefetch_access 0
Core_0_LLC_prefetch_hit 0
Core_0_LLC_prefetch_miss 0
Core_0_LLC_prefetch_MPKI 0
Core_0_LLC_prefetch_miss_rate 0
Core_0_LLC_writeback_access 986690
Core_0_LLC_writeback_hit 858416
Core_0_LLC_writeback_miss 128274
Core_0_LLC_writeback_MPKI 1.28274
Core_0_LLC_writeback_miss_rate 0.130004
Core_0_LLC_prefetch_requested 0
Core_0_LLC_prefetch_issued 0
Core_0_LLC_prefetch_useful 0
Core_0_LLC_prefetch_useless 0
Core_0_LLC_prefetch_late 0
Core_0_LLC_prefetch_accuracy 0
Core_0_LLC_prefetch_coverage 0

[DRAM Statistics]
Channel_0_RQ_row_buffer_hit 104945
Channel_0_RQ_row_buffer_miss 2014286
Channel_0_WQ_row_buffer_hit 278330
Channel_0_WQ_row_buffer_miss 705407
Channel_0_WQ_full 0
Channel_0_dbus_congested 11157801
DRAM_total_RQ_row_buffer_hit 104945
DRAM_total_RQ_row_buffer_miss 2014286
DRAM_total_WQ_row_buffer_hit 278330
DRAM_total_WQ_row_buffer_miss 705407
DRAM_total_WQ_full 0
DRAM_total_dbus_congested 11157801
DRAM_avg_congested_cycle 15.3263

====== DRAM_RQ_TRAFFIC ========
DRAM_RQ_READ_TRAFFIC_BREAKDOWN:
data_demand_read.count = 2063996
data_demand_read.share = 97.39%

inst_demand_read.count = 0
inst_demand_read.share = 0.00%

cache_inst_prefetch.count = 0
cache_inst_prefetch.share = 0.00%

cache_data_prefetch.count = 0
cache_data_prefetch.share = 0.00%

stlb_data_demand.count = 55203
stlb_data_demand.share = 2.60%

stlb_inst_demand.count = 60
stlb_inst_demand.share = 0.00%

stlb_l1i_pref.count = 0
stlb_l1i_pref.share = 0.00%

stlb_l1d_pref.count = 0
stlb_l1d_pref.share = 0.00%

DRAM_RQ_READ_TRAFFIC_SUMMARY:
cache_demand.count = 2063996
cache_demand.share = 97.39%

cache_prefetch.count = 0
cache_prefetch.share = 0.00%

stlb_demand.count = 55263
stlb_demand.share = 2.61%

stlb_prefetch.count = 0
stlb_prefetch.share = 0.00%

DRAM_RQ_READ_TRAFFIC_DEBUG:
total_classified_read.count = 2119259
unclassified_read.count = 0
total_read_with_other.count = 2119259

classified_plus_unclassified_check.count = 2119259
dram_rq_read_total_observed.count = 2119259
dram_rq_read_total_observed.per_1K_instructions = 21.1926

STLB_MISS_PTW_DRAM_TOUCH_BREAKDOWN:
stlb_miss_total.count = 265958

stlb_miss_touch_dram.count = 55095
stlb_miss_touch_dram.share = 20.72%

stlb_miss_no_dram_touch.count = 210863
stlb_miss_no_dram_touch.share = 79.28%

STLB_MISS_PTW_DRAM_TOUCH_DEBUG:
stlb_miss_touch_plus_no_touch.count = 265958
stlb_miss_total_check.count = 265958

======STLB miss causes ========
Core_0_STLB_miss_cause_breakdown
Core_0_STLB_cause_Demand_Data_miss 265904
Core_0_STLB_cause_Demand_Data_miss_rate 0.524134
Core_0_STLB_cause_Demand_Instruction_miss 54
Core_0_STLB_cause_Demand_Instruction_miss_rate 0.000106441
Core_0_STLB_cause_L1D_Prefetch_miss 0
Core_0_STLB_cause_L1D_Prefetch_miss_rate 0
Core_0_STLB_cause_L1I_Prefetch_miss 0
Core_0_STLB_cause_L1I_Prefetch_miss_rate 0
Core_0_STLB_cause_Other_miss 0
Core_0_STLB_cause_Other_miss_rate 0
Core_0_STLB_Demand_miss 265958
Core_0_STLB_Demand_miss_rate 0.52424
Core_0_STLB_L1D_Prefetch_miss 0
Core_0_STLB_L1D_Prefetch_miss_rate 0
Core_0_STLB_Other_miss 0
Core_0_STLB_Other_miss_rate 0
