[VMEM] WARNING: physical memory size is smaller than virtual memory size.

*** ChampSim Multicore Out-of-Order Simulator ***
Warmup Instructions: 50000000
Simulation Instructions: 100000000
Number of CPUs: 1
Page size: 4096
Core 0: /data0/tzh/champsim_traces/Ligra/ligra_Components.com-lj.ungraph.gcc_6.3.0_O3.drop_6250M.length_250M.champsimtrace.xz
Off-chip DRAM Size: 16 GiB Channels: 1 Width: 64-bit Data Rate: 3205 MT/s
Warmup halting CPU 0 at instruction 50000002 cycle 18942908 for remainder of phase
Warmup finished CPU 0 instructions: 50000002 cycles: 18942908 cumulative IPC: 2.64 (Simulation time: 00 hr 03 min 08 sec)
Warmup complete CPU 0 instructions: 50000002 cycles: 18942908 cumulative IPC: 2.64 (Simulation time: 00 hr 03 min 08 sec)
Simulation finished CPU 0 instructions: 100000002 cycles: 147197183 cumulative IPC: 0.6794 (Simulation time: 00 hr 20 min 50 sec)
Simulation complete CPU 0 instructions: 100000002 cycles: 147197183 cumulative IPC: 0.6794 (Simulation time: 00 hr 20 min 50 sec)

ChampSim completed all CPUs

=== Simulation ===
CPU 0 runs /data0/tzh/champsim_traces/Ligra/ligra_Components.com-lj.ungraph.gcc_6.3.0_O3.drop_6250M.length_250M.champsimtrace.xz

Region of Interest Statistics

CPU 0 cumulative IPC: 0.6794 instructions: 100000002 cycles: 147197183
CPU 0 Branch Prediction Accuracy: 99.2% MPKI: 1.856 Average ROB Occupancy at Mispredict: 147.6
Branch type MPKI
BRANCH_DIRECT_JUMP: 0.0004
BRANCH_INDIRECT: 9e-05
BRANCH_CONDITIONAL: 1.855
BRANCH_DIRECT_CALL: 0.00022
BRANCH_INDIRECT_CALL: 1e-05
BRANCH_RETURN: 0.00024

cpu0->cpu0_STLB TOTAL        ACCESS:      51771 HIT:          7 MISS:      51764 MSHR_MERGE:          0
cpu0->cpu0_STLB LOAD         ACCESS:      51771 HIT:          7 MISS:      51764 MSHR_MERGE:          0
cpu0->cpu0_STLB RFO          ACCESS:          0 HIT:          0 MISS:          0 MSHR_MERGE:          0
cpu0->cpu0_STLB PREFETCH     ACCESS:          0 HIT:          0 MISS:          0 MSHR_MERGE:          0
cpu0->cpu0_STLB WRITE        ACCESS:          0 HIT:          0 MISS:          0 MSHR_MERGE:          0
cpu0->cpu0_STLB TRANSLATION  ACCESS:          0 HIT:          0 MISS:          0 MSHR_MERGE:          0
cpu0->cpu0_STLB PREFETCH REQUESTED:          0 ISSUED:          0 USEFUL:          0 USELESS:          0 LATE:          0
cpu0->cpu0_STLB AVERAGE MISS LATENCY: 287.3 cycles
cpu0->cpu0_L2C TOTAL        ACCESS:    4947846 HIT:    1633259 MISS:    3314587 MSHR_MERGE:          0
cpu0->cpu0_L2C LOAD         ACCESS:    1674964 HIT:          0 MISS:    1674964 MSHR_MERGE:          0
cpu0->cpu0_L2C RFO          ACCESS:    1633009 HIT:          0 MISS:    1633009 MSHR_MERGE:          0
cpu0->cpu0_L2C PREFETCH     ACCESS:          0 HIT:          0 MISS:          0 MSHR_MERGE:          0
cpu0->cpu0_L2C WRITE        ACCESS:    1633259 HIT:    1633259 MISS:          0 MSHR_MERGE:          0
cpu0->cpu0_L2C TRANSLATION  ACCESS:       6614 HIT:          0 MISS:       6614 MSHR_MERGE:          0
cpu0->cpu0_L2C PREFETCH REQUESTED:          0 ISSUED:          0 USEFUL:          0 USELESS:          0 LATE:          0
cpu0->cpu0_L2C AVERAGE MISS LATENCY: 442.7 cycles
cpu0->cpu0_L1I TOTAL        ACCESS:    7472707 HIT:    7472525 MISS:        182 MSHR_MERGE:         26
cpu0->cpu0_L1I LOAD         ACCESS:    7472707 HIT:    7472525 MISS:        182 MSHR_MERGE:         26
cpu0->cpu0_L1I RFO          ACCESS:          0 HIT:          0 MISS:          0 MSHR_MERGE:          0
cpu0->cpu0_L1I PREFETCH     ACCESS:          0 HIT:          0 MISS:          0 MSHR_MERGE:          0
cpu0->cpu0_L1I WRITE        ACCESS:          0 HIT:          0 MISS:          0 MSHR_MERGE:          0
cpu0->cpu0_L1I TRANSLATION  ACCESS:          0 HIT:          0 MISS:          0 MSHR_MERGE:          0
cpu0->cpu0_L1I PREFETCH REQUESTED:          0 ISSUED:          0 USEFUL:          0 USELESS:          0 LATE:          0
cpu0->cpu0_L1I AVERAGE MISS LATENCY: 216.7 cycles
cpu0->cpu0_L1D TOTAL        ACCESS:   17738680 HIT:    7476685 MISS:   10261995 MSHR_MERGE:    6947564
cpu0->cpu0_L1D LOAD         ACCESS:    8490569 HIT:    4637958 MISS:    3852611 MSHR_MERGE:    2177803
cpu0->cpu0_L1D RFO          ACCESS:          0 HIT:          0 MISS:          0 MSHR_MERGE:          0
cpu0->cpu0_L1D PREFETCH     ACCESS:          0 HIT:          0 MISS:          0 MSHR_MERGE:          0
cpu0->cpu0_L1D WRITE        ACCESS:    9144465 HIT:    2741698 MISS:    6402767 MSHR_MERGE:    4769758
cpu0->cpu0_L1D TRANSLATION  ACCESS:     103646 HIT:      97029 MISS:       6617 MSHR_MERGE:          3
cpu0->cpu0_L1D PREFETCH REQUESTED:          0 ISSUED:          0 USEFUL:          0 USELESS:          0 LATE:          0
cpu0->cpu0_L1D AVERAGE MISS LATENCY: 452 cycles
cpu0->cpu0_ITLB TOTAL        ACCESS:    7437658 HIT:    7437614 MISS:         44 MSHR_MERGE:         17
cpu0->cpu0_ITLB LOAD         ACCESS:    7437658 HIT:    7437614 MISS:         44 MSHR_MERGE:         17
cpu0->cpu0_ITLB RFO          ACCESS:          0 HIT:          0 MISS:          0 MSHR_MERGE:          0
cpu0->cpu0_ITLB PREFETCH     ACCESS:          0 HIT:          0 MISS:          0 MSHR_MERGE:          0
cpu0->cpu0_ITLB WRITE        ACCESS:          0 HIT:          0 MISS:          0 MSHR_MERGE:          0
cpu0->cpu0_ITLB TRANSLATION  ACCESS:          0 HIT:          0 MISS:          0 MSHR_MERGE:          0
cpu0->cpu0_ITLB PREFETCH REQUESTED:          0 ISSUED:          0 USEFUL:          0 USELESS:          0 LATE:          0
cpu0->cpu0_ITLB AVERAGE MISS LATENCY: 383.2 cycles
cpu0->cpu0_DTLB TOTAL        ACCESS:   16166060 HIT:   15570652 MISS:     595408 MSHR_MERGE:     543664
cpu0->cpu0_DTLB LOAD         ACCESS:   16166060 HIT:   15570652 MISS:     595408 MSHR_MERGE:     543664
cpu0->cpu0_DTLB RFO          ACCESS:          0 HIT:          0 MISS:          0 MSHR_MERGE:          0
cpu0->cpu0_DTLB PREFETCH     ACCESS:          0 HIT:          0 MISS:          0 MSHR_MERGE:          0
cpu0->cpu0_DTLB WRITE        ACCESS:          0 HIT:          0 MISS:          0 MSHR_MERGE:          0
cpu0->cpu0_DTLB TRANSLATION  ACCESS:          0 HIT:          0 MISS:          0 MSHR_MERGE:          0
cpu0->cpu0_DTLB PREFETCH REQUESTED:          0 ISSUED:          0 USEFUL:          0 USELESS:          0 LATE:          0
cpu0->cpu0_DTLB AVERAGE MISS LATENCY: 293.3 cycles
cpu0->LLC TOTAL        ACCESS:    4950306 HIT:    1437709 MISS:    3512597 MSHR_MERGE:          0
cpu0->LLC LOAD         ACCESS:    1674964 HIT:          0 MISS:    1674964 MSHR_MERGE:          0
cpu0->LLC RFO          ACCESS:    1633009 HIT:          0 MISS:    1633009 MSHR_MERGE:          0
cpu0->LLC PREFETCH     ACCESS:          0 HIT:          0 MISS:          0 MSHR_MERGE:          0
cpu0->LLC WRITE        ACCESS:    1635719 HIT:    1437708 MISS:     198011 MSHR_MERGE:          0
cpu0->LLC TRANSLATION  ACCESS:       6614 HIT:          1 MISS:       6613 MSHR_MERGE:          0
cpu0->LLC PREFETCH REQUESTED:          0 ISSUED:          0 USEFUL:          0 USELESS:          0 LATE:          0
cpu0->LLC AVERAGE MISS LATENCY: 403.1 cycles

DRAM Statistics

Channel 0 RQ ROW_BUFFER_HIT:     100954
  ROW_BUFFER_MISS:    3213632
  AVG DBUS CONGESTED CYCLE: 6.374
Channel 0 WQ ROW_BUFFER_HIT:     241786
  ROW_BUFFER_MISS:    1401290
  FULL:          0
Channel 0 REFRESHES ISSUED:      12267

[ROI Statistics]
[System Configuration]
num_cpus 1
cpu_freq 4000
fetch_width 6
decode_width 6
dispatch_width 6
execute_width 6
lq_width 2
sq_width 2
retire_width 6
scheduler_size 128
branch_mispredict_penalty 15
rob_size 352
lq_size 128
sq_size 72
ifetch_buffer_size 64
decode_buffer_size 32
dispatch_buffer_size 32
register_file_size 288
decode_latency 1
dispatch_latency 1
schedule_latency 1
execute_latency 1
page_size 4096
block_size 64
core_0_itlb_set 16
core_0_itlb_way 4
core_0_itlb_rq_size 16
core_0_itlb_wq_size 16
core_0_itlb_pq_size 0
core_0_itlb_mshr_size 8
core_0_itlb_hit_latency 1
core_0_itlb_fill_latency 1
core_0_itlb_max_tag_check 2
core_0_itlb_max_fill 2
core_0_dtlb_set 16
core_0_dtlb_way 4
core_0_dtlb_rq_size 16
core_0_dtlb_wq_size 16
core_0_dtlb_pq_size 0
core_0_dtlb_mshr_size 8
core_0_dtlb_hit_latency 1
core_0_dtlb_fill_latency 1
core_0_dtlb_max_tag_check 2
core_0_dtlb_max_fill 2
core_0_stlb_set 128
core_0_stlb_way 12
core_0_stlb_rq_size 32
core_0_stlb_wq_size 32
core_0_stlb_pq_size 0
core_0_stlb_mshr_size 16
core_0_stlb_hit_latency 4
core_0_stlb_fill_latency 4
core_0_stlb_max_tag_check 1
core_0_stlb_max_fill 1
core_0_l1i_set 64
core_0_l1i_way 8
core_0_l1i_rq_size 64
core_0_l1i_wq_size 64
core_0_l1i_pq_size 32
core_0_l1i_mshr_size 8
core_0_l1i_hit_latency 2
core_0_l1i_fill_latency 2
core_0_l1i_max_tag_check 2
core_0_l1i_max_fill 2
core_0_l1d_set 64
core_0_l1d_way 12
core_0_l1d_rq_size 64
core_0_l1d_wq_size 64
core_0_l1d_pq_size 8
core_0_l1d_mshr_size 16
core_0_l1d_hit_latency 2
core_0_l1d_fill_latency 3
core_0_l1d_max_tag_check 2
core_0_l1d_max_fill 2
core_0_l2c_set 1024
core_0_l2c_way 8
core_0_l2c_rq_size 32
core_0_l2c_wq_size 32
core_0_l2c_pq_size 16
core_0_l2c_mshr_size 32
core_0_l2c_hit_latency 5
core_0_l2c_fill_latency 5
core_0_l2c_max_tag_check 1
core_0_l2c_max_fill 1
llc_set 2048
llc_way 16
llc_rq_size 32
llc_wq_size 32
llc_pq_size 32
llc_mshr_size 64
llc_hit_latency 10
llc_fill_latency 10
llc_max_tag_check 1
llc_max_fill 1
dram_channels 1
dram_ranks 1
dram_bankgroups 8
dram_banks 4
dram_rows 65536
dram_columns 1024
dram_channel_width 8
dram_rq_size 64
dram_wq_size 64
dram_size 17179869184
core_0_itlb_prefetcher no
core_0_dtlb_prefetcher no
core_0_stlb_prefetcher no
core_0_l1i_prefetcher no
core_0_l1d_prefetcher no
core_0_l2c_prefetcher no
llc_prefetcher no
llc_replacement drrip

Core_0_instructions 100000002
Core_0_cycles 147197183
Core_0_IPC 0.679361
Core_0_branch_prediction_accuracy 99.1978
Core_0_branch_MPKI 1.85605
Core_0_average_ROB_occupancy_at_mispredict 147.603

Core_0_ITLB_total_access 7437658
Core_0_ITLB_total_hit 7437614
Core_0_ITLB_total_miss 44
Core_0_ITLB_total_MPKI 0.00044
Core_0_ITLB_total_miss_rate 5.91584e-06
Core_0_ITLB_demand_access 7437658
Core_0_ITLB_demand_hit 7437614
Core_0_ITLB_demand_miss 44
Core_0_ITLB_demand_MPKI 0.00044
Core_0_ITLB_demand_miss_rate 5.91584e-06
Core_0_ITLB_load_access 7437658
Core_0_ITLB_load_hit 7437614
Core_0_ITLB_load_miss 44
Core_0_ITLB_load_MPKI 0.00044
Core_0_ITLB_load_miss_rate 5.91584e-06
Core_0_ITLB_rfo_access 0
Core_0_ITLB_rfo_hit 0
Core_0_ITLB_rfo_miss 0
Core_0_ITLB_rfo_MPKI 0
Core_0_ITLB_rfo_miss_rate 0
Core_0_ITLB_prefetch_access 0
Core_0_ITLB_prefetch_hit 0
Core_0_ITLB_prefetch_miss 0
Core_0_ITLB_prefetch_MPKI 0
Core_0_ITLB_prefetch_miss_rate 0
Core_0_ITLB_writeback_access 0
Core_0_ITLB_writeback_hit 0
Core_0_ITLB_writeback_miss 0
Core_0_ITLB_writeback_MPKI 0
Core_0_ITLB_writeback_miss_rate 0
Core_0_ITLB_prefetch_requested 0
Core_0_ITLB_prefetch_issued 0
Core_0_ITLB_prefetch_useful 0
Core_0_ITLB_prefetch_useless 0
Core_0_ITLB_prefetch_late 0
Core_0_ITLB_prefetch_accuracy 0
Core_0_ITLB_prefetch_coverage 0

Core_0_DTLB_total_access 16166060
Core_0_DTLB_total_hit 15570652
Core_0_DTLB_total_miss 595408
Core_0_DTLB_total_MPKI 5.95408
Core_0_DTLB_total_miss_rate 0.0368307
Core_0_DTLB_demand_access 16166060
Core_0_DTLB_demand_hit 15570652
Core_0_DTLB_demand_miss 595408
Core_0_DTLB_demand_MPKI 5.95408
Core_0_DTLB_demand_miss_rate 0.0368307
Core_0_DTLB_load_access 16166060
Core_0_DTLB_load_hit 15570652
Core_0_DTLB_load_miss 595408
Core_0_DTLB_load_MPKI 5.95408
Core_0_DTLB_load_miss_rate 0.0368307
Core_0_DTLB_rfo_access 0
Core_0_DTLB_rfo_hit 0
Core_0_DTLB_rfo_miss 0
Core_0_DTLB_rfo_MPKI 0
Core_0_DTLB_rfo_miss_rate 0
Core_0_DTLB_prefetch_access 0
Core_0_DTLB_prefetch_hit 0
Core_0_DTLB_prefetch_miss 0
Core_0_DTLB_prefetch_MPKI 0
Core_0_DTLB_prefetch_miss_rate 0
Core_0_DTLB_writeback_access 0
Core_0_DTLB_writeback_hit 0
Core_0_DTLB_writeback_miss 0
Core_0_DTLB_writeback_MPKI 0
Core_0_DTLB_writeback_miss_rate 0
Core_0_DTLB_prefetch_requested 0
Core_0_DTLB_prefetch_issued 0
Core_0_DTLB_prefetch_useful 0
Core_0_DTLB_prefetch_useless 0
Core_0_DTLB_prefetch_late 0
Core_0_DTLB_prefetch_accuracy 0
Core_0_DTLB_prefetch_coverage 0

Core_0_STLB_total_access 51771
Core_0_STLB_total_hit 7
Core_0_STLB_total_miss 51764
Core_0_STLB_total_MPKI 0.51764
Core_0_STLB_total_miss_rate 0.999865
Core_0_STLB_demand_access 51771
Core_0_STLB_demand_hit 7
Core_0_STLB_demand_miss 51764
Core_0_STLB_demand_MPKI 0.51764
Core_0_STLB_demand_miss_rate 0.999865
Core_0_STLB_load_access 51771
Core_0_STLB_load_hit 7
Core_0_STLB_load_miss 51764
Core_0_STLB_load_MPKI 0.51764
Core_0_STLB_load_miss_rate 0.999865
Core_0_STLB_rfo_access 0
Core_0_STLB_rfo_hit 0
Core_0_STLB_rfo_miss 0
Core_0_STLB_rfo_MPKI 0
Core_0_STLB_rfo_miss_rate 0
Core_0_STLB_prefetch_access 0
Core_0_STLB_prefetch_hit 0
Core_0_STLB_prefetch_miss 0
Core_0_STLB_prefetch_MPKI 0
Core_0_STLB_prefetch_miss_rate 0
Core_0_STLB_writeback_access 0
Core_0_STLB_writeback_hit 0
Core_0_STLB_writeback_miss 0
Core_0_STLB_writeback_MPKI 0
Core_0_STLB_writeback_miss_rate 0
Core_0_STLB_prefetch_requested 0
Core_0_STLB_prefetch_issued 0
Core_0_STLB_prefetch_useful 0
Core_0_STLB_prefetch_useless 0
Core_0_STLB_prefetch_late 0
Core_0_STLB_prefetch_accuracy 0
Core_0_STLB_prefetch_coverage 0

Core_0_L1I_total_access 7472707
Core_0_L1I_total_hit 7472525
Core_0_L1I_total_miss 182
Core_0_L1I_total_MPKI 0.00182
Core_0_L1I_total_miss_rate 2.43553e-05
Core_0_L1I_demand_access 7472707
Core_0_L1I_demand_hit 7472525
Core_0_L1I_demand_miss 182
Core_0_L1I_demand_MPKI 0.00182
Core_0_L1I_demand_miss_rate 2.43553e-05
Core_0_L1I_load_access 7472707
Core_0_L1I_load_hit 7472525
Core_0_L1I_load_miss 182
Core_0_L1I_load_MPKI 0.00182
Core_0_L1I_load_miss_rate 2.43553e-05
Core_0_L1I_rfo_access 0
Core_0_L1I_rfo_hit 0
Core_0_L1I_rfo_miss 0
Core_0_L1I_rfo_MPKI 0
Core_0_L1I_rfo_miss_rate 0
Core_0_L1I_prefetch_access 0
Core_0_L1I_prefetch_hit 0
Core_0_L1I_prefetch_miss 0
Core_0_L1I_prefetch_MPKI 0
Core_0_L1I_prefetch_miss_rate 0
Core_0_L1I_writeback_access 0
Core_0_L1I_writeback_hit 0
Core_0_L1I_writeback_miss 0
Core_0_L1I_writeback_MPKI 0
Core_0_L1I_writeback_miss_rate 0
Core_0_L1I_prefetch_requested 0
Core_0_L1I_prefetch_issued 0
Core_0_L1I_prefetch_useful 0
Core_0_L1I_prefetch_useless 0
Core_0_L1I_prefetch_late 0
Core_0_L1I_prefetch_accuracy 0
Core_0_L1I_prefetch_coverage 0

Core_0_L1D_total_access 17635034
Core_0_L1D_total_hit 7379656
Core_0_L1D_total_miss 10255378
Core_0_L1D_total_MPKI 102.554
Core_0_L1D_total_miss_rate 0.581534
Core_0_L1D_demand_access 8490569
Core_0_L1D_demand_hit 4637958
Core_0_L1D_demand_miss 3852611
Core_0_L1D_demand_MPKI 38.5261
Core_0_L1D_demand_miss_rate 0.453752
Core_0_L1D_load_access 8490569
Core_0_L1D_load_hit 4637958
Core_0_L1D_load_miss 3852611
Core_0_L1D_load_MPKI 38.5261
Core_0_L1D_load_miss_rate 0.453752
Core_0_L1D_rfo_access 0
Core_0_L1D_rfo_hit 0
Core_0_L1D_rfo_miss 0
Core_0_L1D_rfo_MPKI 0
Core_0_L1D_rfo_miss_rate 0
Core_0_L1D_prefetch_access 0
Core_0_L1D_prefetch_hit 0
Core_0_L1D_prefetch_miss 0
Core_0_L1D_prefetch_MPKI 0
Core_0_L1D_prefetch_miss_rate 0
Core_0_L1D_writeback_access 9144465
Core_0_L1D_writeback_hit 2741698
Core_0_L1D_writeback_miss 6402767
Core_0_L1D_writeback_MPKI 64.0277
Core_0_L1D_writeback_miss_rate 0.70018
Core_0_L1D_prefetch_requested 0
Core_0_L1D_prefetch_issued 0
Core_0_L1D_prefetch_useful 0
Core_0_L1D_prefetch_useless 0
Core_0_L1D_prefetch_late 0
Core_0_L1D_prefetch_accuracy 0
Core_0_L1D_prefetch_coverage 0

Core_0_L2C_total_access 4941232
Core_0_L2C_total_hit 1633259
Core_0_L2C_total_miss 3307973
Core_0_L2C_total_MPKI 33.0797
Core_0_L2C_total_miss_rate 0.669463
Core_0_L2C_demand_access 3307973
Core_0_L2C_demand_hit 0
Core_0_L2C_demand_miss 3307973
Core_0_L2C_demand_MPKI 33.0797
Core_0_L2C_demand_miss_rate 1
Core_0_L2C_load_access 1674964
Core_0_L2C_load_hit 0
Core_0_L2C_load_miss 1674964
Core_0_L2C_load_MPKI 16.7496
Core_0_L2C_load_miss_rate 1
Core_0_L2C_rfo_access 1633009
Core_0_L2C_rfo_hit 0
Core_0_L2C_rfo_miss 1633009
Core_0_L2C_rfo_MPKI 16.3301
Core_0_L2C_rfo_miss_rate 1
Core_0_L2C_prefetch_access 0
Core_0_L2C_prefetch_hit 0
Core_0_L2C_prefetch_miss 0
Core_0_L2C_prefetch_MPKI 0
Core_0_L2C_prefetch_miss_rate 0
Core_0_L2C_writeback_access 1633259
Core_0_L2C_writeback_hit 1633259
Core_0_L2C_writeback_miss 0
Core_0_L2C_writeback_MPKI 0
Core_0_L2C_writeback_miss_rate 0
Core_0_L2C_prefetch_requested 0
Core_0_L2C_prefetch_issued 0
Core_0_L2C_prefetch_useful 0
Core_0_L2C_prefetch_useless 0
Core_0_L2C_prefetch_late 0
Core_0_L2C_prefetch_accuracy 0
Core_0_L2C_prefetch_coverage 0

Core_0_LLC_total_access 4943692
Core_0_LLC_total_hit 1437708
Core_0_LLC_total_miss 3505984
Core_0_LLC_total_MPKI 35.0598
Core_0_LLC_total_miss_rate 0.709183
Core_0_LLC_demand_access 3307973
Core_0_LLC_demand_hit 0
Core_0_LLC_demand_miss 3307973
Core_0_LLC_demand_MPKI 33.0797
Core_0_LLC_demand_miss_rate 1
Core_0_LLC_load_access 1674964
Core_0_LLC_load_hit 0
Core_0_LLC_load_miss 1674964
Core_0_LLC_load_MPKI 16.7496
Core_0_LLC_load_miss_rate 1
Core_0_LLC_rfo_access 1633009
Core_0_LLC_rfo_hit 0
Core_0_LLC_rfo_miss 1633009
Core_0_LLC_rfo_MPKI 16.3301
Core_0_LLC_rfo_miss_rate 1
Core_0_LLC_prefetch_access 0
Core_0_LLC_prefetch_hit 0
Core_0_LLC_prefetch_miss 0
Core_0_LLC_prefetch_MPKI 0
Core_0_LLC_prefetch_miss_rate 0
Core_0_LLC_writeback_access 1635719
Core_0_LLC_writeback_hit 1437708
Core_0_LLC_writeback_miss 198011
Core_0_LLC_writeback_MPKI 1.98011
Core_0_LLC_writeback_miss_rate 0.121054
Core_0_LLC_prefetch_requested 0
Core_0_LLC_prefetch_issued 0
Core_0_LLC_prefetch_useful 0
Core_0_LLC_prefetch_useless 0
Core_0_LLC_prefetch_late 0
Core_0_LLC_prefetch_accuracy 0
Core_0_LLC_prefetch_coverage 0

[DRAM Statistics]
Channel_0_RQ_row_buffer_hit 100954
Channel_0_RQ_row_buffer_miss 3213632
Channel_0_WQ_row_buffer_hit 241786
Channel_0_WQ_row_buffer_miss 1401290
Channel_0_WQ_full 0
Channel_0_dbus_congested 16057998
DRAM_total_RQ_row_buffer_hit 100954
DRAM_total_RQ_row_buffer_miss 3213632
DRAM_total_WQ_row_buffer_hit 241786
DRAM_total_WQ_row_buffer_miss 1401290
DRAM_total_WQ_full 0
DRAM_total_dbus_congested 16057998
DRAM_avg_congested_cycle 6.37417

====== DRAM_RQ_TRAFFIC ========
DRAM_RQ_READ_TRAFFIC_BREAKDOWN:
data_demand_read.count = 3307817
data_demand_read.share = 99.80%

inst_demand_read.count = 156
inst_demand_read.share = 0.00%

cache_inst_prefetch.count = 0
cache_inst_prefetch.share = 0.00%

cache_data_prefetch.count = 0
cache_data_prefetch.share = 0.00%

stlb_data_demand.count = 6597
stlb_data_demand.share = 0.20%

stlb_inst_demand.count = 16
stlb_inst_demand.share = 0.00%

stlb_l1i_pref.count = 0
stlb_l1i_pref.share = 0.00%

stlb_l1d_pref.count = 0
stlb_l1d_pref.share = 0.00%

DRAM_RQ_READ_TRAFFIC_SUMMARY:
cache_demand.count = 3307973
cache_demand.share = 99.80%

cache_prefetch.count = 0
cache_prefetch.share = 0.00%

stlb_demand.count = 6613
stlb_demand.share = 0.20%

stlb_prefetch.count = 0
stlb_prefetch.share = 0.00%

DRAM_RQ_READ_TRAFFIC_DEBUG:
total_classified_read.count = 3314586
unclassified_read.count = 0
total_read_with_other.count = 3314586

classified_plus_unclassified_check.count = 3314586
dram_rq_read_total_observed.count = 3314586
dram_rq_read_total_observed.per_1K_instructions = 33.1459

STLB_MISS_PTW_DRAM_TOUCH_BREAKDOWN:
stlb_miss_total.count = 51764

stlb_miss_touch_dram.count = 6504
stlb_miss_touch_dram.share = 12.56%

stlb_miss_no_dram_touch.count = 45260
stlb_miss_no_dram_touch.share = 87.44%

STLB_MISS_PTW_DRAM_TOUCH_DEBUG:
stlb_miss_touch_plus_no_touch.count = 51764
stlb_miss_total_check.count = 51764

======STLB miss causes ========
Core_0_STLB_miss_cause_breakdown
Core_0_STLB_cause_Demand_Data_miss 51738
Core_0_STLB_cause_Demand_Data_miss_rate 0.999363
Core_0_STLB_cause_Demand_Instruction_miss 26
Core_0_STLB_cause_Demand_Instruction_miss_rate 0.000502212
Core_0_STLB_cause_L1D_Prefetch_miss 0
Core_0_STLB_cause_L1D_Prefetch_miss_rate 0
Core_0_STLB_cause_L1I_Prefetch_miss 0
Core_0_STLB_cause_L1I_Prefetch_miss_rate 0
Core_0_STLB_cause_Other_miss 0
Core_0_STLB_cause_Other_miss_rate 0
Core_0_STLB_Demand_miss 51764
Core_0_STLB_Demand_miss_rate 0.999865
Core_0_STLB_L1D_Prefetch_miss 0
Core_0_STLB_L1D_Prefetch_miss_rate 0
Core_0_STLB_Other_miss 0
Core_0_STLB_Other_miss_rate 0
