[VMEM] WARNING: physical memory size is smaller than virtual memory size.

*** ChampSim Multicore Out-of-Order Simulator ***
Warmup Instructions: 50000000
Simulation Instructions: 100000000
Number of CPUs: 1
Page size: 4096
Core 0: /data0/tzh/champsim_traces/Ligra/ligra_Triangle.com-lj.ungraph.gcc_6.3.0_O3.drop_6000M.length_250M.champsimtrace.xz
Off-chip DRAM Size: 16 GiB Channels: 1 Width: 64-bit Data Rate: 3205 MT/s
Warmup halting CPU 0 at instruction 50000002 cycle 19119241 for remainder of phase
Warmup finished CPU 0 instructions: 50000002 cycles: 19119241 cumulative IPC: 2.615 (Simulation time: 00 hr 02 min 00 sec)
Warmup complete CPU 0 instructions: 50000002 cycles: 19119241 cumulative IPC: 2.615 (Simulation time: 00 hr 02 min 00 sec)
Simulation finished CPU 0 instructions: 100000001 cycles: 95280453 cumulative IPC: 1.05 (Simulation time: 00 hr 14 min 54 sec)
Simulation complete CPU 0 instructions: 100000001 cycles: 95280453 cumulative IPC: 1.05 (Simulation time: 00 hr 14 min 54 sec)

ChampSim completed all CPUs

=== Simulation ===
CPU 0 runs /data0/tzh/champsim_traces/Ligra/ligra_Triangle.com-lj.ungraph.gcc_6.3.0_O3.drop_6000M.length_250M.champsimtrace.xz

Region of Interest Statistics

CPU 0 cumulative IPC: 1.05 instructions: 100000001 cycles: 95280453
CPU 0 Branch Prediction Accuracy: 99.98% MPKI: 0.09285 Average ROB Occupancy at Mispredict: 352
Branch type MPKI
BRANCH_DIRECT_JUMP: 0
BRANCH_INDIRECT: 0
BRANCH_CONDITIONAL: 0.09285
BRANCH_DIRECT_CALL: 0
BRANCH_INDIRECT_CALL: 0
BRANCH_RETURN: 0

cpu0->cpu0_STLB TOTAL        ACCESS:       9303 HIT:          0 MISS:       9303 MSHR_MERGE:          0
cpu0->cpu0_STLB LOAD         ACCESS:       9303 HIT:          0 MISS:       9303 MSHR_MERGE:          0
cpu0->cpu0_STLB RFO          ACCESS:          0 HIT:          0 MISS:          0 MSHR_MERGE:          0
cpu0->cpu0_STLB PREFETCH     ACCESS:          0 HIT:          0 MISS:          0 MSHR_MERGE:          0
cpu0->cpu0_STLB WRITE        ACCESS:          0 HIT:          0 MISS:          0 MSHR_MERGE:          0
cpu0->cpu0_STLB TRANSLATION  ACCESS:          0 HIT:          0 MISS:          0 MSHR_MERGE:          0
cpu0->cpu0_STLB PREFETCH REQUESTED:          0 ISSUED:          0 USEFUL:          0 USELESS:          0 LATE:          0
cpu0->cpu0_STLB AVERAGE MISS LATENCY: 245.1 cycles
cpu0->cpu0_L2C TOTAL        ACCESS:     893718 HIT:     297118 MISS:     596600 MSHR_MERGE:          0
cpu0->cpu0_L2C LOAD         ACCESS:     298282 HIT:          0 MISS:     298282 MSHR_MERGE:          0
cpu0->cpu0_L2C RFO          ACCESS:     297122 HIT:          0 MISS:     297122 MSHR_MERGE:          0
cpu0->cpu0_L2C PREFETCH     ACCESS:          0 HIT:          0 MISS:          0 MSHR_MERGE:          0
cpu0->cpu0_L2C WRITE        ACCESS:     297118 HIT:     297118 MISS:          0 MSHR_MERGE:          0
cpu0->cpu0_L2C TRANSLATION  ACCESS:       1196 HIT:          0 MISS:       1196 MSHR_MERGE:          0
cpu0->cpu0_L2C PREFETCH REQUESTED:          0 ISSUED:          0 USEFUL:          0 USELESS:          0 LATE:          0
cpu0->cpu0_L2C AVERAGE MISS LATENCY: 259.5 cycles
cpu0->cpu0_L1I TOTAL        ACCESS:   36309751 HIT:   36309751 MISS:          0 MSHR_MERGE:          0
cpu0->cpu0_L1I LOAD         ACCESS:   36309751 HIT:   36309751 MISS:          0 MSHR_MERGE:          0
cpu0->cpu0_L1I RFO          ACCESS:          0 HIT:          0 MISS:          0 MSHR_MERGE:          0
cpu0->cpu0_L1I PREFETCH     ACCESS:          0 HIT:          0 MISS:          0 MSHR_MERGE:          0
cpu0->cpu0_L1I WRITE        ACCESS:          0 HIT:          0 MISS:          0 MSHR_MERGE:          0
cpu0->cpu0_L1I TRANSLATION  ACCESS:          0 HIT:          0 MISS:          0 MSHR_MERGE:          0
cpu0->cpu0_L1I PREFETCH REQUESTED:          0 ISSUED:          0 USEFUL:          0 USELESS:          0 LATE:          0
cpu0->cpu0_L1I AVERAGE MISS LATENCY: - cycles
cpu0->cpu0_L1D TOTAL        ACCESS:   21316993 HIT:    6006857 MISS:   15310136 MSHR_MERGE:   14713536
cpu0->cpu0_L1D LOAD         ACCESS:   18921395 HIT:    5979109 MISS:   12942286 MSHR_MERGE:   12644004
cpu0->cpu0_L1D RFO          ACCESS:          0 HIT:          0 MISS:          0 MSHR_MERGE:          0
cpu0->cpu0_L1D PREFETCH     ACCESS:          0 HIT:          0 MISS:          0 MSHR_MERGE:          0
cpu0->cpu0_L1D WRITE        ACCESS:    2376974 HIT:      10320 MISS:    2366654 MSHR_MERGE:    2069532
cpu0->cpu0_L1D TRANSLATION  ACCESS:      18624 HIT:      17428 MISS:       1196 MSHR_MERGE:          0
cpu0->cpu0_L1D PREFETCH REQUESTED:          0 ISSUED:          0 USEFUL:          0 USELESS:          0 LATE:          0
cpu0->cpu0_L1D AVERAGE MISS LATENCY: 268.5 cycles
cpu0->cpu0_ITLB TOTAL        ACCESS:   36261610 HIT:   36261610 MISS:          0 MSHR_MERGE:          0
cpu0->cpu0_ITLB LOAD         ACCESS:   36261610 HIT:   36261610 MISS:          0 MSHR_MERGE:          0
cpu0->cpu0_ITLB RFO          ACCESS:          0 HIT:          0 MISS:          0 MSHR_MERGE:          0
cpu0->cpu0_ITLB PREFETCH     ACCESS:          0 HIT:          0 MISS:          0 MSHR_MERGE:          0
cpu0->cpu0_ITLB WRITE        ACCESS:          0 HIT:          0 MISS:          0 MSHR_MERGE:          0
cpu0->cpu0_ITLB TRANSLATION  ACCESS:          0 HIT:          0 MISS:          0 MSHR_MERGE:          0
cpu0->cpu0_ITLB PREFETCH REQUESTED:          0 ISSUED:          0 USEFUL:          0 USELESS:          0 LATE:          0
cpu0->cpu0_ITLB AVERAGE MISS LATENCY: - cycles
cpu0->cpu0_DTLB TOTAL        ACCESS:   21298216 HIT:   21177649 MISS:     120567 MSHR_MERGE:     111264
cpu0->cpu0_DTLB LOAD         ACCESS:   21298216 HIT:   21177649 MISS:     120567 MSHR_MERGE:     111264
cpu0->cpu0_DTLB RFO          ACCESS:          0 HIT:          0 MISS:          0 MSHR_MERGE:          0
cpu0->cpu0_DTLB PREFETCH     ACCESS:          0 HIT:          0 MISS:          0 MSHR_MERGE:          0
cpu0->cpu0_DTLB WRITE        ACCESS:          0 HIT:          0 MISS:          0 MSHR_MERGE:          0
cpu0->cpu0_DTLB TRANSLATION  ACCESS:          0 HIT:          0 MISS:          0 MSHR_MERGE:          0
cpu0->cpu0_DTLB PREFETCH REQUESTED:          0 ISSUED:          0 USEFUL:          0 USELESS:          0 LATE:          0
cpu0->cpu0_DTLB AVERAGE MISS LATENCY: 251.1 cycles
cpu0->LLC TOTAL        ACCESS:     893553 HIT:     260385 MISS:     633168 MSHR_MERGE:          0
cpu0->LLC LOAD         ACCESS:     298282 HIT:          0 MISS:     298282 MSHR_MERGE:          0
cpu0->LLC RFO          ACCESS:     297122 HIT:          0 MISS:     297122 MSHR_MERGE:          0
cpu0->LLC PREFETCH     ACCESS:          0 HIT:          0 MISS:          0 MSHR_MERGE:          0
cpu0->LLC WRITE        ACCESS:     296953 HIT:     260372 MISS:      36581 MSHR_MERGE:          0
cpu0->LLC TRANSLATION  ACCESS:       1196 HIT:         13 MISS:       1183 MSHR_MERGE:          0
cpu0->LLC PREFETCH REQUESTED:          0 ISSUED:          0 USEFUL:          0 USELESS:          0 LATE:          0
cpu0->LLC AVERAGE MISS LATENCY: 229.9 cycles

DRAM Statistics

Channel 0 RQ ROW_BUFFER_HIT:        854
  ROW_BUFFER_MISS:     595731
  AVG DBUS CONGESTED CYCLE: 7.877
Channel 0 WQ ROW_BUFFER_HIT:     130894
  ROW_BUFFER_MISS:     165060
  FULL:          0
Channel 0 REFRESHES ISSUED:       7940

[ROI Statistics]
[System Configuration]
num_cpus 1
cpu_freq 4000
fetch_width 6
decode_width 6
dispatch_width 6
execute_width 6
lq_width 2
sq_width 2
retire_width 6
scheduler_size 128
branch_mispredict_penalty 15
rob_size 352
lq_size 128
sq_size 72
ifetch_buffer_size 64
decode_buffer_size 32
dispatch_buffer_size 32
register_file_size 288
decode_latency 1
dispatch_latency 1
schedule_latency 1
execute_latency 1
page_size 4096
block_size 64
core_0_itlb_set 16
core_0_itlb_way 4
core_0_itlb_rq_size 16
core_0_itlb_wq_size 16
core_0_itlb_pq_size 0
core_0_itlb_mshr_size 8
core_0_itlb_hit_latency 1
core_0_itlb_fill_latency 1
core_0_itlb_max_tag_check 2
core_0_itlb_max_fill 2
core_0_dtlb_set 16
core_0_dtlb_way 4
core_0_dtlb_rq_size 16
core_0_dtlb_wq_size 16
core_0_dtlb_pq_size 0
core_0_dtlb_mshr_size 8
core_0_dtlb_hit_latency 1
core_0_dtlb_fill_latency 1
core_0_dtlb_max_tag_check 2
core_0_dtlb_max_fill 2
core_0_stlb_set 128
core_0_stlb_way 12
core_0_stlb_rq_size 32
core_0_stlb_wq_size 32
core_0_stlb_pq_size 0
core_0_stlb_mshr_size 16
core_0_stlb_hit_latency 4
core_0_stlb_fill_latency 4
core_0_stlb_max_tag_check 1
core_0_stlb_max_fill 1
core_0_l1i_set 64
core_0_l1i_way 8
core_0_l1i_rq_size 64
core_0_l1i_wq_size 64
core_0_l1i_pq_size 32
core_0_l1i_mshr_size 8
core_0_l1i_hit_latency 2
core_0_l1i_fill_latency 2
core_0_l1i_max_tag_check 2
core_0_l1i_max_fill 2
core_0_l1d_set 64
core_0_l1d_way 12
core_0_l1d_rq_size 64
core_0_l1d_wq_size 64
core_0_l1d_pq_size 8
core_0_l1d_mshr_size 16
core_0_l1d_hit_latency 2
core_0_l1d_fill_latency 3
core_0_l1d_max_tag_check 2
core_0_l1d_max_fill 2
core_0_l2c_set 1024
core_0_l2c_way 8
core_0_l2c_rq_size 32
core_0_l2c_wq_size 32
core_0_l2c_pq_size 16
core_0_l2c_mshr_size 32
core_0_l2c_hit_latency 5
core_0_l2c_fill_latency 5
core_0_l2c_max_tag_check 1
core_0_l2c_max_fill 1
llc_set 2048
llc_way 16
llc_rq_size 32
llc_wq_size 32
llc_pq_size 32
llc_mshr_size 64
llc_hit_latency 10
llc_fill_latency 10
llc_max_tag_check 1
llc_max_fill 1
dram_channels 1
dram_ranks 1
dram_bankgroups 8
dram_banks 4
dram_rows 65536
dram_columns 1024
dram_channel_width 8
dram_rq_size 64
dram_wq_size 64
dram_size 17179869184
core_0_itlb_prefetcher no
core_0_dtlb_prefetcher no
core_0_stlb_prefetcher no
core_0_l1i_prefetcher no
core_0_l1d_prefetcher no
core_0_l2c_prefetcher no
llc_prefetcher no
llc_replacement drrip

Core_0_instructions 100000001
Core_0_cycles 95280453
Core_0_IPC 1.04953
Core_0_branch_prediction_accuracy 99.9756
Core_0_branch_MPKI 0.09285
Core_0_average_ROB_occupancy_at_mispredict 352

Core_0_ITLB_total_access 36261610
Core_0_ITLB_total_hit 36261610
Core_0_ITLB_total_miss 0
Core_0_ITLB_total_MPKI 0
Core_0_ITLB_total_miss_rate 0
Core_0_ITLB_demand_access 36261610
Core_0_ITLB_demand_hit 36261610
Core_0_ITLB_demand_miss 0
Core_0_ITLB_demand_MPKI 0
Core_0_ITLB_demand_miss_rate 0
Core_0_ITLB_load_access 36261610
Core_0_ITLB_load_hit 36261610
Core_0_ITLB_load_miss 0
Core_0_ITLB_load_MPKI 0
Core_0_ITLB_load_miss_rate 0
Core_0_ITLB_rfo_access 0
Core_0_ITLB_rfo_hit 0
Core_0_ITLB_rfo_miss 0
Core_0_ITLB_rfo_MPKI 0
Core_0_ITLB_rfo_miss_rate 0
Core_0_ITLB_prefetch_access 0
Core_0_ITLB_prefetch_hit 0
Core_0_ITLB_prefetch_miss 0
Core_0_ITLB_prefetch_MPKI 0
Core_0_ITLB_prefetch_miss_rate 0
Core_0_ITLB_writeback_access 0
Core_0_ITLB_writeback_hit 0
Core_0_ITLB_writeback_miss 0
Core_0_ITLB_writeback_MPKI 0
Core_0_ITLB_writeback_miss_rate 0
Core_0_ITLB_prefetch_requested 0
Core_0_ITLB_prefetch_issued 0
Core_0_ITLB_prefetch_useful 0
Core_0_ITLB_prefetch_useless 0
Core_0_ITLB_prefetch_late 0
Core_0_ITLB_prefetch_accuracy 0
Core_0_ITLB_prefetch_coverage 0

Core_0_DTLB_total_access 21298216
Core_0_DTLB_total_hit 21177649
Core_0_DTLB_total_miss 120567
Core_0_DTLB_total_MPKI 1.20567
Core_0_DTLB_total_miss_rate 0.0056609
Core_0_DTLB_demand_access 21298216
Core_0_DTLB_demand_hit 21177649
Core_0_DTLB_demand_miss 120567
Core_0_DTLB_demand_MPKI 1.20567
Core_0_DTLB_demand_miss_rate 0.0056609
Core_0_DTLB_load_access 21298216
Core_0_DTLB_load_hit 21177649
Core_0_DTLB_load_miss 120567
Core_0_DTLB_load_MPKI 1.20567
Core_0_DTLB_load_miss_rate 0.0056609
Core_0_DTLB_rfo_access 0
Core_0_DTLB_rfo_hit 0
Core_0_DTLB_rfo_miss 0
Core_0_DTLB_rfo_MPKI 0
Core_0_DTLB_rfo_miss_rate 0
Core_0_DTLB_prefetch_access 0
Core_0_DTLB_prefetch_hit 0
Core_0_DTLB_prefetch_miss 0
Core_0_DTLB_prefetch_MPKI 0
Core_0_DTLB_prefetch_miss_rate 0
Core_0_DTLB_writeback_access 0
Core_0_DTLB_writeback_hit 0
Core_0_DTLB_writeback_miss 0
Core_0_DTLB_writeback_MPKI 0
Core_0_DTLB_writeback_miss_rate 0
Core_0_DTLB_prefetch_requested 0
Core_0_DTLB_prefetch_issued 0
Core_0_DTLB_prefetch_useful 0
Core_0_DTLB_prefetch_useless 0
Core_0_DTLB_prefetch_late 0
Core_0_DTLB_prefetch_accuracy 0
Core_0_DTLB_prefetch_coverage 0

Core_0_STLB_total_access 9303
Core_0_STLB_total_hit 0
Core_0_STLB_total_miss 9303
Core_0_STLB_total_MPKI 0.09303
Core_0_STLB_total_miss_rate 1
Core_0_STLB_demand_access 9303
Core_0_STLB_demand_hit 0
Core_0_STLB_demand_miss 9303
Core_0_STLB_demand_MPKI 0.09303
Core_0_STLB_demand_miss_rate 1
Core_0_STLB_load_access 9303
Core_0_STLB_load_hit 0
Core_0_STLB_load_miss 9303
Core_0_STLB_load_MPKI 0.09303
Core_0_STLB_load_miss_rate 1
Core_0_STLB_rfo_access 0
Core_0_STLB_rfo_hit 0
Core_0_STLB_rfo_miss 0
Core_0_STLB_rfo_MPKI 0
Core_0_STLB_rfo_miss_rate 0
Core_0_STLB_prefetch_access 0
Core_0_STLB_prefetch_hit 0
Core_0_STLB_prefetch_miss 0
Core_0_STLB_prefetch_MPKI 0
Core_0_STLB_prefetch_miss_rate 0
Core_0_STLB_writeback_access 0
Core_0_STLB_writeback_hit 0
Core_0_STLB_writeback_miss 0
Core_0_STLB_writeback_MPKI 0
Core_0_STLB_writeback_miss_rate 0
Core_0_STLB_prefetch_requested 0
Core_0_STLB_prefetch_issued 0
Core_0_STLB_prefetch_useful 0
Core_0_STLB_prefetch_useless 0
Core_0_STLB_prefetch_late 0
Core_0_STLB_prefetch_accuracy 0
Core_0_STLB_prefetch_coverage 0

Core_0_L1I_total_access 36309751
Core_0_L1I_total_hit 36309751
Core_0_L1I_total_miss 0
Core_0_L1I_total_MPKI 0
Core_0_L1I_total_miss_rate 0
Core_0_L1I_demand_access 36309751
Core_0_L1I_demand_hit 36309751
Core_0_L1I_demand_miss 0
Core_0_L1I_demand_MPKI 0
Core_0_L1I_demand_miss_rate 0
Core_0_L1I_load_access 36309751
Core_0_L1I_load_hit 36309751
Core_0_L1I_load_miss 0
Core_0_L1I_load_MPKI 0
Core_0_L1I_load_miss_rate 0
Core_0_L1I_rfo_access 0
Core_0_L1I_rfo_hit 0
Core_0_L1I_rfo_miss 0
Core_0_L1I_rfo_MPKI 0
Core_0_L1I_rfo_miss_rate 0
Core_0_L1I_prefetch_access 0
Core_0_L1I_prefetch_hit 0
Core_0_L1I_prefetch_miss 0
Core_0_L1I_prefetch_MPKI 0
Core_0_L1I_prefetch_miss_rate 0
Core_0_L1I_writeback_access 0
Core_0_L1I_writeback_hit 0
Core_0_L1I_writeback_miss 0
Core_0_L1I_writeback_MPKI 0
Core_0_L1I_writeback_miss_rate 0
Core_0_L1I_prefetch_requested 0
Core_0_L1I_prefetch_issued 0
Core_0_L1I_prefetch_useful 0
Core_0_L1I_prefetch_useless 0
Core_0_L1I_prefetch_late 0
Core_0_L1I_prefetch_accuracy 0
Core_0_L1I_prefetch_coverage 0

Core_0_L1D_total_access 21298369
Core_0_L1D_total_hit 5989429
Core_0_L1D_total_miss 15308940
Core_0_L1D_total_MPKI 153.089
Core_0_L1D_total_miss_rate 0.718785
Core_0_L1D_demand_access 18921395
Core_0_L1D_demand_hit 5979109
Core_0_L1D_demand_miss 12942286
Core_0_L1D_demand_MPKI 129.423
Core_0_L1D_demand_miss_rate 0.684003
Core_0_L1D_load_access 18921395
Core_0_L1D_load_hit 5979109
Core_0_L1D_load_miss 12942286
Core_0_L1D_load_MPKI 129.423
Core_0_L1D_load_miss_rate 0.684003
Core_0_L1D_rfo_access 0
Core_0_L1D_rfo_hit 0
Core_0_L1D_rfo_miss 0
Core_0_L1D_rfo_MPKI 0
Core_0_L1D_rfo_miss_rate 0
Core_0_L1D_prefetch_access 0
Core_0_L1D_prefetch_hit 0
Core_0_L1D_prefetch_miss 0
Core_0_L1D_prefetch_MPKI 0
Core_0_L1D_prefetch_miss_rate 0
Core_0_L1D_writeback_access 2376974
Core_0_L1D_writeback_hit 10320
Core_0_L1D_writeback_miss 2366654
Core_0_L1D_writeback_MPKI 23.6665
Core_0_L1D_writeback_miss_rate 0.995658
Core_0_L1D_prefetch_requested 0
Core_0_L1D_prefetch_issued 0
Core_0_L1D_prefetch_useful 0
Core_0_L1D_prefetch_useless 0
Core_0_L1D_prefetch_late 0
Core_0_L1D_prefetch_accuracy 0
Core_0_L1D_prefetch_coverage 0

Core_0_L2C_total_access 892522
Core_0_L2C_total_hit 297118
Core_0_L2C_total_miss 595404
Core_0_L2C_total_MPKI 5.95404
Core_0_L2C_total_miss_rate 0.667103
Core_0_L2C_demand_access 595404
Core_0_L2C_demand_hit 0
Core_0_L2C_demand_miss 595404
Core_0_L2C_demand_MPKI 5.95404
Core_0_L2C_demand_miss_rate 1
Core_0_L2C_load_access 298282
Core_0_L2C_load_hit 0
Core_0_L2C_load_miss 298282
Core_0_L2C_load_MPKI 2.98282
Core_0_L2C_load_miss_rate 1
Core_0_L2C_rfo_access 297122
Core_0_L2C_rfo_hit 0
Core_0_L2C_rfo_miss 297122
Core_0_L2C_rfo_MPKI 2.97122
Core_0_L2C_rfo_miss_rate 1
Core_0_L2C_prefetch_access 0
Core_0_L2C_prefetch_hit 0
Core_0_L2C_prefetch_miss 0
Core_0_L2C_prefetch_MPKI 0
Core_0_L2C_prefetch_miss_rate 0
Core_0_L2C_writeback_access 297118
Core_0_L2C_writeback_hit 297118
Core_0_L2C_writeback_miss 0
Core_0_L2C_writeback_MPKI 0
Core_0_L2C_writeback_miss_rate 0
Core_0_L2C_prefetch_requested 0
Core_0_L2C_prefetch_issued 0
Core_0_L2C_prefetch_useful 0
Core_0_L2C_prefetch_useless 0
Core_0_L2C_prefetch_late 0
Core_0_L2C_prefetch_accuracy 0
Core_0_L2C_prefetch_coverage 0

Core_0_LLC_total_access 892357
Core_0_LLC_total_hit 260372
Core_0_LLC_total_miss 631985
Core_0_LLC_total_MPKI 6.31985
Core_0_LLC_total_miss_rate 0.70822
Core_0_LLC_demand_access 595404
Core_0_LLC_demand_hit 0
Core_0_LLC_demand_miss 595404
Core_0_LLC_demand_MPKI 5.95404
Core_0_LLC_demand_miss_rate 1
Core_0_LLC_load_access 298282
Core_0_LLC_load_hit 0
Core_0_LLC_load_miss 298282
Core_0_LLC_load_MPKI 2.98282
Core_0_LLC_load_miss_rate 1
Core_0_LLC_rfo_access 297122
Core_0_LLC_rfo_hit 0
Core_0_LLC_rfo_miss 297122
Core_0_LLC_rfo_MPKI 2.97122
Core_0_LLC_rfo_miss_rate 1
Core_0_LLC_prefetch_access 0
Core_0_LLC_prefetch_hit 0
Core_0_LLC_prefetch_miss 0
Core_0_LLC_prefetch_MPKI 0
Core_0_LLC_prefetch_miss_rate 0
Core_0_LLC_writeback_access 296953
Core_0_LLC_writeback_hit 260372
Core_0_LLC_writeback_miss 36581
Core_0_LLC_writeback_MPKI 0.36581
Core_0_LLC_writeback_miss_rate 0.123188
Core_0_LLC_prefetch_requested 0
Core_0_LLC_prefetch_issued 0
Core_0_LLC_prefetch_useful 0
Core_0_LLC_prefetch_useless 0
Core_0_LLC_prefetch_late 0
Core_0_LLC_prefetch_accuracy 0
Core_0_LLC_prefetch_coverage 0

[DRAM Statistics]
Channel_0_RQ_row_buffer_hit 854
Channel_0_RQ_row_buffer_miss 595731
Channel_0_WQ_row_buffer_hit 130894
Channel_0_WQ_row_buffer_miss 165060
Channel_0_WQ_full 0
Channel_0_dbus_congested 3539674
DRAM_total_RQ_row_buffer_hit 854
DRAM_total_RQ_row_buffer_miss 595731
DRAM_total_WQ_row_buffer_hit 130894
DRAM_total_WQ_row_buffer_miss 165060
DRAM_total_WQ_full 0
DRAM_total_dbus_congested 3539674
DRAM_avg_congested_cycle 7.87654

====== DRAM_RQ_TRAFFIC ========
DRAM_RQ_READ_TRAFFIC_BREAKDOWN:
data_demand_read.count = 595404
data_demand_read.share = 99.80%

inst_demand_read.count = 0
inst_demand_read.share = 0.00%

cache_inst_prefetch.count = 0
cache_inst_prefetch.share = 0.00%

cache_data_prefetch.count = 0
cache_data_prefetch.share = 0.00%

stlb_data_demand.count = 1183
stlb_data_demand.share = 0.20%

stlb_inst_demand.count = 0
stlb_inst_demand.share = 0.00%

stlb_l1i_pref.count = 0
stlb_l1i_pref.share = 0.00%

stlb_l1d_pref.count = 0
stlb_l1d_pref.share = 0.00%

DRAM_RQ_READ_TRAFFIC_SUMMARY:
cache_demand.count = 595404
cache_demand.share = 99.80%

cache_prefetch.count = 0
cache_prefetch.share = 0.00%

stlb_demand.count = 1183
stlb_demand.share = 0.20%

stlb_prefetch.count = 0
stlb_prefetch.share = 0.00%

DRAM_RQ_READ_TRAFFIC_DEBUG:
total_classified_read.count = 596587
unclassified_read.count = 0
total_read_with_other.count = 596587

classified_plus_unclassified_check.count = 596587
dram_rq_read_total_observed.count = 596587
dram_rq_read_total_observed.per_1K_instructions = 5.96587

STLB_MISS_PTW_DRAM_TOUCH_BREAKDOWN:
stlb_miss_total.count = 9303

stlb_miss_touch_dram.count = 1166
stlb_miss_touch_dram.share = 12.53%

stlb_miss_no_dram_touch.count = 8137
stlb_miss_no_dram_touch.share = 87.47%

STLB_MISS_PTW_DRAM_TOUCH_DEBUG:
stlb_miss_touch_plus_no_touch.count = 9303
stlb_miss_total_check.count = 9303

======STLB miss causes ========
Core_0_STLB_miss_cause_breakdown
Core_0_STLB_cause_Demand_Data_miss 9303
Core_0_STLB_cause_Demand_Data_miss_rate 1
Core_0_STLB_cause_Demand_Instruction_miss 0
Core_0_STLB_cause_Demand_Instruction_miss_rate 0
Core_0_STLB_cause_L1D_Prefetch_miss 0
Core_0_STLB_cause_L1D_Prefetch_miss_rate 0
Core_0_STLB_cause_L1I_Prefetch_miss 0
Core_0_STLB_cause_L1I_Prefetch_miss_rate 0
Core_0_STLB_cause_Other_miss 0
Core_0_STLB_cause_Other_miss_rate 0
Core_0_STLB_Demand_miss 9303
Core_0_STLB_Demand_miss_rate 1
Core_0_STLB_L1D_Prefetch_miss 0
Core_0_STLB_L1D_Prefetch_miss_rate 0
Core_0_STLB_Other_miss 0
Core_0_STLB_Other_miss_rate 0
