[VMEM] WARNING: physical memory size is smaller than virtual memory size.

*** ChampSim Multicore Out-of-Order Simulator ***
Warmup Instructions: 50000000
Simulation Instructions: 100000000
Number of CPUs: 1
Page size: 4096
Core 0: /data2/zcq/champsim_traces_gap/pr.kron-90B.champsimtrace.xz
Off-chip DRAM Size: 16 GiB Channels: 1 Width: 64-bit Data Rate: 3205 MT/s
Warmup halting CPU 0 at instruction 50000003 cycle 29177562 for remainder of phase
Warmup finished CPU 0 instructions: 50000003 cycles: 29177562 cumulative IPC: 1.714 (Simulation time: 00 hr 06 min 57 sec)
Warmup complete CPU 0 instructions: 50000003 cycles: 29177562 cumulative IPC: 1.714 (Simulation time: 00 hr 06 min 57 sec)
Simulation CPU 0 warning: IPC 0.02305 < 0.05
Simulation CPU 0 warning: IPC 0.025092 < 0.05
Simulation CPU 0 warning: IPC 0.026302 < 0.05
Simulation CPU 0 warning: IPC 0.022524 < 0.05
Simulation CPU 0 warning: IPC 0.022133 < 0.05
Simulation CPU 0 warning: IPC 0.022612 < 0.05
Simulation CPU 0 warning: IPC 0.023373 < 0.05
Simulation CPU 0 warning: IPC 0.023879 < 0.05
Simulation CPU 0 warning: IPC 0.023477 < 0.05
Simulation CPU 0 warning: IPC 0.022859 < 0.05
Simulation CPU 0 warning: IPC 0.023744 < 0.05
Simulation CPU 0 warning: IPC 0.023807 < 0.05
Simulation CPU 0 warning: IPC 0.023371 < 0.05
Simulation CPU 0 warning: IPC 0.0229 < 0.05
Simulation CPU 0 warning: IPC 0.022815 < 0.05
Simulation CPU 0 warning: IPC 0.022864 < 0.05
Simulation CPU 0 warning: IPC 0.022843 < 0.05
Simulation CPU 0 warning: IPC 0.023463 < 0.05
Simulation CPU 0 warning: IPC 0.024366 < 0.05
Simulation CPU 0 warning: IPC 0.024085 < 0.05
Simulation CPU 0 warning: IPC 0.023761 < 0.05
Simulation CPU 0 warning: IPC 0.023782 < 0.05
Simulation CPU 0 warning: IPC 0.02306 < 0.05
Simulation CPU 0 warning: IPC 0.024126 < 0.05
Simulation CPU 0 warning: IPC 0.024392 < 0.05
Simulation CPU 0 warning: IPC 0.025247 < 0.05
Simulation CPU 0 warning: IPC 0.02377 < 0.05
Simulation CPU 0 warning: IPC 0.023415 < 0.05
Simulation CPU 0 warning: IPC 0.022901 < 0.05
Simulation CPU 0 warning: IPC 0.02212 < 0.05
Simulation CPU 0 warning: IPC 0.023534 < 0.05
Simulation CPU 0 warning: IPC 0.025513 < 0.05
Simulation CPU 0 warning: IPC 0.024641 < 0.05
Simulation CPU 0 warning: IPC 0.022954 < 0.05
Simulation CPU 0 warning: IPC 0.023318 < 0.05
Simulation CPU 0 warning: IPC 0.023255 < 0.05
Simulation CPU 0 warning: IPC 0.023679 < 0.05
Simulation CPU 0 warning: IPC 0.024287 < 0.05
Simulation CPU 0 warning: IPC 0.02395 < 0.05
Simulation CPU 0 warning: IPC 0.025167 < 0.05
Simulation CPU 0 warning: IPC 0.024588 < 0.05
Simulation CPU 0 warning: IPC 0.024539 < 0.05
Simulation CPU 0 warning: IPC 0.022803 < 0.05
Simulation CPU 0 warning: IPC 0.024787 < 0.05
Simulation CPU 0 warning: IPC 0.022958 < 0.05
Simulation CPU 0 warning: IPC 0.023866 < 0.05
Simulation CPU 0 warning: IPC 0.022752 < 0.05
Simulation CPU 0 warning: IPC 0.022224 < 0.05
Simulation CPU 0 warning: IPC 0.024449 < 0.05
Simulation CPU 0 warning: IPC 0.02281 < 0.05
Simulation CPU 0 warning: IPC 0.023752 < 0.05
Simulation CPU 0 warning: IPC 0.023018 < 0.05
Simulation CPU 0 warning: IPC 0.024184 < 0.05
Simulation CPU 0 warning: IPC 0.023058 < 0.05
Simulation CPU 0 warning: IPC 0.023408 < 0.05
Simulation CPU 0 warning: IPC 0.023328 < 0.05
Simulation CPU 0 warning: IPC 0.022785 < 0.05
Simulation CPU 0 warning: IPC 0.023702 < 0.05
Simulation CPU 0 warning: IPC 0.022478 < 0.05
Simulation CPU 0 warning: IPC 0.024413 < 0.05
Simulation CPU 0 warning: IPC 0.023178 < 0.05
Simulation CPU 0 warning: IPC 0.022853 < 0.05
Simulation CPU 0 warning: IPC 0.023303 < 0.05
Simulation CPU 0 warning: IPC 0.022113 < 0.05
Simulation CPU 0 warning: IPC 0.023372 < 0.05
Simulation CPU 0 warning: IPC 0.022531 < 0.05
Simulation CPU 0 warning: IPC 0.024062 < 0.05
Simulation CPU 0 warning: IPC 0.024579 < 0.05
Simulation CPU 0 warning: IPC 0.024855 < 0.05
Simulation CPU 0 warning: IPC 0.024404 < 0.05
Simulation CPU 0 warning: IPC 0.023903 < 0.05
Simulation CPU 0 warning: IPC 0.023575 < 0.05
Simulation CPU 0 warning: IPC 0.022356 < 0.05
Simulation CPU 0 warning: IPC 0.022326 < 0.05
Simulation CPU 0 warning: IPC 0.022135 < 0.05
Simulation CPU 0 warning: IPC 0.023962 < 0.05
Simulation CPU 0 warning: IPC 0.023139 < 0.05
Simulation CPU 0 warning: IPC 0.0226 < 0.05
Simulation CPU 0 warning: IPC 0.023132 < 0.05
Simulation CPU 0 warning: IPC 0.023223 < 0.05
Simulation CPU 0 warning: IPC 0.024514 < 0.05
Simulation CPU 0 warning: IPC 0.022535 < 0.05
Simulation CPU 0 warning: IPC 0.024279 < 0.05
Simulation CPU 0 warning: IPC 0.023471 < 0.05
Simulation CPU 0 warning: IPC 0.024085 < 0.05
Simulation CPU 0 warning: IPC 0.024416 < 0.05
Simulation CPU 0 warning: IPC 0.024325 < 0.05
Simulation CPU 0 warning: IPC 0.023476 < 0.05
Simulation CPU 0 warning: IPC 0.024838 < 0.05
Simulation CPU 0 warning: IPC 0.023384 < 0.05
Simulation CPU 0 warning: IPC 0.022167 < 0.05
Simulation CPU 0 warning: IPC 0.02442 < 0.05
Simulation CPU 0 warning: IPC 0.022441 < 0.05
Simulation CPU 0 warning: IPC 0.022737 < 0.05
Simulation CPU 0 warning: IPC 0.024196 < 0.05
Simulation CPU 0 warning: IPC 0.022751 < 0.05
Simulation CPU 0 warning: IPC 0.022126 < 0.05
Simulation CPU 0 warning: IPC 0.023216 < 0.05
Simulation CPU 0 warning: IPC 0.023441 < 0.05
Simulation CPU 0 warning: IPC 0.023717 < 0.05
Simulation CPU 0 warning: IPC 0.023193 < 0.05
Simulation CPU 0 warning: IPC 0.02364 < 0.05
Simulation CPU 0 warning: IPC 0.023423 < 0.05
Simulation CPU 0 warning: IPC 0.023429 < 0.05
Simulation CPU 0 warning: IPC 0.024996 < 0.05
Simulation CPU 0 warning: IPC 0.022753 < 0.05
Simulation CPU 0 warning: IPC 0.024021 < 0.05
Simulation CPU 0 warning: IPC 0.023437 < 0.05
Simulation CPU 0 warning: IPC 0.022989 < 0.05
Simulation CPU 0 warning: IPC 0.023013 < 0.05
Simulation CPU 0 warning: IPC 0.022348 < 0.05
Simulation CPU 0 warning: IPC 0.022766 < 0.05
Simulation CPU 0 warning: IPC 0.023593 < 0.05
Simulation CPU 0 warning: IPC 0.024674 < 0.05
Simulation CPU 0 warning: IPC 0.02383 < 0.05
Simulation CPU 0 warning: IPC 0.024038 < 0.05
Simulation CPU 0 warning: IPC 0.023506 < 0.05
Simulation CPU 0 warning: IPC 0.023659 < 0.05
Simulation CPU 0 warning: IPC 0.025753 < 0.05
Simulation CPU 0 warning: IPC 0.024267 < 0.05
Simulation CPU 0 warning: IPC 0.023668 < 0.05
Simulation CPU 0 warning: IPC 0.023919 < 0.05
Simulation CPU 0 warning: IPC 0.024118 < 0.05
Simulation CPU 0 warning: IPC 0.024732 < 0.05
Simulation CPU 0 warning: IPC 0.02401 < 0.05
Simulation CPU 0 warning: IPC 0.022863 < 0.05
Simulation CPU 0 warning: IPC 0.02372 < 0.05
Simulation CPU 0 warning: IPC 0.024671 < 0.05
Simulation CPU 0 warning: IPC 0.024196 < 0.05
Simulation CPU 0 warning: IPC 0.024584 < 0.05
Simulation CPU 0 warning: IPC 0.022769 < 0.05
Simulation CPU 0 warning: IPC 0.022125 < 0.05
Simulation CPU 0 warning: IPC 0.023095 < 0.05
Simulation CPU 0 warning: IPC 0.024592 < 0.05
Simulation CPU 0 warning: IPC 0.023966 < 0.05
Simulation CPU 0 warning: IPC 0.022769 < 0.05
Simulation CPU 0 warning: IPC 0.022738 < 0.05
Simulation CPU 0 warning: IPC 0.024512 < 0.05
Simulation CPU 0 warning: IPC 0.022214 < 0.05
Simulation CPU 0 warning: IPC 0.023025 < 0.05
Simulation CPU 0 warning: IPC 0.024775 < 0.05
Simulation CPU 0 warning: IPC 0.023847 < 0.05
Simulation CPU 0 warning: IPC 0.023189 < 0.05
Simulation CPU 0 warning: IPC 0.024482 < 0.05
Simulation CPU 0 warning: IPC 0.022637 < 0.05
Simulation CPU 0 warning: IPC 0.022492 < 0.05
Simulation CPU 0 warning: IPC 0.023104 < 0.05
Simulation CPU 0 warning: IPC 0.023338 < 0.05
Simulation CPU 0 warning: IPC 0.023586 < 0.05
Simulation CPU 0 warning: IPC 0.023725 < 0.05
Simulation CPU 0 warning: IPC 0.023429 < 0.05
Simulation CPU 0 warning: IPC 0.023572 < 0.05
Simulation CPU 0 warning: IPC 0.02364 < 0.05
Simulation CPU 0 warning: IPC 0.02373 < 0.05
Simulation CPU 0 warning: IPC 0.023576 < 0.05
Simulation CPU 0 warning: IPC 0.024179 < 0.05
Simulation CPU 0 warning: IPC 0.023204 < 0.05
Simulation CPU 0 warning: IPC 0.022381 < 0.05
Simulation CPU 0 warning: IPC 0.021334 < 0.05
Simulation CPU 0 warning: IPC 0.023173 < 0.05
Simulation CPU 0 warning: IPC 0.022685 < 0.05
Simulation CPU 0 warning: IPC 0.023204 < 0.05
Simulation CPU 0 warning: IPC 0.02382 < 0.05
Simulation CPU 0 warning: IPC 0.022908 < 0.05
Simulation CPU 0 warning: IPC 0.021346 < 0.05
Simulation CPU 0 warning: IPC 0.023217 < 0.05
Simulation CPU 0 warning: IPC 0.022898 < 0.05
Simulation CPU 0 warning: IPC 0.022769 < 0.05
Simulation CPU 0 warning: IPC 0.021643 < 0.05
Simulation CPU 0 warning: IPC 0.023288 < 0.05
Simulation CPU 0 warning: IPC 0.024443 < 0.05
Simulation CPU 0 warning: IPC 0.024353 < 0.05
Simulation CPU 0 warning: IPC 0.022176 < 0.05
Simulation CPU 0 warning: IPC 0.022374 < 0.05
Simulation CPU 0 warning: IPC 0.023402 < 0.05
Simulation CPU 0 warning: IPC 0.023006 < 0.05
Simulation CPU 0 warning: IPC 0.022259 < 0.05
Simulation CPU 0 warning: IPC 0.024484 < 0.05
Simulation CPU 0 warning: IPC 0.023132 < 0.05
Simulation CPU 0 warning: IPC 0.023745 < 0.05
Simulation CPU 0 warning: IPC 0.022546 < 0.05
Simulation CPU 0 warning: IPC 0.023129 < 0.05
Simulation CPU 0 warning: IPC 0.022615 < 0.05
Simulation CPU 0 warning: IPC 0.023842 < 0.05
Simulation CPU 0 warning: IPC 0.024031 < 0.05
Simulation CPU 0 warning: IPC 0.024908 < 0.05
Simulation CPU 0 warning: IPC 0.022462 < 0.05
Simulation CPU 0 warning: IPC 0.024083 < 0.05
Simulation CPU 0 warning: IPC 0.02355 < 0.05
Simulation CPU 0 warning: IPC 0.024124 < 0.05
Simulation CPU 0 warning: IPC 0.023096 < 0.05
Simulation CPU 0 warning: IPC 0.023486 < 0.05
Simulation CPU 0 warning: IPC 0.024192 < 0.05
Simulation CPU 0 warning: IPC 0.024738 < 0.05
Simulation CPU 0 warning: IPC 0.02351 < 0.05
Simulation CPU 0 warning: IPC 0.023592 < 0.05
Simulation CPU 0 warning: IPC 0.023188 < 0.05
Simulation CPU 0 warning: IPC 0.022266 < 0.05
Simulation CPU 0 warning: IPC 0.024169 < 0.05
Simulation CPU 0 warning: IPC 0.023226 < 0.05
Simulation CPU 0 warning: IPC 0.02292 < 0.05
Simulation CPU 0 warning: IPC 0.022699 < 0.05
Simulation CPU 0 warning: IPC 0.022037 < 0.05
Simulation CPU 0 warning: IPC 0.023364 < 0.05
Simulation CPU 0 warning: IPC 0.024445 < 0.05
Simulation CPU 0 warning: IPC 0.022868 < 0.05
Simulation CPU 0 warning: IPC 0.024442 < 0.05
Simulation CPU 0 warning: IPC 0.024884 < 0.05
Simulation CPU 0 warning: IPC 0.023417 < 0.05
Simulation CPU 0 warning: IPC 0.023311 < 0.05
Simulation CPU 0 warning: IPC 0.022445 < 0.05
Simulation CPU 0 warning: IPC 0.022819 < 0.05
Simulation CPU 0 warning: IPC 0.02441 < 0.05
Simulation CPU 0 warning: IPC 0.024013 < 0.05
Simulation CPU 0 warning: IPC 0.02282 < 0.05
Simulation CPU 0 warning: IPC 0.024677 < 0.05
Simulation CPU 0 warning: IPC 0.024632 < 0.05
Simulation CPU 0 warning: IPC 0.022755 < 0.05
Simulation CPU 0 warning: IPC 0.023766 < 0.05
Simulation CPU 0 warning: IPC 0.023552 < 0.05
Simulation CPU 0 warning: IPC 0.023563 < 0.05
Simulation CPU 0 warning: IPC 0.023601 < 0.05
Simulation CPU 0 warning: IPC 0.02434 < 0.05
Simulation CPU 0 warning: IPC 0.023399 < 0.05
Simulation CPU 0 warning: IPC 0.022913 < 0.05
Simulation CPU 0 warning: IPC 0.024671 < 0.05
Simulation CPU 0 warning: IPC 0.02312 < 0.05
Simulation CPU 0 warning: IPC 0.025025 < 0.05
Simulation CPU 0 warning: IPC 0.025356 < 0.05
Simulation CPU 0 warning: IPC 0.022546 < 0.05
Simulation CPU 0 warning: IPC 0.022988 < 0.05
Simulation CPU 0 warning: IPC 0.023548 < 0.05
Simulation CPU 0 warning: IPC 0.024342 < 0.05
Simulation CPU 0 warning: IPC 0.023062 < 0.05
Simulation CPU 0 warning: IPC 0.023005 < 0.05
Simulation CPU 0 warning: IPC 0.024021 < 0.05
Simulation CPU 0 warning: IPC 0.024366 < 0.05
Simulation CPU 0 warning: IPC 0.022649 < 0.05
Simulation CPU 0 warning: IPC 0.024008 < 0.05
Simulation CPU 0 warning: IPC 0.022679 < 0.05
Simulation CPU 0 warning: IPC 0.023874 < 0.05
Simulation CPU 0 warning: IPC 0.024665 < 0.05
Simulation CPU 0 warning: IPC 0.023597 < 0.05
Simulation CPU 0 warning: IPC 0.022284 < 0.05
Simulation CPU 0 warning: IPC 0.022067 < 0.05
Simulation CPU 0 warning: IPC 0.02329 < 0.05
Simulation CPU 0 warning: IPC 0.023453 < 0.05
Simulation CPU 0 warning: IPC 0.022271 < 0.05
Simulation CPU 0 warning: IPC 0.022117 < 0.05
Simulation CPU 0 warning: IPC 0.023371 < 0.05
Simulation CPU 0 warning: IPC 0.02265 < 0.05
Simulation CPU 0 warning: IPC 0.023333 < 0.05
Simulation CPU 0 warning: IPC 0.024405 < 0.05
Simulation CPU 0 warning: IPC 0.024752 < 0.05
Simulation CPU 0 warning: IPC 0.023738 < 0.05
Simulation CPU 0 warning: IPC 0.023524 < 0.05
Simulation CPU 0 warning: IPC 0.023051 < 0.05
Simulation CPU 0 warning: IPC 0.023202 < 0.05
Simulation CPU 0 warning: IPC 0.023878 < 0.05
Simulation CPU 0 warning: IPC 0.023228 < 0.05
Simulation CPU 0 warning: IPC 0.023186 < 0.05
Simulation CPU 0 warning: IPC 0.024659 < 0.05
Simulation CPU 0 warning: IPC 0.024215 < 0.05
Simulation CPU 0 warning: IPC 0.024192 < 0.05
Simulation CPU 0 warning: IPC 0.022596 < 0.05
Simulation CPU 0 warning: IPC 0.0231 < 0.05
Simulation CPU 0 warning: IPC 0.02289 < 0.05
Simulation CPU 0 warning: IPC 0.023919 < 0.05
Simulation CPU 0 warning: IPC 0.023397 < 0.05
Simulation CPU 0 warning: IPC 0.02415 < 0.05
Simulation CPU 0 warning: IPC 0.022142 < 0.05
Simulation CPU 0 warning: IPC 0.023978 < 0.05
Simulation CPU 0 warning: IPC 0.02415 < 0.05
Simulation CPU 0 warning: IPC 0.023763 < 0.05
Simulation CPU 0 warning: IPC 0.023554 < 0.05
Simulation CPU 0 warning: IPC 0.022823 < 0.05
Simulation CPU 0 warning: IPC 0.023377 < 0.05
Simulation CPU 0 warning: IPC 0.024027 < 0.05
Simulation CPU 0 warning: IPC 0.022621 < 0.05
Simulation CPU 0 warning: IPC 0.023552 < 0.05
Simulation CPU 0 warning: IPC 0.024015 < 0.05
Simulation CPU 0 warning: IPC 0.023126 < 0.05
Simulation CPU 0 warning: IPC 0.023818 < 0.05
Simulation CPU 0 warning: IPC 0.023496 < 0.05
Simulation CPU 0 warning: IPC 0.022148 < 0.05
Simulation CPU 0 warning: IPC 0.022196 < 0.05
Simulation CPU 0 warning: IPC 0.025349 < 0.05
Simulation CPU 0 warning: IPC 0.023267 < 0.05
Simulation CPU 0 warning: IPC 0.024381 < 0.05
Simulation CPU 0 warning: IPC 0.02246 < 0.05
Simulation CPU 0 warning: IPC 0.024685 < 0.05
Simulation CPU 0 warning: IPC 0.024082 < 0.05
Simulation CPU 0 warning: IPC 0.024685 < 0.05
Simulation CPU 0 warning: IPC 0.022763 < 0.05
Simulation CPU 0 warning: IPC 0.022387 < 0.05
Simulation CPU 0 warning: IPC 0.02497 < 0.05
Simulation CPU 0 warning: IPC 0.023677 < 0.05
Simulation CPU 0 warning: IPC 0.023976 < 0.05
Simulation CPU 0 warning: IPC 0.022979 < 0.05
Simulation CPU 0 warning: IPC 0.02377 < 0.05
Simulation CPU 0 warning: IPC 0.023996 < 0.05
Simulation CPU 0 warning: IPC 0.024033 < 0.05
Simulation CPU 0 warning: IPC 0.025157 < 0.05
Simulation CPU 0 warning: IPC 0.02421 < 0.05
Simulation CPU 0 warning: IPC 0.022123 < 0.05
Simulation CPU 0 warning: IPC 0.022754 < 0.05
Simulation CPU 0 warning: IPC 0.023391 < 0.05
Simulation CPU 0 warning: IPC 0.024032 < 0.05
Simulation CPU 0 warning: IPC 0.023787 < 0.05
Simulation CPU 0 warning: IPC 0.024348 < 0.05
Simulation CPU 0 warning: IPC 0.023754 < 0.05
Simulation CPU 0 warning: IPC 0.025506 < 0.05
Simulation CPU 0 warning: IPC 0.023636 < 0.05
Simulation CPU 0 warning: IPC 0.023104 < 0.05
Simulation CPU 0 warning: IPC 0.02485 < 0.05
Simulation CPU 0 warning: IPC 0.024667 < 0.05
Simulation CPU 0 warning: IPC 0.023885 < 0.05
Simulation CPU 0 warning: IPC 0.02317 < 0.05
Simulation CPU 0 warning: IPC 0.024286 < 0.05
Simulation CPU 0 warning: IPC 0.024441 < 0.05
Simulation CPU 0 warning: IPC 0.025443 < 0.05
Simulation CPU 0 warning: IPC 0.024798 < 0.05
Simulation CPU 0 warning: IPC 0.024201 < 0.05
Simulation CPU 0 warning: IPC 0.025704 < 0.05
Simulation CPU 0 warning: IPC 0.023507 < 0.05
Simulation CPU 0 warning: IPC 0.022944 < 0.05
Simulation CPU 0 warning: IPC 0.022419 < 0.05
Simulation CPU 0 warning: IPC 0.023091 < 0.05
Simulation CPU 0 warning: IPC 0.023743 < 0.05
Simulation CPU 0 warning: IPC 0.023272 < 0.05
Simulation CPU 0 warning: IPC 0.02353 < 0.05
Simulation CPU 0 warning: IPC 0.024086 < 0.05
Simulation CPU 0 warning: IPC 0.023578 < 0.05
Simulation CPU 0 warning: IPC 0.024118 < 0.05
Simulation CPU 0 warning: IPC 0.022725 < 0.05
Simulation CPU 0 warning: IPC 0.021898 < 0.05
Simulation CPU 0 warning: IPC 0.02208 < 0.05
Simulation CPU 0 warning: IPC 0.02278 < 0.05
Simulation CPU 0 warning: IPC 0.023673 < 0.05
Simulation CPU 0 warning: IPC 0.024652 < 0.05
Simulation CPU 0 warning: IPC 0.023396 < 0.05
Simulation CPU 0 warning: IPC 0.024447 < 0.05
Simulation CPU 0 warning: IPC 0.025185 < 0.05
Simulation CPU 0 warning: IPC 0.024217 < 0.05
Simulation CPU 0 warning: IPC 0.024587 < 0.05
Simulation CPU 0 warning: IPC 0.023903 < 0.05
Simulation CPU 0 warning: IPC 0.022465 < 0.05
Simulation CPU 0 warning: IPC 0.024139 < 0.05
Simulation CPU 0 warning: IPC 0.02366 < 0.05
Simulation CPU 0 warning: IPC 0.022394 < 0.05
Simulation CPU 0 warning: IPC 0.024758 < 0.05
Simulation CPU 0 warning: IPC 0.022985 < 0.05
Simulation CPU 0 warning: IPC 0.023471 < 0.05
Simulation CPU 0 warning: IPC 0.024653 < 0.05
Simulation CPU 0 warning: IPC 0.023518 < 0.05
Simulation CPU 0 warning: IPC 0.024805 < 0.05
Simulation CPU 0 warning: IPC 0.02472 < 0.05
Simulation CPU 0 warning: IPC 0.024226 < 0.05
Simulation CPU 0 warning: IPC 0.025382 < 0.05
Simulation CPU 0 warning: IPC 0.024177 < 0.05
Simulation CPU 0 warning: IPC 0.024026 < 0.05
Simulation CPU 0 warning: IPC 0.02413 < 0.05
Simulation CPU 0 warning: IPC 0.023537 < 0.05
Simulation CPU 0 warning: IPC 0.024715 < 0.05
Simulation CPU 0 warning: IPC 0.023343 < 0.05
Simulation CPU 0 warning: IPC 0.023372 < 0.05
Simulation CPU 0 warning: IPC 0.022688 < 0.05
Simulation CPU 0 warning: IPC 0.024361 < 0.05
Simulation CPU 0 warning: IPC 0.024265 < 0.05
Simulation CPU 0 warning: IPC 0.023552 < 0.05
Simulation CPU 0 warning: IPC 0.023705 < 0.05
Simulation CPU 0 warning: IPC 0.02324 < 0.05
Simulation CPU 0 warning: IPC 0.02221 < 0.05
Simulation CPU 0 warning: IPC 0.022195 < 0.05
Simulation CPU 0 warning: IPC 0.022418 < 0.05
Simulation CPU 0 warning: IPC 0.024239 < 0.05
Simulation CPU 0 warning: IPC 0.024104 < 0.05
Simulation CPU 0 warning: IPC 0.024869 < 0.05
Simulation CPU 0 warning: IPC 0.023238 < 0.05
Simulation CPU 0 warning: IPC 0.024362 < 0.05
Simulation CPU 0 warning: IPC 0.023082 < 0.05
Simulation CPU 0 warning: IPC 0.023157 < 0.05
Simulation CPU 0 warning: IPC 0.024155 < 0.05
Simulation CPU 0 warning: IPC 0.024076 < 0.05
Simulation CPU 0 warning: IPC 0.022792 < 0.05
Simulation CPU 0 warning: IPC 0.023748 < 0.05
Simulation CPU 0 warning: IPC 0.022108 < 0.05
Simulation CPU 0 warning: IPC 0.023564 < 0.05
Simulation CPU 0 warning: IPC 0.024502 < 0.05
Simulation CPU 0 warning: IPC 0.023567 < 0.05
Simulation CPU 0 warning: IPC 0.023366 < 0.05
Simulation CPU 0 warning: IPC 0.022802 < 0.05
Simulation CPU 0 warning: IPC 0.0243 < 0.05
Simulation CPU 0 warning: IPC 0.024568 < 0.05
Simulation CPU 0 warning: IPC 0.02444 < 0.05
Simulation CPU 0 warning: IPC 0.023889 < 0.05
Simulation CPU 0 warning: IPC 0.024153 < 0.05
Simulation CPU 0 warning: IPC 0.023561 < 0.05
Simulation CPU 0 warning: IPC 0.024345 < 0.05
Simulation CPU 0 warning: IPC 0.02314 < 0.05
Simulation CPU 0 warning: IPC 0.02469 < 0.05
Simulation CPU 0 warning: IPC 0.023577 < 0.05
Simulation CPU 0 warning: IPC 0.023597 < 0.05
Simulation CPU 0 warning: IPC 0.023255 < 0.05
Simulation CPU 0 warning: IPC 0.023588 < 0.05
Simulation CPU 0 warning: IPC 0.023192 < 0.05
Simulation CPU 0 warning: IPC 0.02393 < 0.05
Simulation CPU 0 warning: IPC 0.022215 < 0.05
Simulation CPU 0 warning: IPC 0.023624 < 0.05
Simulation CPU 0 warning: IPC 0.022707 < 0.05
Simulation CPU 0 warning: IPC 0.024533 < 0.05
Simulation CPU 0 warning: IPC 0.024038 < 0.05
Simulation CPU 0 warning: IPC 0.022552 < 0.05
Simulation CPU 0 warning: IPC 0.023137 < 0.05
Simulation CPU 0 warning: IPC 0.024258 < 0.05
Simulation CPU 0 warning: IPC 0.023308 < 0.05
Simulation CPU 0 warning: IPC 0.02429 < 0.05
Simulation CPU 0 warning: IPC 0.024341 < 0.05
Simulation CPU 0 warning: IPC 0.02351 < 0.05
Simulation CPU 0 warning: IPC 0.023982 < 0.05
Simulation CPU 0 warning: IPC 0.023969 < 0.05
Simulation CPU 0 warning: IPC 0.024093 < 0.05
Simulation CPU 0 warning: IPC 0.024377 < 0.05
Simulation CPU 0 warning: IPC 0.024652 < 0.05
Simulation finished CPU 0 instructions: 100000002 cycles: 4240994877 cumulative IPC: 0.02358 (Simulation time: 05 hr 44 min 27 sec)
Simulation complete CPU 0 instructions: 100000002 cycles: 4240994877 cumulative IPC: 0.02358 (Simulation time: 05 hr 44 min 27 sec)

ChampSim completed all CPUs

=== Simulation ===
CPU 0 runs /data2/zcq/champsim_traces_gap/pr.kron-90B.champsimtrace.xz

Region of Interest Statistics

CPU 0 cumulative IPC: 0.02358 instructions: 100000002 cycles: 4240994877
CPU 0 Branch Prediction Accuracy: 97.3% MPKI: 5.276 Average ROB Occupancy at Mispredict: 239.5
Branch type MPKI
BRANCH_DIRECT_JUMP: 0
BRANCH_INDIRECT: 0
BRANCH_CONDITIONAL: 5.276
BRANCH_DIRECT_CALL: 0
BRANCH_INDIRECT_CALL: 0
BRANCH_RETURN: 0

cpu0->cpu0_STLB TOTAL        ACCESS:   17059119 HIT:     262240 MISS:   16796879 MSHR_MERGE:          0
cpu0->cpu0_STLB LOAD         ACCESS:   17059119 HIT:     262240 MISS:   16796879 MSHR_MERGE:          0
cpu0->cpu0_STLB RFO          ACCESS:          0 HIT:          0 MISS:          0 MSHR_MERGE:          0
cpu0->cpu0_STLB PREFETCH     ACCESS:          0 HIT:          0 MISS:          0 MSHR_MERGE:          0
cpu0->cpu0_STLB WRITE        ACCESS:          0 HIT:          0 MISS:          0 MSHR_MERGE:          0
cpu0->cpu0_STLB TRANSLATION  ACCESS:          0 HIT:          0 MISS:          0 MSHR_MERGE:          0
cpu0->cpu0_STLB PREFETCH REQUESTED:          0 ISSUED:          0 USEFUL:          0 USELESS:          0 LATE:          0
cpu0->cpu0_STLB AVERAGE MISS LATENCY: 35.3 cycles
cpu0->cpu0_L2C TOTAL        ACCESS:   34113891 HIT:    2862874 MISS:   31251017 MSHR_MERGE:          0
cpu0->cpu0_L2C LOAD         ACCESS:   19324385 HIT:     259663 MISS:   19064722 MSHR_MERGE:          0
cpu0->cpu0_L2C RFO          ACCESS:      15638 HIT:      13702 MISS:       1936 MSHR_MERGE:          0
cpu0->cpu0_L2C PREFETCH     ACCESS:          0 HIT:          0 MISS:          0 MSHR_MERGE:          0
cpu0->cpu0_L2C WRITE        ACCESS:      63986 HIT:      63986 MISS:          0 MSHR_MERGE:          0
cpu0->cpu0_L2C TRANSLATION  ACCESS:   14709882 HIT:    2525523 MISS:   12184359 MSHR_MERGE:          0
cpu0->cpu0_L2C PREFETCH REQUESTED:          0 ISSUED:          0 USEFUL:          0 USELESS:          0 LATE:          0
cpu0->cpu0_L2C AVERAGE MISS LATENCY: 118.6 cycles
cpu0->cpu0_L1I TOTAL        ACCESS:   14886477 HIT:   14886477 MISS:          0 MSHR_MERGE:          0
cpu0->cpu0_L1I LOAD         ACCESS:   14886477 HIT:   14886477 MISS:          0 MSHR_MERGE:          0
cpu0->cpu0_L1I RFO          ACCESS:          0 HIT:          0 MISS:          0 MSHR_MERGE:          0
cpu0->cpu0_L1I PREFETCH     ACCESS:          0 HIT:          0 MISS:          0 MSHR_MERGE:          0
cpu0->cpu0_L1I WRITE        ACCESS:          0 HIT:          0 MISS:          0 MSHR_MERGE:          0
cpu0->cpu0_L1I TRANSLATION  ACCESS:          0 HIT:          0 MISS:          0 MSHR_MERGE:          0
cpu0->cpu0_L1I PREFETCH REQUESTED:          0 ISSUED:          0 USEFUL:          0 USELESS:          0 LATE:          0
cpu0->cpu0_L1I AVERAGE MISS LATENCY: - cycles
cpu0->cpu0_L1D TOTAL        ACCESS:   77376435 HIT:   42459441 MISS:   34916994 MSHR_MERGE:     867091
cpu0->cpu0_L1D LOAD         ACCESS:   37652431 HIT:   17492188 MISS:   20160243 MSHR_MERGE:     835859
cpu0->cpu0_L1D RFO          ACCESS:          0 HIT:          0 MISS:          0 MSHR_MERGE:          0
cpu0->cpu0_L1D PREFETCH     ACCESS:          0 HIT:          0 MISS:          0 MSHR_MERGE:          0
cpu0->cpu0_L1D WRITE        ACCESS:     628321 HIT:     581455 MISS:      46866 MSHR_MERGE:      31228
cpu0->cpu0_L1D TRANSLATION  ACCESS:   39095683 HIT:   24385798 MISS:   14709885 MSHR_MERGE:          4
cpu0->cpu0_L1D PREFETCH REQUESTED:          0 ISSUED:          0 USEFUL:          0 USELESS:          0 LATE:          0
cpu0->cpu0_L1D AVERAGE MISS LATENCY: 117.7 cycles
cpu0->cpu0_ITLB TOTAL        ACCESS:   14886477 HIT:   14886477 MISS:          0 MSHR_MERGE:          0
cpu0->cpu0_ITLB LOAD         ACCESS:   14886477 HIT:   14886477 MISS:          0 MSHR_MERGE:          0
cpu0->cpu0_ITLB RFO          ACCESS:          0 HIT:          0 MISS:          0 MSHR_MERGE:          0
cpu0->cpu0_ITLB PREFETCH     ACCESS:          0 HIT:          0 MISS:          0 MSHR_MERGE:          0
cpu0->cpu0_ITLB WRITE        ACCESS:          0 HIT:          0 MISS:          0 MSHR_MERGE:          0
cpu0->cpu0_ITLB TRANSLATION  ACCESS:          0 HIT:          0 MISS:          0 MSHR_MERGE:          0
cpu0->cpu0_ITLB PREFETCH REQUESTED:          0 ISSUED:          0 USEFUL:          0 USELESS:          0 LATE:          0
cpu0->cpu0_ITLB AVERAGE MISS LATENCY: - cycles
cpu0->cpu0_DTLB TOTAL        ACCESS:   38258736 HIT:   21161755 MISS:   17096981 MSHR_MERGE:      37862
cpu0->cpu0_DTLB LOAD         ACCESS:   38258736 HIT:   21161755 MISS:   17096981 MSHR_MERGE:      37862
cpu0->cpu0_DTLB RFO          ACCESS:          0 HIT:          0 MISS:          0 MSHR_MERGE:          0
cpu0->cpu0_DTLB PREFETCH     ACCESS:          0 HIT:          0 MISS:          0 MSHR_MERGE:          0
cpu0->cpu0_DTLB WRITE        ACCESS:          0 HIT:          0 MISS:          0 MSHR_MERGE:          0
cpu0->cpu0_DTLB TRANSLATION  ACCESS:          0 HIT:          0 MISS:          0 MSHR_MERGE:          0
cpu0->cpu0_DTLB PREFETCH REQUESTED:          0 ISSUED:          0 USEFUL:          0 USELESS:          0 LATE:          0
cpu0->cpu0_DTLB AVERAGE MISS LATENCY: 40.74 cycles
cpu0->LLC TOTAL        ACCESS:   31289140 HIT:   13339096 MISS:   17950044 MSHR_MERGE:          0
cpu0->LLC LOAD         ACCESS:   19064722 HIT:    1557811 MISS:   17506911 MSHR_MERGE:          0
cpu0->LLC RFO          ACCESS:       1936 HIT:       1929 MISS:          7 MSHR_MERGE:          0
cpu0->LLC PREFETCH     ACCESS:          0 HIT:          0 MISS:          0 MSHR_MERGE:          0
cpu0->LLC WRITE        ACCESS:      38123 HIT:      11648 MISS:      26475 MSHR_MERGE:          0
cpu0->LLC TRANSLATION  ACCESS:   12184359 HIT:   11767708 MISS:     416651 MSHR_MERGE:          0
cpu0->LLC PREFETCH REQUESTED:          0 ISSUED:          0 USEFUL:          0 USELESS:          0 LATE:          0
cpu0->LLC AVERAGE MISS LATENCY: 179.3 cycles

DRAM Statistics

Channel 0 RQ ROW_BUFFER_HIT:      24552
  ROW_BUFFER_MISS:   17899016
  AVG DBUS CONGESTED CYCLE: 15.9
Channel 0 WQ ROW_BUFFER_HIT:       5239
  ROW_BUFFER_MISS:      29206
  FULL:          0
Channel 0 REFRESHES ISSUED:     353416

[ROI Statistics]
[System Configuration]
num_cpus 1
cpu_freq 4000
fetch_width 6
decode_width 6
dispatch_width 6
execute_width 6
lq_width 2
sq_width 2
retire_width 6
scheduler_size 128
branch_mispredict_penalty 15
rob_size 352
lq_size 128
sq_size 72
ifetch_buffer_size 64
decode_buffer_size 32
dispatch_buffer_size 32
register_file_size 288
decode_latency 1
dispatch_latency 1
schedule_latency 1
execute_latency 1
page_size 4096
block_size 64
core_0_itlb_set 16
core_0_itlb_way 4
core_0_itlb_rq_size 16
core_0_itlb_wq_size 16
core_0_itlb_pq_size 0
core_0_itlb_mshr_size 8
core_0_itlb_hit_latency 1
core_0_itlb_fill_latency 1
core_0_itlb_max_tag_check 2
core_0_itlb_max_fill 2
core_0_dtlb_set 16
core_0_dtlb_way 4
core_0_dtlb_rq_size 16
core_0_dtlb_wq_size 16
core_0_dtlb_pq_size 0
core_0_dtlb_mshr_size 8
core_0_dtlb_hit_latency 1
core_0_dtlb_fill_latency 1
core_0_dtlb_max_tag_check 2
core_0_dtlb_max_fill 2
core_0_stlb_set 128
core_0_stlb_way 12
core_0_stlb_rq_size 32
core_0_stlb_wq_size 32
core_0_stlb_pq_size 0
core_0_stlb_mshr_size 16
core_0_stlb_hit_latency 4
core_0_stlb_fill_latency 4
core_0_stlb_max_tag_check 1
core_0_stlb_max_fill 1
core_0_l1i_set 64
core_0_l1i_way 8
core_0_l1i_rq_size 64
core_0_l1i_wq_size 64
core_0_l1i_pq_size 32
core_0_l1i_mshr_size 8
core_0_l1i_hit_latency 2
core_0_l1i_fill_latency 2
core_0_l1i_max_tag_check 2
core_0_l1i_max_fill 2
core_0_l1d_set 64
core_0_l1d_way 12
core_0_l1d_rq_size 64
core_0_l1d_wq_size 64
core_0_l1d_pq_size 8
core_0_l1d_mshr_size 16
core_0_l1d_hit_latency 2
core_0_l1d_fill_latency 3
core_0_l1d_max_tag_check 2
core_0_l1d_max_fill 2
core_0_l2c_set 1024
core_0_l2c_way 8
core_0_l2c_rq_size 32
core_0_l2c_wq_size 32
core_0_l2c_pq_size 16
core_0_l2c_mshr_size 32
core_0_l2c_hit_latency 5
core_0_l2c_fill_latency 5
core_0_l2c_max_tag_check 1
core_0_l2c_max_fill 1
llc_set 2048
llc_way 16
llc_rq_size 32
llc_wq_size 32
llc_pq_size 32
llc_mshr_size 64
llc_hit_latency 10
llc_fill_latency 10
llc_max_tag_check 1
llc_max_fill 1
dram_channels 1
dram_ranks 1
dram_bankgroups 8
dram_banks 4
dram_rows 65536
dram_columns 1024
dram_channel_width 8
dram_rq_size 64
dram_wq_size 64
dram_size 17179869184
core_0_itlb_prefetcher no
core_0_dtlb_prefetcher no
core_0_stlb_prefetcher no
core_0_l1i_prefetcher no
core_0_l1d_prefetcher no
core_0_l2c_prefetcher no
llc_prefetcher no
llc_replacement drrip

Core_0_instructions 100000002
Core_0_cycles 4240994877
Core_0_IPC 0.0235794
Core_0_branch_prediction_accuracy 97.2966
Core_0_branch_MPKI 5.2756
Core_0_average_ROB_occupancy_at_mispredict 239.488

Core_0_ITLB_total_access 14886477
Core_0_ITLB_total_hit 14886477
Core_0_ITLB_total_miss 0
Core_0_ITLB_total_MPKI 0
Core_0_ITLB_total_miss_rate 0
Core_0_ITLB_demand_access 14886477
Core_0_ITLB_demand_hit 14886477
Core_0_ITLB_demand_miss 0
Core_0_ITLB_demand_MPKI 0
Core_0_ITLB_demand_miss_rate 0
Core_0_ITLB_load_access 14886477
Core_0_ITLB_load_hit 14886477
Core_0_ITLB_load_miss 0
Core_0_ITLB_load_MPKI 0
Core_0_ITLB_load_miss_rate 0
Core_0_ITLB_rfo_access 0
Core_0_ITLB_rfo_hit 0
Core_0_ITLB_rfo_miss 0
Core_0_ITLB_rfo_MPKI 0
Core_0_ITLB_rfo_miss_rate 0
Core_0_ITLB_prefetch_access 0
Core_0_ITLB_prefetch_hit 0
Core_0_ITLB_prefetch_miss 0
Core_0_ITLB_prefetch_MPKI 0
Core_0_ITLB_prefetch_miss_rate 0
Core_0_ITLB_writeback_access 0
Core_0_ITLB_writeback_hit 0
Core_0_ITLB_writeback_miss 0
Core_0_ITLB_writeback_MPKI 0
Core_0_ITLB_writeback_miss_rate 0
Core_0_ITLB_prefetch_requested 0
Core_0_ITLB_prefetch_issued 0
Core_0_ITLB_prefetch_useful 0
Core_0_ITLB_prefetch_useless 0
Core_0_ITLB_prefetch_late 0
Core_0_ITLB_prefetch_accuracy 0
Core_0_ITLB_prefetch_coverage 0

Core_0_DTLB_total_access 38258736
Core_0_DTLB_total_hit 21161755
Core_0_DTLB_total_miss 17096981
Core_0_DTLB_total_MPKI 170.97
Core_0_DTLB_total_miss_rate 0.446878
Core_0_DTLB_demand_access 38258736
Core_0_DTLB_demand_hit 21161755
Core_0_DTLB_demand_miss 17096981
Core_0_DTLB_demand_MPKI 170.97
Core_0_DTLB_demand_miss_rate 0.446878
Core_0_DTLB_load_access 38258736
Core_0_DTLB_load_hit 21161755
Core_0_DTLB_load_miss 17096981
Core_0_DTLB_load_MPKI 170.97
Core_0_DTLB_load_miss_rate 0.446878
Core_0_DTLB_rfo_access 0
Core_0_DTLB_rfo_hit 0
Core_0_DTLB_rfo_miss 0
Core_0_DTLB_rfo_MPKI 0
Core_0_DTLB_rfo_miss_rate 0
Core_0_DTLB_prefetch_access 0
Core_0_DTLB_prefetch_hit 0
Core_0_DTLB_prefetch_miss 0
Core_0_DTLB_prefetch_MPKI 0
Core_0_DTLB_prefetch_miss_rate 0
Core_0_DTLB_writeback_access 0
Core_0_DTLB_writeback_hit 0
Core_0_DTLB_writeback_miss 0
Core_0_DTLB_writeback_MPKI 0
Core_0_DTLB_writeback_miss_rate 0
Core_0_DTLB_prefetch_requested 0
Core_0_DTLB_prefetch_issued 0
Core_0_DTLB_prefetch_useful 0
Core_0_DTLB_prefetch_useless 0
Core_0_DTLB_prefetch_late 0
Core_0_DTLB_prefetch_accuracy 0
Core_0_DTLB_prefetch_coverage 0

Core_0_STLB_total_access 17059119
Core_0_STLB_total_hit 262240
Core_0_STLB_total_miss 16796879
Core_0_STLB_total_MPKI 167.969
Core_0_STLB_total_miss_rate 0.984628
Core_0_STLB_demand_access 17059119
Core_0_STLB_demand_hit 262240
Core_0_STLB_demand_miss 16796879
Core_0_STLB_demand_MPKI 167.969
Core_0_STLB_demand_miss_rate 0.984628
Core_0_STLB_load_access 17059119
Core_0_STLB_load_hit 262240
Core_0_STLB_load_miss 16796879
Core_0_STLB_load_MPKI 167.969
Core_0_STLB_load_miss_rate 0.984628
Core_0_STLB_rfo_access 0
Core_0_STLB_rfo_hit 0
Core_0_STLB_rfo_miss 0
Core_0_STLB_rfo_MPKI 0
Core_0_STLB_rfo_miss_rate 0
Core_0_STLB_prefetch_access 0
Core_0_STLB_prefetch_hit 0
Core_0_STLB_prefetch_miss 0
Core_0_STLB_prefetch_MPKI 0
Core_0_STLB_prefetch_miss_rate 0
Core_0_STLB_writeback_access 0
Core_0_STLB_writeback_hit 0
Core_0_STLB_writeback_miss 0
Core_0_STLB_writeback_MPKI 0
Core_0_STLB_writeback_miss_rate 0
Core_0_STLB_prefetch_requested 0
Core_0_STLB_prefetch_issued 0
Core_0_STLB_prefetch_useful 0
Core_0_STLB_prefetch_useless 0
Core_0_STLB_prefetch_late 0
Core_0_STLB_prefetch_accuracy 0
Core_0_STLB_prefetch_coverage 0

Core_0_L1I_total_access 14886477
Core_0_L1I_total_hit 14886477
Core_0_L1I_total_miss 0
Core_0_L1I_total_MPKI 0
Core_0_L1I_total_miss_rate 0
Core_0_L1I_demand_access 14886477
Core_0_L1I_demand_hit 14886477
Core_0_L1I_demand_miss 0
Core_0_L1I_demand_MPKI 0
Core_0_L1I_demand_miss_rate 0
Core_0_L1I_load_access 14886477
Core_0_L1I_load_hit 14886477
Core_0_L1I_load_miss 0
Core_0_L1I_load_MPKI 0
Core_0_L1I_load_miss_rate 0
Core_0_L1I_rfo_access 0
Core_0_L1I_rfo_hit 0
Core_0_L1I_rfo_miss 0
Core_0_L1I_rfo_MPKI 0
Core_0_L1I_rfo_miss_rate 0
Core_0_L1I_prefetch_access 0
Core_0_L1I_prefetch_hit 0
Core_0_L1I_prefetch_miss 0
Core_0_L1I_prefetch_MPKI 0
Core_0_L1I_prefetch_miss_rate 0
Core_0_L1I_writeback_access 0
Core_0_L1I_writeback_hit 0
Core_0_L1I_writeback_miss 0
Core_0_L1I_writeback_MPKI 0
Core_0_L1I_writeback_miss_rate 0
Core_0_L1I_prefetch_requested 0
Core_0_L1I_prefetch_issued 0
Core_0_L1I_prefetch_useful 0
Core_0_L1I_prefetch_useless 0
Core_0_L1I_prefetch_late 0
Core_0_L1I_prefetch_accuracy 0
Core_0_L1I_prefetch_coverage 0

Core_0_L1D_total_access 38280752
Core_0_L1D_total_hit 18073643
Core_0_L1D_total_miss 20207109
Core_0_L1D_total_MPKI 202.071
Core_0_L1D_total_miss_rate 0.527866
Core_0_L1D_demand_access 37652431
Core_0_L1D_demand_hit 17492188
Core_0_L1D_demand_miss 20160243
Core_0_L1D_demand_MPKI 201.602
Core_0_L1D_demand_miss_rate 0.53543
Core_0_L1D_load_access 37652431
Core_0_L1D_load_hit 17492188
Core_0_L1D_load_miss 20160243
Core_0_L1D_load_MPKI 201.602
Core_0_L1D_load_miss_rate 0.53543
Core_0_L1D_rfo_access 0
Core_0_L1D_rfo_hit 0
Core_0_L1D_rfo_miss 0
Core_0_L1D_rfo_MPKI 0
Core_0_L1D_rfo_miss_rate 0
Core_0_L1D_prefetch_access 0
Core_0_L1D_prefetch_hit 0
Core_0_L1D_prefetch_miss 0
Core_0_L1D_prefetch_MPKI 0
Core_0_L1D_prefetch_miss_rate 0
Core_0_L1D_writeback_access 628321
Core_0_L1D_writeback_hit 581455
Core_0_L1D_writeback_miss 46866
Core_0_L1D_writeback_MPKI 0.46866
Core_0_L1D_writeback_miss_rate 0.0745893
Core_0_L1D_prefetch_requested 0
Core_0_L1D_prefetch_issued 0
Core_0_L1D_prefetch_useful 0
Core_0_L1D_prefetch_useless 0
Core_0_L1D_prefetch_late 0
Core_0_L1D_prefetch_accuracy 0
Core_0_L1D_prefetch_coverage 0

Core_0_L2C_total_access 19404009
Core_0_L2C_total_hit 337351
Core_0_L2C_total_miss 19066658
Core_0_L2C_total_MPKI 190.667
Core_0_L2C_total_miss_rate 0.982614
Core_0_L2C_demand_access 19340023
Core_0_L2C_demand_hit 273365
Core_0_L2C_demand_miss 19066658
Core_0_L2C_demand_MPKI 190.667
Core_0_L2C_demand_miss_rate 0.985865
Core_0_L2C_load_access 19324385
Core_0_L2C_load_hit 259663
Core_0_L2C_load_miss 19064722
Core_0_L2C_load_MPKI 190.647
Core_0_L2C_load_miss_rate 0.986563
Core_0_L2C_rfo_access 15638
Core_0_L2C_rfo_hit 13702
Core_0_L2C_rfo_miss 1936
Core_0_L2C_rfo_MPKI 0.01936
Core_0_L2C_rfo_miss_rate 0.123801
Core_0_L2C_prefetch_access 0
Core_0_L2C_prefetch_hit 0
Core_0_L2C_prefetch_miss 0
Core_0_L2C_prefetch_MPKI 0
Core_0_L2C_prefetch_miss_rate 0
Core_0_L2C_writeback_access 63986
Core_0_L2C_writeback_hit 63986
Core_0_L2C_writeback_miss 0
Core_0_L2C_writeback_MPKI 0
Core_0_L2C_writeback_miss_rate 0
Core_0_L2C_prefetch_requested 0
Core_0_L2C_prefetch_issued 0
Core_0_L2C_prefetch_useful 0
Core_0_L2C_prefetch_useless 0
Core_0_L2C_prefetch_late 0
Core_0_L2C_prefetch_accuracy 0
Core_0_L2C_prefetch_coverage 0

Core_0_LLC_total_access 19104781
Core_0_LLC_total_hit 1571388
Core_0_LLC_total_miss 17533393
Core_0_LLC_total_MPKI 175.334
Core_0_LLC_total_miss_rate 0.917749
Core_0_LLC_demand_access 19066658
Core_0_LLC_demand_hit 1559740
Core_0_LLC_demand_miss 17506918
Core_0_LLC_demand_MPKI 175.069
Core_0_LLC_demand_miss_rate 0.918195
Core_0_LLC_load_access 19064722
Core_0_LLC_load_hit 1557811
Core_0_LLC_load_miss 17506911
Core_0_LLC_load_MPKI 175.069
Core_0_LLC_load_miss_rate 0.918288
Core_0_LLC_rfo_access 1936
Core_0_LLC_rfo_hit 1929
Core_0_LLC_rfo_miss 7
Core_0_LLC_rfo_MPKI 7e-05
Core_0_LLC_rfo_miss_rate 0.0036157
Core_0_LLC_prefetch_access 0
Core_0_LLC_prefetch_hit 0
Core_0_LLC_prefetch_miss 0
Core_0_LLC_prefetch_MPKI 0
Core_0_LLC_prefetch_miss_rate 0
Core_0_LLC_writeback_access 38123
Core_0_LLC_writeback_hit 11648
Core_0_LLC_writeback_miss 26475
Core_0_LLC_writeback_MPKI 0.26475
Core_0_LLC_writeback_miss_rate 0.694463
Core_0_LLC_prefetch_requested 0
Core_0_LLC_prefetch_issued 0
Core_0_LLC_prefetch_useful 0
Core_0_LLC_prefetch_useless 0
Core_0_LLC_prefetch_late 0
Core_0_LLC_prefetch_accuracy 0
Core_0_LLC_prefetch_coverage 0

[DRAM Statistics]
Channel_0_RQ_row_buffer_hit 24552
Channel_0_RQ_row_buffer_miss 17899016
Channel_0_WQ_row_buffer_hit 5239
Channel_0_WQ_row_buffer_miss 29206
Channel_0_WQ_full 0
Channel_0_dbus_congested 3832932
DRAM_total_RQ_row_buffer_hit 24552
DRAM_total_RQ_row_buffer_miss 17899016
DRAM_total_WQ_row_buffer_hit 5239
DRAM_total_WQ_row_buffer_miss 29206
DRAM_total_WQ_full 0
DRAM_total_dbus_congested 3832932
DRAM_avg_congested_cycle 15.9044

====== DRAM_RQ_TRAFFIC ========
DRAM_RQ_READ_TRAFFIC_BREAKDOWN:
data_demand_read.count = 17506918
data_demand_read.share = 97.68%

inst_demand_read.count = 0
inst_demand_read.share = 0.00%

cache_inst_prefetch.count = 0
cache_inst_prefetch.share = 0.00%

cache_data_prefetch.count = 0
cache_data_prefetch.share = 0.00%

stlb_data_demand.count = 416651
stlb_data_demand.share = 2.32%

stlb_inst_demand.count = 0
stlb_inst_demand.share = 0.00%

stlb_l1i_pref.count = 0
stlb_l1i_pref.share = 0.00%

stlb_l1d_pref.count = 0
stlb_l1d_pref.share = 0.00%

DRAM_RQ_READ_TRAFFIC_SUMMARY:
cache_demand.count = 17506918
cache_demand.share = 97.68%

cache_prefetch.count = 0
cache_prefetch.share = 0.00%

stlb_demand.count = 416651
stlb_demand.share = 2.32%

stlb_prefetch.count = 0
stlb_prefetch.share = 0.00%

DRAM_RQ_READ_TRAFFIC_DEBUG:
total_classified_read.count = 17923569
unclassified_read.count = 0
total_read_with_other.count = 17923569

classified_plus_unclassified_check.count = 17923569
dram_rq_read_total_observed.count = 17923569
dram_rq_read_total_observed.per_1K_instructions = 179.236

STLB_MISS_PTW_DRAM_TOUCH_BREAKDOWN:
stlb_miss_total.count = 16796879

stlb_miss_touch_dram.count = 416522
stlb_miss_touch_dram.share = 2.48%

stlb_miss_no_dram_touch.count = 16380357
stlb_miss_no_dram_touch.share = 97.52%

STLB_MISS_PTW_DRAM_TOUCH_DEBUG:
stlb_miss_touch_plus_no_touch.count = 16796879
stlb_miss_total_check.count = 16796879

======STLB miss causes ========
Core_0_STLB_miss_cause_breakdown
Core_0_STLB_cause_Demand_Data_miss 16796879
Core_0_STLB_cause_Demand_Data_miss_rate 0.984628
Core_0_STLB_cause_Demand_Instruction_miss 0
Core_0_STLB_cause_Demand_Instruction_miss_rate 0
Core_0_STLB_cause_L1D_Prefetch_miss 0
Core_0_STLB_cause_L1D_Prefetch_miss_rate 0
Core_0_STLB_cause_L1I_Prefetch_miss 0
Core_0_STLB_cause_L1I_Prefetch_miss_rate 0
Core_0_STLB_cause_Other_miss 0
Core_0_STLB_cause_Other_miss_rate 0
Core_0_STLB_Demand_miss 16796879
Core_0_STLB_Demand_miss_rate 0.984628
Core_0_STLB_L1D_Prefetch_miss 0
Core_0_STLB_L1D_Prefetch_miss_rate 0
Core_0_STLB_Other_miss 0
Core_0_STLB_Other_miss_rate 0
