[VMEM] WARNING: physical memory size is smaller than virtual memory size.

*** ChampSim Multicore Out-of-Order Simulator ***
Warmup Instructions: 50000000
Simulation Instructions: 100000000
Number of CPUs: 1
Page size: 4096
Core 0: /data0/tzh/champsim_traces/QMM/srv_47_new.xz
Off-chip DRAM Size: 16 GiB Channels: 1 Width: 64-bit Data Rate: 3205 MT/s
*** Reached end of trace: (0, "/data0/tzh/champsim_traces/QMM/srv_47_new.xz")
[BTB] WARNING: target of return is a lower address than the corresponding call. This is usually a problem with your trace.
[BTB] WARNING: target of return is a lower address than the corresponding call. This is usually a problem with your trace.
Warmup halting CPU 0 at instruction 50000001 cycle 11920734 for remainder of phase
Warmup finished CPU 0 instructions: 50000001 cycles: 11920734 cumulative IPC: 4.194 (Simulation time: 00 hr 02 min 44 sec)
Warmup complete CPU 0 instructions: 50000001 cycles: 11920734 cumulative IPC: 4.194 (Simulation time: 00 hr 02 min 44 sec)
*** Reached end of trace: (0, "/data0/tzh/champsim_traces/QMM/srv_47_new.xz")
[BTB] WARNING: target of return is a lower address than the corresponding call. This is usually a problem with your trace.
[BTB] WARNING: target of return is a lower address than the corresponding call. This is usually a problem with your trace.
*** Reached end of trace: (0, "/data0/tzh/champsim_traces/QMM/srv_47_new.xz")
[BTB] WARNING: target of return is a lower address than the corresponding call. This is usually a problem with your trace.
[BTB] WARNING: target of return is a lower address than the corresponding call. This is usually a problem with your trace.
*** Reached end of trace: (0, "/data0/tzh/champsim_traces/QMM/srv_47_new.xz")
[BTB] WARNING: target of return is a lower address than the corresponding call. This is usually a problem with your trace.
[BTB] WARNING: target of return is a lower address than the corresponding call. This is usually a problem with your trace.
Simulation finished CPU 0 instructions: 100000001 cycles: 59236179 cumulative IPC: 1.688 (Simulation time: 00 hr 11 min 17 sec)
Simulation complete CPU 0 instructions: 100000001 cycles: 59236179 cumulative IPC: 1.688 (Simulation time: 00 hr 11 min 17 sec)

ChampSim completed all CPUs

=== Simulation ===
CPU 0 runs /data0/tzh/champsim_traces/QMM/srv_47_new.xz

Region of Interest Statistics

CPU 0 cumulative IPC: 1.688 instructions: 100000001 cycles: 59236179
CPU 0 Branch Prediction Accuracy: 98.18% MPKI: 3.243 Average ROB Occupancy at Mispredict: 69.54
Branch type MPKI
BRANCH_DIRECT_JUMP: 0.2204
BRANCH_INDIRECT: 0.2298
BRANCH_CONDITIONAL: 1.439
BRANCH_DIRECT_CALL: 0.3306
BRANCH_INDIRECT_CALL: 0.7363
BRANCH_RETURN: 0.2866

cpu0->cpu0_STLB TOTAL        ACCESS:    1212639 HIT:    1184062 MISS:      28577 MSHR_MERGE:          0
cpu0->cpu0_STLB LOAD         ACCESS:    1212639 HIT:    1184062 MISS:      28577 MSHR_MERGE:          0
cpu0->cpu0_STLB RFO          ACCESS:          0 HIT:          0 MISS:          0 MSHR_MERGE:          0
cpu0->cpu0_STLB PREFETCH     ACCESS:          0 HIT:          0 MISS:          0 MSHR_MERGE:          0
cpu0->cpu0_STLB WRITE        ACCESS:          0 HIT:          0 MISS:          0 MSHR_MERGE:          0
cpu0->cpu0_STLB TRANSLATION  ACCESS:          0 HIT:          0 MISS:          0 MSHR_MERGE:          0
cpu0->cpu0_STLB PREFETCH REQUESTED:          0 ISSUED:          0 USEFUL:          0 USELESS:          0 LATE:          0
cpu0->cpu0_STLB AVERAGE MISS LATENCY: 85.99 cycles
cpu0->cpu0_L2C TOTAL        ACCESS:    4535804 HIT:    3453298 MISS:    1082506 MSHR_MERGE:          0
cpu0->cpu0_L2C LOAD         ACCESS:    3437865 HIT:    2638700 MISS:     799165 MSHR_MERGE:          0
cpu0->cpu0_L2C RFO          ACCESS:     424675 HIT:     171525 MISS:     253150 MSHR_MERGE:          0
cpu0->cpu0_L2C PREFETCH     ACCESS:          0 HIT:          0 MISS:          0 MSHR_MERGE:          0
cpu0->cpu0_L2C WRITE        ACCESS:     639765 HIT:     635284 MISS:       4481 MSHR_MERGE:          0
cpu0->cpu0_L2C TRANSLATION  ACCESS:      33499 HIT:       7789 MISS:      25710 MSHR_MERGE:          0
cpu0->cpu0_L2C PREFETCH REQUESTED:          0 ISSUED:          0 USEFUL:          0 USELESS:          0 LATE:          0
cpu0->cpu0_L2C AVERAGE MISS LATENCY: 47.05 cycles
cpu0->cpu0_L1I TOTAL        ACCESS:   18154322 HIT:   14532253 MISS:    3622069 MSHR_MERGE:    1072104
cpu0->cpu0_L1I LOAD         ACCESS:   18154322 HIT:   14532253 MISS:    3622069 MSHR_MERGE:    1072104
cpu0->cpu0_L1I RFO          ACCESS:          0 HIT:          0 MISS:          0 MSHR_MERGE:          0
cpu0->cpu0_L1I PREFETCH     ACCESS:          0 HIT:          0 MISS:          0 MSHR_MERGE:          0
cpu0->cpu0_L1I WRITE        ACCESS:          0 HIT:          0 MISS:          0 MSHR_MERGE:          0
cpu0->cpu0_L1I TRANSLATION  ACCESS:          0 HIT:          0 MISS:          0 MSHR_MERGE:          0
cpu0->cpu0_L1I PREFETCH REQUESTED:          0 ISSUED:          0 USEFUL:          0 USELESS:          0 LATE:          0
cpu0->cpu0_L1I AVERAGE MISS LATENCY: 10.66 cycles
cpu0->cpu0_L1D TOTAL        ACCESS:   29009236 HIT:   26164818 MISS:    2844418 MSHR_MERGE:    1498314
cpu0->cpu0_L1D LOAD         ACCESS:   16688206 HIT:   15534354 MISS:    1153852 MSHR_MERGE:     265934
cpu0->cpu0_L1D RFO          ACCESS:          0 HIT:          0 MISS:          0 MSHR_MERGE:          0
cpu0->cpu0_L1D PREFETCH     ACCESS:          0 HIT:          0 MISS:          0 MSHR_MERGE:          0
cpu0->cpu0_L1D WRITE        ACCESS:   12249916 HIT:   10593229 MISS:    1656687 MSHR_MERGE:    1232000
cpu0->cpu0_L1D TRANSLATION  ACCESS:      71114 HIT:      37235 MISS:      33879 MSHR_MERGE:        380
cpu0->cpu0_L1D PREFETCH REQUESTED:          0 ISSUED:          0 USEFUL:          0 USELESS:          0 LATE:          0
cpu0->cpu0_L1D AVERAGE MISS LATENCY: 40.8 cycles
cpu0->cpu0_ITLB TOTAL        ACCESS:   15835340 HIT:   14446076 MISS:    1389264 MSHR_MERGE:     804471
cpu0->cpu0_ITLB LOAD         ACCESS:   15835340 HIT:   14446076 MISS:    1389264 MSHR_MERGE:     804471
cpu0->cpu0_ITLB RFO          ACCESS:          0 HIT:          0 MISS:          0 MSHR_MERGE:          0
cpu0->cpu0_ITLB PREFETCH     ACCESS:          0 HIT:          0 MISS:          0 MSHR_MERGE:          0
cpu0->cpu0_ITLB WRITE        ACCESS:          0 HIT:          0 MISS:          0 MSHR_MERGE:          0
cpu0->cpu0_ITLB TRANSLATION  ACCESS:          0 HIT:          0 MISS:          0 MSHR_MERGE:          0
cpu0->cpu0_ITLB PREFETCH REQUESTED:          0 ISSUED:          0 USEFUL:          0 USELESS:          0 LATE:          0
cpu0->cpu0_ITLB AVERAGE MISS LATENCY: 5.428 cycles
cpu0->cpu0_DTLB TOTAL        ACCESS:   26965483 HIT:   26044802 MISS:     920681 MSHR_MERGE:     292835
cpu0->cpu0_DTLB LOAD         ACCESS:   26965483 HIT:   26044802 MISS:     920681 MSHR_MERGE:     292835
cpu0->cpu0_DTLB RFO          ACCESS:          0 HIT:          0 MISS:          0 MSHR_MERGE:          0
cpu0->cpu0_DTLB PREFETCH     ACCESS:          0 HIT:          0 MISS:          0 MSHR_MERGE:          0
cpu0->cpu0_DTLB WRITE        ACCESS:          0 HIT:          0 MISS:          0 MSHR_MERGE:          0
cpu0->cpu0_DTLB TRANSLATION  ACCESS:          0 HIT:          0 MISS:          0 MSHR_MERGE:          0
cpu0->cpu0_DTLB PREFETCH REQUESTED:          0 ISSUED:          0 USEFUL:          0 USELESS:          0 LATE:          0
cpu0->cpu0_DTLB AVERAGE MISS LATENCY: 8.591 cycles
cpu0->LLC TOTAL        ACCESS:    1412872 HIT:    1219046 MISS:     193826 MSHR_MERGE:          0
cpu0->LLC LOAD         ACCESS:     799165 HIT:     691076 MISS:     108089 MSHR_MERGE:          0
cpu0->LLC RFO          ACCESS:     253145 HIT:     202029 MISS:      51116 MSHR_MERGE:          0
cpu0->LLC PREFETCH     ACCESS:          0 HIT:          0 MISS:          0 MSHR_MERGE:          0
cpu0->LLC WRITE        ACCESS:     334852 HIT:     307169 MISS:      27683 MSHR_MERGE:          0
cpu0->LLC TRANSLATION  ACCESS:      25710 HIT:      18772 MISS:       6938 MSHR_MERGE:          0
cpu0->LLC PREFETCH REQUESTED:          0 ISSUED:          0 USEFUL:          0 USELESS:          0 LATE:          0
cpu0->LLC AVERAGE MISS LATENCY: 179.6 cycles

DRAM Statistics

Channel 0 RQ ROW_BUFFER_HIT:      10532
  ROW_BUFFER_MISS:     155558
  AVG DBUS CONGESTED CYCLE: 14.82
Channel 0 WQ ROW_BUFFER_HIT:      13909
  ROW_BUFFER_MISS:      56342
  FULL:          0
Channel 0 REFRESHES ISSUED:       4936

[ROI Statistics]
[System Configuration]
num_cpus 1
cpu_freq 4000
fetch_width 6
decode_width 6
dispatch_width 6
execute_width 6
lq_width 2
sq_width 2
retire_width 6
scheduler_size 128
branch_mispredict_penalty 15
rob_size 352
lq_size 128
sq_size 72
ifetch_buffer_size 64
decode_buffer_size 32
dispatch_buffer_size 32
register_file_size 288
decode_latency 1
dispatch_latency 1
schedule_latency 1
execute_latency 1
page_size 4096
block_size 64
core_0_itlb_set 16
core_0_itlb_way 4
core_0_itlb_rq_size 16
core_0_itlb_wq_size 16
core_0_itlb_pq_size 0
core_0_itlb_mshr_size 8
core_0_itlb_hit_latency 1
core_0_itlb_fill_latency 1
core_0_itlb_max_tag_check 2
core_0_itlb_max_fill 2
core_0_dtlb_set 16
core_0_dtlb_way 4
core_0_dtlb_rq_size 16
core_0_dtlb_wq_size 16
core_0_dtlb_pq_size 0
core_0_dtlb_mshr_size 8
core_0_dtlb_hit_latency 1
core_0_dtlb_fill_latency 1
core_0_dtlb_max_tag_check 2
core_0_dtlb_max_fill 2
core_0_stlb_set 128
core_0_stlb_way 12
core_0_stlb_rq_size 32
core_0_stlb_wq_size 32
core_0_stlb_pq_size 0
core_0_stlb_mshr_size 16
core_0_stlb_hit_latency 4
core_0_stlb_fill_latency 4
core_0_stlb_max_tag_check 1
core_0_stlb_max_fill 1
core_0_l1i_set 64
core_0_l1i_way 8
core_0_l1i_rq_size 64
core_0_l1i_wq_size 64
core_0_l1i_pq_size 32
core_0_l1i_mshr_size 8
core_0_l1i_hit_latency 2
core_0_l1i_fill_latency 2
core_0_l1i_max_tag_check 2
core_0_l1i_max_fill 2
core_0_l1d_set 64
core_0_l1d_way 12
core_0_l1d_rq_size 64
core_0_l1d_wq_size 64
core_0_l1d_pq_size 8
core_0_l1d_mshr_size 16
core_0_l1d_hit_latency 2
core_0_l1d_fill_latency 3
core_0_l1d_max_tag_check 2
core_0_l1d_max_fill 2
core_0_l2c_set 1024
core_0_l2c_way 8
core_0_l2c_rq_size 32
core_0_l2c_wq_size 32
core_0_l2c_pq_size 16
core_0_l2c_mshr_size 32
core_0_l2c_hit_latency 5
core_0_l2c_fill_latency 5
core_0_l2c_max_tag_check 1
core_0_l2c_max_fill 1
llc_set 2048
llc_way 16
llc_rq_size 32
llc_wq_size 32
llc_pq_size 32
llc_mshr_size 64
llc_hit_latency 10
llc_fill_latency 10
llc_max_tag_check 1
llc_max_fill 1
dram_channels 1
dram_ranks 1
dram_bankgroups 8
dram_banks 4
dram_rows 65536
dram_columns 1024
dram_channel_width 8
dram_rq_size 64
dram_wq_size 64
dram_size 17179869184
core_0_itlb_prefetcher no
core_0_dtlb_prefetcher no
core_0_stlb_prefetcher no
core_0_l1i_prefetcher no
core_0_l1d_prefetcher no
core_0_l2c_prefetcher no
llc_prefetcher no
llc_replacement drrip

Core_0_instructions 100000001
Core_0_cycles 59236179
Core_0_IPC 1.68816
Core_0_branch_prediction_accuracy 98.1843
Core_0_branch_MPKI 3.24333
Core_0_average_ROB_occupancy_at_mispredict 69.5369

Core_0_ITLB_total_access 15835340
Core_0_ITLB_total_hit 14446076
Core_0_ITLB_total_miss 1389264
Core_0_ITLB_total_MPKI 13.8926
Core_0_ITLB_total_miss_rate 0.0877319
Core_0_ITLB_demand_access 15835340
Core_0_ITLB_demand_hit 14446076
Core_0_ITLB_demand_miss 1389264
Core_0_ITLB_demand_MPKI 13.8926
Core_0_ITLB_demand_miss_rate 0.0877319
Core_0_ITLB_load_access 15835340
Core_0_ITLB_load_hit 14446076
Core_0_ITLB_load_miss 1389264
Core_0_ITLB_load_MPKI 13.8926
Core_0_ITLB_load_miss_rate 0.0877319
Core_0_ITLB_rfo_access 0
Core_0_ITLB_rfo_hit 0
Core_0_ITLB_rfo_miss 0
Core_0_ITLB_rfo_MPKI 0
Core_0_ITLB_rfo_miss_rate 0
Core_0_ITLB_prefetch_access 0
Core_0_ITLB_prefetch_hit 0
Core_0_ITLB_prefetch_miss 0
Core_0_ITLB_prefetch_MPKI 0
Core_0_ITLB_prefetch_miss_rate 0
Core_0_ITLB_writeback_access 0
Core_0_ITLB_writeback_hit 0
Core_0_ITLB_writeback_miss 0
Core_0_ITLB_writeback_MPKI 0
Core_0_ITLB_writeback_miss_rate 0
Core_0_ITLB_prefetch_requested 0
Core_0_ITLB_prefetch_issued 0
Core_0_ITLB_prefetch_useful 0
Core_0_ITLB_prefetch_useless 0
Core_0_ITLB_prefetch_late 0
Core_0_ITLB_prefetch_accuracy 0
Core_0_ITLB_prefetch_coverage 0

Core_0_DTLB_total_access 26965483
Core_0_DTLB_total_hit 26044802
Core_0_DTLB_total_miss 920681
Core_0_DTLB_total_MPKI 9.20681
Core_0_DTLB_total_miss_rate 0.0341429
Core_0_DTLB_demand_access 26965483
Core_0_DTLB_demand_hit 26044802
Core_0_DTLB_demand_miss 920681
Core_0_DTLB_demand_MPKI 9.20681
Core_0_DTLB_demand_miss_rate 0.0341429
Core_0_DTLB_load_access 26965483
Core_0_DTLB_load_hit 26044802
Core_0_DTLB_load_miss 920681
Core_0_DTLB_load_MPKI 9.20681
Core_0_DTLB_load_miss_rate 0.0341429
Core_0_DTLB_rfo_access 0
Core_0_DTLB_rfo_hit 0
Core_0_DTLB_rfo_miss 0
Core_0_DTLB_rfo_MPKI 0
Core_0_DTLB_rfo_miss_rate 0
Core_0_DTLB_prefetch_access 0
Core_0_DTLB_prefetch_hit 0
Core_0_DTLB_prefetch_miss 0
Core_0_DTLB_prefetch_MPKI 0
Core_0_DTLB_prefetch_miss_rate 0
Core_0_DTLB_writeback_access 0
Core_0_DTLB_writeback_hit 0
Core_0_DTLB_writeback_miss 0
Core_0_DTLB_writeback_MPKI 0
Core_0_DTLB_writeback_miss_rate 0
Core_0_DTLB_prefetch_requested 0
Core_0_DTLB_prefetch_issued 0
Core_0_DTLB_prefetch_useful 0
Core_0_DTLB_prefetch_useless 0
Core_0_DTLB_prefetch_late 0
Core_0_DTLB_prefetch_accuracy 0
Core_0_DTLB_prefetch_coverage 0

Core_0_STLB_total_access 1212639
Core_0_STLB_total_hit 1184062
Core_0_STLB_total_miss 28577
Core_0_STLB_total_MPKI 0.28577
Core_0_STLB_total_miss_rate 0.023566
Core_0_STLB_demand_access 1212639
Core_0_STLB_demand_hit 1184062
Core_0_STLB_demand_miss 28577
Core_0_STLB_demand_MPKI 0.28577
Core_0_STLB_demand_miss_rate 0.023566
Core_0_STLB_load_access 1212639
Core_0_STLB_load_hit 1184062
Core_0_STLB_load_miss 28577
Core_0_STLB_load_MPKI 0.28577
Core_0_STLB_load_miss_rate 0.023566
Core_0_STLB_rfo_access 0
Core_0_STLB_rfo_hit 0
Core_0_STLB_rfo_miss 0
Core_0_STLB_rfo_MPKI 0
Core_0_STLB_rfo_miss_rate 0
Core_0_STLB_prefetch_access 0
Core_0_STLB_prefetch_hit 0
Core_0_STLB_prefetch_miss 0
Core_0_STLB_prefetch_MPKI 0
Core_0_STLB_prefetch_miss_rate 0
Core_0_STLB_writeback_access 0
Core_0_STLB_writeback_hit 0
Core_0_STLB_writeback_miss 0
Core_0_STLB_writeback_MPKI 0
Core_0_STLB_writeback_miss_rate 0
Core_0_STLB_prefetch_requested 0
Core_0_STLB_prefetch_issued 0
Core_0_STLB_prefetch_useful 0
Core_0_STLB_prefetch_useless 0
Core_0_STLB_prefetch_late 0
Core_0_STLB_prefetch_accuracy 0
Core_0_STLB_prefetch_coverage 0

Core_0_L1I_total_access 18154322
Core_0_L1I_total_hit 14532253
Core_0_L1I_total_miss 3622069
Core_0_L1I_total_MPKI 36.2207
Core_0_L1I_total_miss_rate 0.199516
Core_0_L1I_demand_access 18154322
Core_0_L1I_demand_hit 14532253
Core_0_L1I_demand_miss 3622069
Core_0_L1I_demand_MPKI 36.2207
Core_0_L1I_demand_miss_rate 0.199516
Core_0_L1I_load_access 18154322
Core_0_L1I_load_hit 14532253
Core_0_L1I_load_miss 3622069
Core_0_L1I_load_MPKI 36.2207
Core_0_L1I_load_miss_rate 0.199516
Core_0_L1I_rfo_access 0
Core_0_L1I_rfo_hit 0
Core_0_L1I_rfo_miss 0
Core_0_L1I_rfo_MPKI 0
Core_0_L1I_rfo_miss_rate 0
Core_0_L1I_prefetch_access 0
Core_0_L1I_prefetch_hit 0
Core_0_L1I_prefetch_miss 0
Core_0_L1I_prefetch_MPKI 0
Core_0_L1I_prefetch_miss_rate 0
Core_0_L1I_writeback_access 0
Core_0_L1I_writeback_hit 0
Core_0_L1I_writeback_miss 0
Core_0_L1I_writeback_MPKI 0
Core_0_L1I_writeback_miss_rate 0
Core_0_L1I_prefetch_requested 0
Core_0_L1I_prefetch_issued 0
Core_0_L1I_prefetch_useful 0
Core_0_L1I_prefetch_useless 0
Core_0_L1I_prefetch_late 0
Core_0_L1I_prefetch_accuracy 0
Core_0_L1I_prefetch_coverage 0

Core_0_L1D_total_access 28938122
Core_0_L1D_total_hit 26127583
Core_0_L1D_total_miss 2810539
Core_0_L1D_total_MPKI 28.1054
Core_0_L1D_total_miss_rate 0.0971224
Core_0_L1D_demand_access 16688206
Core_0_L1D_demand_hit 15534354
Core_0_L1D_demand_miss 1153852
Core_0_L1D_demand_MPKI 11.5385
Core_0_L1D_demand_miss_rate 0.0691418
Core_0_L1D_load_access 16688206
Core_0_L1D_load_hit 15534354
Core_0_L1D_load_miss 1153852
Core_0_L1D_load_MPKI 11.5385
Core_0_L1D_load_miss_rate 0.0691418
Core_0_L1D_rfo_access 0
Core_0_L1D_rfo_hit 0
Core_0_L1D_rfo_miss 0
Core_0_L1D_rfo_MPKI 0
Core_0_L1D_rfo_miss_rate 0
Core_0_L1D_prefetch_access 0
Core_0_L1D_prefetch_hit 0
Core_0_L1D_prefetch_miss 0
Core_0_L1D_prefetch_MPKI 0
Core_0_L1D_prefetch_miss_rate 0
Core_0_L1D_writeback_access 12249916
Core_0_L1D_writeback_hit 10593229
Core_0_L1D_writeback_miss 1656687
Core_0_L1D_writeback_MPKI 16.5669
Core_0_L1D_writeback_miss_rate 0.135241
Core_0_L1D_prefetch_requested 0
Core_0_L1D_prefetch_issued 0
Core_0_L1D_prefetch_useful 0
Core_0_L1D_prefetch_useless 0
Core_0_L1D_prefetch_late 0
Core_0_L1D_prefetch_accuracy 0
Core_0_L1D_prefetch_coverage 0

Core_0_L2C_total_access 4502305
Core_0_L2C_total_hit 3445509
Core_0_L2C_total_miss 1056796
Core_0_L2C_total_MPKI 10.568
Core_0_L2C_total_miss_rate 0.234723
Core_0_L2C_demand_access 3862540
Core_0_L2C_demand_hit 2810225
Core_0_L2C_demand_miss 1052315
Core_0_L2C_demand_MPKI 10.5231
Core_0_L2C_demand_miss_rate 0.272441
Core_0_L2C_load_access 3437865
Core_0_L2C_load_hit 2638700
Core_0_L2C_load_miss 799165
Core_0_L2C_load_MPKI 7.99165
Core_0_L2C_load_miss_rate 0.23246
Core_0_L2C_rfo_access 424675
Core_0_L2C_rfo_hit 171525
Core_0_L2C_rfo_miss 253150
Core_0_L2C_rfo_MPKI 2.5315
Core_0_L2C_rfo_miss_rate 0.596103
Core_0_L2C_prefetch_access 0
Core_0_L2C_prefetch_hit 0
Core_0_L2C_prefetch_miss 0
Core_0_L2C_prefetch_MPKI 0
Core_0_L2C_prefetch_miss_rate 0
Core_0_L2C_writeback_access 639765
Core_0_L2C_writeback_hit 635284
Core_0_L2C_writeback_miss 4481
Core_0_L2C_writeback_MPKI 0.04481
Core_0_L2C_writeback_miss_rate 0.00700413
Core_0_L2C_prefetch_requested 0
Core_0_L2C_prefetch_issued 0
Core_0_L2C_prefetch_useful 0
Core_0_L2C_prefetch_useless 0
Core_0_L2C_prefetch_late 0
Core_0_L2C_prefetch_accuracy 0
Core_0_L2C_prefetch_coverage 0

Core_0_LLC_total_access 1387162
Core_0_LLC_total_hit 1200274
Core_0_LLC_total_miss 186888
Core_0_LLC_total_MPKI 1.86888
Core_0_LLC_total_miss_rate 0.134727
Core_0_LLC_demand_access 1052310
Core_0_LLC_demand_hit 893105
Core_0_LLC_demand_miss 159205
Core_0_LLC_demand_MPKI 1.59205
Core_0_LLC_demand_miss_rate 0.151291
Core_0_LLC_load_access 799165
Core_0_LLC_load_hit 691076
Core_0_LLC_load_miss 108089
Core_0_LLC_load_MPKI 1.08089
Core_0_LLC_load_miss_rate 0.135252
Core_0_LLC_rfo_access 253145
Core_0_LLC_rfo_hit 202029
Core_0_LLC_rfo_miss 51116
Core_0_LLC_rfo_MPKI 0.51116
Core_0_LLC_rfo_miss_rate 0.201924
Core_0_LLC_prefetch_access 0
Core_0_LLC_prefetch_hit 0
Core_0_LLC_prefetch_miss 0
Core_0_LLC_prefetch_MPKI 0
Core_0_LLC_prefetch_miss_rate 0
Core_0_LLC_writeback_access 334852
Core_0_LLC_writeback_hit 307169
Core_0_LLC_writeback_miss 27683
Core_0_LLC_writeback_MPKI 0.27683
Core_0_LLC_writeback_miss_rate 0.0826723
Core_0_LLC_prefetch_requested 0
Core_0_LLC_prefetch_issued 0
Core_0_LLC_prefetch_useful 0
Core_0_LLC_prefetch_useless 0
Core_0_LLC_prefetch_late 0
Core_0_LLC_prefetch_accuracy 0
Core_0_LLC_prefetch_coverage 0

[DRAM Statistics]
Channel_0_RQ_row_buffer_hit 10532
Channel_0_RQ_row_buffer_miss 155558
Channel_0_WQ_row_buffer_hit 13909
Channel_0_WQ_row_buffer_miss 56342
Channel_0_WQ_full 0
Channel_0_dbus_congested 763759
DRAM_total_RQ_row_buffer_hit 10532
DRAM_total_RQ_row_buffer_miss 155558
DRAM_total_WQ_row_buffer_hit 13909
DRAM_total_WQ_row_buffer_miss 56342
DRAM_total_WQ_full 0
DRAM_total_dbus_congested 763759
DRAM_avg_congested_cycle 14.8153

====== DRAM_RQ_TRAFFIC ========
DRAM_RQ_READ_TRAFFIC_BREAKDOWN:
data_demand_read.count = 156425
data_demand_read.share = 94.15%

inst_demand_read.count = 2780
inst_demand_read.share = 1.67%

cache_inst_prefetch.count = 0
cache_inst_prefetch.share = 0.00%

cache_data_prefetch.count = 0
cache_data_prefetch.share = 0.00%

stlb_data_demand.count = 6765
stlb_data_demand.share = 4.07%

stlb_inst_demand.count = 173
stlb_inst_demand.share = 0.10%

stlb_l1i_pref.count = 0
stlb_l1i_pref.share = 0.00%

stlb_l1d_pref.count = 0
stlb_l1d_pref.share = 0.00%

DRAM_RQ_READ_TRAFFIC_SUMMARY:
cache_demand.count = 159205
cache_demand.share = 95.82%

cache_prefetch.count = 0
cache_prefetch.share = 0.00%

stlb_demand.count = 6938
stlb_demand.share = 4.18%

stlb_prefetch.count = 0
stlb_prefetch.share = 0.00%

DRAM_RQ_READ_TRAFFIC_DEBUG:
total_classified_read.count = 166143
unclassified_read.count = 0
total_read_with_other.count = 166143

classified_plus_unclassified_check.count = 166143
dram_rq_read_total_observed.count = 166143
dram_rq_read_total_observed.per_1K_instructions = 1.66143

STLB_MISS_PTW_DRAM_TOUCH_BREAKDOWN:
stlb_miss_total.count = 28577

stlb_miss_touch_dram.count = 6269
stlb_miss_touch_dram.share = 21.94%

stlb_miss_no_dram_touch.count = 22308
stlb_miss_no_dram_touch.share = 78.06%

STLB_MISS_PTW_DRAM_TOUCH_DEBUG:
stlb_miss_touch_plus_no_touch.count = 28577
stlb_miss_total_check.count = 28577

======STLB miss causes ========
Core_0_STLB_miss_cause_breakdown
Core_0_STLB_cause_Demand_Data_miss 22707
Core_0_STLB_cause_Demand_Data_miss_rate 0.0187253
Core_0_STLB_cause_Demand_Instruction_miss 5870
Core_0_STLB_cause_Demand_Instruction_miss_rate 0.00484068
Core_0_STLB_cause_L1D_Prefetch_miss 0
Core_0_STLB_cause_L1D_Prefetch_miss_rate 0
Core_0_STLB_cause_L1I_Prefetch_miss 0
Core_0_STLB_cause_L1I_Prefetch_miss_rate 0
Core_0_STLB_cause_Other_miss 0
Core_0_STLB_cause_Other_miss_rate 0
Core_0_STLB_Demand_miss 28577
Core_0_STLB_Demand_miss_rate 0.023566
Core_0_STLB_L1D_Prefetch_miss 0
Core_0_STLB_L1D_Prefetch_miss_rate 0
Core_0_STLB_Other_miss 0
Core_0_STLB_Other_miss_rate 0
