[VMEM] WARNING: physical memory size is smaller than virtual memory size.

*** ChampSim Multicore Out-of-Order Simulator ***
Warmup Instructions: 50000000
Simulation Instructions: 100000000
Number of CPUs: 1
Page size: 4096
Core 0: /data0/tzh/champsim_traces/QMM/srv_46_new.xz
Off-chip DRAM Size: 16 GiB Channels: 1 Width: 64-bit Data Rate: 3205 MT/s
*** Reached end of trace: (0, "/data0/tzh/champsim_traces/QMM/srv_46_new.xz")
[BTB] WARNING: target of return is a lower address than the corresponding call. This is usually a problem with your trace.
Warmup halting CPU 0 at instruction 50000003 cycle 11919475 for remainder of phase
Warmup finished CPU 0 instructions: 50000003 cycles: 11919475 cumulative IPC: 4.195 (Simulation time: 00 hr 02 min 39 sec)
Warmup complete CPU 0 instructions: 50000003 cycles: 11919475 cumulative IPC: 4.195 (Simulation time: 00 hr 02 min 39 sec)
*** Reached end of trace: (0, "/data0/tzh/champsim_traces/QMM/srv_46_new.xz")
[BTB] WARNING: target of return is a lower address than the corresponding call. This is usually a problem with your trace.
*** Reached end of trace: (0, "/data0/tzh/champsim_traces/QMM/srv_46_new.xz")
[BTB] WARNING: target of return is a lower address than the corresponding call. This is usually a problem with your trace.
*** Reached end of trace: (0, "/data0/tzh/champsim_traces/QMM/srv_46_new.xz")
[BTB] WARNING: target of return is a lower address than the corresponding call. This is usually a problem with your trace.
Simulation finished CPU 0 instructions: 100000000 cycles: 59174338 cumulative IPC: 1.69 (Simulation time: 00 hr 11 min 19 sec)
Simulation complete CPU 0 instructions: 100000000 cycles: 59174338 cumulative IPC: 1.69 (Simulation time: 00 hr 11 min 19 sec)

ChampSim completed all CPUs

=== Simulation ===
CPU 0 runs /data0/tzh/champsim_traces/QMM/srv_46_new.xz

Region of Interest Statistics

CPU 0 cumulative IPC: 1.69 instructions: 100000000 cycles: 59174338
CPU 0 Branch Prediction Accuracy: 98.23% MPKI: 3.103 Average ROB Occupancy at Mispredict: 72.9
Branch type MPKI
BRANCH_DIRECT_JUMP: 0.2031
BRANCH_INDIRECT: 0.2181
BRANCH_CONDITIONAL: 1.406
BRANCH_DIRECT_CALL: 0.3152
BRANCH_INDIRECT_CALL: 0.6875
BRANCH_RETURN: 0.2724

cpu0->cpu0_STLB TOTAL        ACCESS:    1187664 HIT:    1161691 MISS:      25973 MSHR_MERGE:          0
cpu0->cpu0_STLB LOAD         ACCESS:    1187664 HIT:    1161691 MISS:      25973 MSHR_MERGE:          0
cpu0->cpu0_STLB RFO          ACCESS:          0 HIT:          0 MISS:          0 MSHR_MERGE:          0
cpu0->cpu0_STLB PREFETCH     ACCESS:          0 HIT:          0 MISS:          0 MSHR_MERGE:          0
cpu0->cpu0_STLB WRITE        ACCESS:          0 HIT:          0 MISS:          0 MSHR_MERGE:          0
cpu0->cpu0_STLB TRANSLATION  ACCESS:          0 HIT:          0 MISS:          0 MSHR_MERGE:          0
cpu0->cpu0_STLB PREFETCH REQUESTED:          0 ISSUED:          0 USEFUL:          0 USELESS:          0 LATE:          0
cpu0->cpu0_STLB AVERAGE MISS LATENCY: 78.42 cycles
cpu0->cpu0_L2C TOTAL        ACCESS:    4472134 HIT:    3390844 MISS:    1081290 MSHR_MERGE:          0
cpu0->cpu0_L2C LOAD         ACCESS:    3367589 HIT:    2571285 MISS:     796304 MSHR_MERGE:          0
cpu0->cpu0_L2C RFO          ACCESS:     431142 HIT:     173095 MISS:     258047 MSHR_MERGE:          0
cpu0->cpu0_L2C PREFETCH     ACCESS:          0 HIT:          0 MISS:          0 MSHR_MERGE:          0
cpu0->cpu0_L2C WRITE        ACCESS:     642691 HIT:     638501 MISS:       4190 MSHR_MERGE:          0
cpu0->cpu0_L2C TRANSLATION  ACCESS:      30712 HIT:       7963 MISS:      22749 MSHR_MERGE:          0
cpu0->cpu0_L2C PREFETCH REQUESTED:          0 ISSUED:          0 USEFUL:          0 USELESS:          0 LATE:          0
cpu0->cpu0_L2C AVERAGE MISS LATENCY: 56.27 cycles
cpu0->cpu0_L1I TOTAL        ACCESS:   18249097 HIT:   14711056 MISS:    3538041 MSHR_MERGE:    1048850
cpu0->cpu0_L1I LOAD         ACCESS:   18249097 HIT:   14711056 MISS:    3538041 MSHR_MERGE:    1048850
cpu0->cpu0_L1I RFO          ACCESS:          0 HIT:          0 MISS:          0 MSHR_MERGE:          0
cpu0->cpu0_L1I PREFETCH     ACCESS:          0 HIT:          0 MISS:          0 MSHR_MERGE:          0
cpu0->cpu0_L1I WRITE        ACCESS:          0 HIT:          0 MISS:          0 MSHR_MERGE:          0
cpu0->cpu0_L1I TRANSLATION  ACCESS:          0 HIT:          0 MISS:          0 MSHR_MERGE:          0
cpu0->cpu0_L1I PREFETCH REQUESTED:          0 ISSUED:          0 USEFUL:          0 USELESS:          0 LATE:          0
cpu0->cpu0_L1I AVERAGE MISS LATENCY: 10.74 cycles
cpu0->cpu0_L1D TOTAL        ACCESS:   28958065 HIT:   26116053 MISS:    2842012 MSHR_MERGE:    1501728
cpu0->cpu0_L1D LOAD         ACCESS:   16829610 HIT:   15693313 MISS:    1136297 MSHR_MERGE:     257879
cpu0->cpu0_L1D RFO          ACCESS:          0 HIT:          0 MISS:          0 MSHR_MERGE:          0
cpu0->cpu0_L1D PREFETCH     ACCESS:          0 HIT:          0 MISS:          0 MSHR_MERGE:          0
cpu0->cpu0_L1D WRITE        ACCESS:   12063481 HIT:   10388804 MISS:    1674677 MSHR_MERGE:    1243523
cpu0->cpu0_L1D TRANSLATION  ACCESS:      64974 HIT:      33936 MISS:      31038 MSHR_MERGE:        326
cpu0->cpu0_L1D PREFETCH REQUESTED:          0 ISSUED:          0 USEFUL:          0 USELESS:          0 LATE:          0
cpu0->cpu0_L1D AVERAGE MISS LATENCY: 48.34 cycles
cpu0->cpu0_ITLB TOTAL        ACCESS:   15956928 HIT:   14603456 MISS:    1353472 MSHR_MERGE:     782266
cpu0->cpu0_ITLB LOAD         ACCESS:   15956928 HIT:   14603456 MISS:    1353472 MSHR_MERGE:     782266
cpu0->cpu0_ITLB RFO          ACCESS:          0 HIT:          0 MISS:          0 MSHR_MERGE:          0
cpu0->cpu0_ITLB PREFETCH     ACCESS:          0 HIT:          0 MISS:          0 MSHR_MERGE:          0
cpu0->cpu0_ITLB WRITE        ACCESS:          0 HIT:          0 MISS:          0 MSHR_MERGE:          0
cpu0->cpu0_ITLB TRANSLATION  ACCESS:          0 HIT:          0 MISS:          0 MSHR_MERGE:          0
cpu0->cpu0_ITLB PREFETCH REQUESTED:          0 ISSUED:          0 USEFUL:          0 USELESS:          0 LATE:          0
cpu0->cpu0_ITLB AVERAGE MISS LATENCY: 5.426 cycles
cpu0->cpu0_DTLB TOTAL        ACCESS:   26964121 HIT:   26059658 MISS:     904463 MSHR_MERGE:     288005
cpu0->cpu0_DTLB LOAD         ACCESS:   26964121 HIT:   26059658 MISS:     904463 MSHR_MERGE:     288005
cpu0->cpu0_DTLB RFO          ACCESS:          0 HIT:          0 MISS:          0 MSHR_MERGE:          0
cpu0->cpu0_DTLB PREFETCH     ACCESS:          0 HIT:          0 MISS:          0 MSHR_MERGE:          0
cpu0->cpu0_DTLB WRITE        ACCESS:          0 HIT:          0 MISS:          0 MSHR_MERGE:          0
cpu0->cpu0_DTLB TRANSLATION  ACCESS:          0 HIT:          0 MISS:          0 MSHR_MERGE:          0
cpu0->cpu0_DTLB PREFETCH REQUESTED:          0 ISSUED:          0 USEFUL:          0 USELESS:          0 LATE:          0
cpu0->cpu0_DTLB AVERAGE MISS LATENCY: 7.981 cycles
cpu0->LLC TOTAL        ACCESS:    1415372 HIT:    1186599 MISS:     228773 MSHR_MERGE:          0
cpu0->LLC LOAD         ACCESS:     796302 HIT:     685402 MISS:     110900 MSHR_MERGE:          0
cpu0->LLC RFO          ACCESS:     258047 HIT:     187070 MISS:      70977 MSHR_MERGE:          0
cpu0->LLC PREFETCH     ACCESS:          0 HIT:          0 MISS:          0 MSHR_MERGE:          0
cpu0->LLC WRITE        ACCESS:     338274 HIT:     296913 MISS:      41361 MSHR_MERGE:          0
cpu0->LLC TRANSLATION  ACCESS:      22749 HIT:      17214 MISS:       5535 MSHR_MERGE:          0
cpu0->LLC PREFETCH REQUESTED:          0 ISSUED:          0 USEFUL:          0 USELESS:          0 LATE:          0
cpu0->LLC AVERAGE MISS LATENCY: 196 cycles

DRAM Statistics

Channel 0 RQ ROW_BUFFER_HIT:      14702
  ROW_BUFFER_MISS:     172684
  AVG DBUS CONGESTED CYCLE: 13.57
Channel 0 WQ ROW_BUFFER_HIT:      15725
  ROW_BUFFER_MISS:      74365
  FULL:          0
Channel 0 REFRESHES ISSUED:       4931

[ROI Statistics]
[System Configuration]
num_cpus 1
cpu_freq 4000
fetch_width 6
decode_width 6
dispatch_width 6
execute_width 6
lq_width 2
sq_width 2
retire_width 6
scheduler_size 128
branch_mispredict_penalty 15
rob_size 352
lq_size 128
sq_size 72
ifetch_buffer_size 64
decode_buffer_size 32
dispatch_buffer_size 32
register_file_size 288
decode_latency 1
dispatch_latency 1
schedule_latency 1
execute_latency 1
page_size 4096
block_size 64
core_0_itlb_set 16
core_0_itlb_way 4
core_0_itlb_rq_size 16
core_0_itlb_wq_size 16
core_0_itlb_pq_size 0
core_0_itlb_mshr_size 8
core_0_itlb_hit_latency 1
core_0_itlb_fill_latency 1
core_0_itlb_max_tag_check 2
core_0_itlb_max_fill 2
core_0_dtlb_set 16
core_0_dtlb_way 4
core_0_dtlb_rq_size 16
core_0_dtlb_wq_size 16
core_0_dtlb_pq_size 0
core_0_dtlb_mshr_size 8
core_0_dtlb_hit_latency 1
core_0_dtlb_fill_latency 1
core_0_dtlb_max_tag_check 2
core_0_dtlb_max_fill 2
core_0_stlb_set 128
core_0_stlb_way 12
core_0_stlb_rq_size 32
core_0_stlb_wq_size 32
core_0_stlb_pq_size 0
core_0_stlb_mshr_size 16
core_0_stlb_hit_latency 4
core_0_stlb_fill_latency 4
core_0_stlb_max_tag_check 1
core_0_stlb_max_fill 1
core_0_l1i_set 64
core_0_l1i_way 8
core_0_l1i_rq_size 64
core_0_l1i_wq_size 64
core_0_l1i_pq_size 32
core_0_l1i_mshr_size 8
core_0_l1i_hit_latency 2
core_0_l1i_fill_latency 2
core_0_l1i_max_tag_check 2
core_0_l1i_max_fill 2
core_0_l1d_set 64
core_0_l1d_way 12
core_0_l1d_rq_size 64
core_0_l1d_wq_size 64
core_0_l1d_pq_size 8
core_0_l1d_mshr_size 16
core_0_l1d_hit_latency 2
core_0_l1d_fill_latency 3
core_0_l1d_max_tag_check 2
core_0_l1d_max_fill 2
core_0_l2c_set 1024
core_0_l2c_way 8
core_0_l2c_rq_size 32
core_0_l2c_wq_size 32
core_0_l2c_pq_size 16
core_0_l2c_mshr_size 32
core_0_l2c_hit_latency 5
core_0_l2c_fill_latency 5
core_0_l2c_max_tag_check 1
core_0_l2c_max_fill 1
llc_set 2048
llc_way 16
llc_rq_size 32
llc_wq_size 32
llc_pq_size 32
llc_mshr_size 64
llc_hit_latency 10
llc_fill_latency 10
llc_max_tag_check 1
llc_max_fill 1
dram_channels 1
dram_ranks 1
dram_bankgroups 8
dram_banks 4
dram_rows 65536
dram_columns 1024
dram_channel_width 8
dram_rq_size 64
dram_wq_size 64
dram_size 17179869184
core_0_itlb_prefetcher no
core_0_dtlb_prefetcher no
core_0_stlb_prefetcher no
core_0_l1i_prefetcher no
core_0_l1d_prefetcher no
core_0_l2c_prefetcher no
llc_prefetcher no
llc_replacement drrip

Core_0_instructions 100000000
Core_0_cycles 59174338
Core_0_IPC 1.68992
Core_0_branch_prediction_accuracy 98.2318
Core_0_branch_MPKI 3.10285
Core_0_average_ROB_occupancy_at_mispredict 72.9011

Core_0_ITLB_total_access 15956928
Core_0_ITLB_total_hit 14603456
Core_0_ITLB_total_miss 1353472
Core_0_ITLB_total_MPKI 13.5347
Core_0_ITLB_total_miss_rate 0.0848203
Core_0_ITLB_demand_access 15956928
Core_0_ITLB_demand_hit 14603456
Core_0_ITLB_demand_miss 1353472
Core_0_ITLB_demand_MPKI 13.5347
Core_0_ITLB_demand_miss_rate 0.0848203
Core_0_ITLB_load_access 15956928
Core_0_ITLB_load_hit 14603456
Core_0_ITLB_load_miss 1353472
Core_0_ITLB_load_MPKI 13.5347
Core_0_ITLB_load_miss_rate 0.0848203
Core_0_ITLB_rfo_access 0
Core_0_ITLB_rfo_hit 0
Core_0_ITLB_rfo_miss 0
Core_0_ITLB_rfo_MPKI 0
Core_0_ITLB_rfo_miss_rate 0
Core_0_ITLB_prefetch_access 0
Core_0_ITLB_prefetch_hit 0
Core_0_ITLB_prefetch_miss 0
Core_0_ITLB_prefetch_MPKI 0
Core_0_ITLB_prefetch_miss_rate 0
Core_0_ITLB_writeback_access 0
Core_0_ITLB_writeback_hit 0
Core_0_ITLB_writeback_miss 0
Core_0_ITLB_writeback_MPKI 0
Core_0_ITLB_writeback_miss_rate 0
Core_0_ITLB_prefetch_requested 0
Core_0_ITLB_prefetch_issued 0
Core_0_ITLB_prefetch_useful 0
Core_0_ITLB_prefetch_useless 0
Core_0_ITLB_prefetch_late 0
Core_0_ITLB_prefetch_accuracy 0
Core_0_ITLB_prefetch_coverage 0

Core_0_DTLB_total_access 26964121
Core_0_DTLB_total_hit 26059658
Core_0_DTLB_total_miss 904463
Core_0_DTLB_total_MPKI 9.04463
Core_0_DTLB_total_miss_rate 0.0335432
Core_0_DTLB_demand_access 26964121
Core_0_DTLB_demand_hit 26059658
Core_0_DTLB_demand_miss 904463
Core_0_DTLB_demand_MPKI 9.04463
Core_0_DTLB_demand_miss_rate 0.0335432
Core_0_DTLB_load_access 26964121
Core_0_DTLB_load_hit 26059658
Core_0_DTLB_load_miss 904463
Core_0_DTLB_load_MPKI 9.04463
Core_0_DTLB_load_miss_rate 0.0335432
Core_0_DTLB_rfo_access 0
Core_0_DTLB_rfo_hit 0
Core_0_DTLB_rfo_miss 0
Core_0_DTLB_rfo_MPKI 0
Core_0_DTLB_rfo_miss_rate 0
Core_0_DTLB_prefetch_access 0
Core_0_DTLB_prefetch_hit 0
Core_0_DTLB_prefetch_miss 0
Core_0_DTLB_prefetch_MPKI 0
Core_0_DTLB_prefetch_miss_rate 0
Core_0_DTLB_writeback_access 0
Core_0_DTLB_writeback_hit 0
Core_0_DTLB_writeback_miss 0
Core_0_DTLB_writeback_MPKI 0
Core_0_DTLB_writeback_miss_rate 0
Core_0_DTLB_prefetch_requested 0
Core_0_DTLB_prefetch_issued 0
Core_0_DTLB_prefetch_useful 0
Core_0_DTLB_prefetch_useless 0
Core_0_DTLB_prefetch_late 0
Core_0_DTLB_prefetch_accuracy 0
Core_0_DTLB_prefetch_coverage 0

Core_0_STLB_total_access 1187664
Core_0_STLB_total_hit 1161691
Core_0_STLB_total_miss 25973
Core_0_STLB_total_MPKI 0.25973
Core_0_STLB_total_miss_rate 0.021869
Core_0_STLB_demand_access 1187664
Core_0_STLB_demand_hit 1161691
Core_0_STLB_demand_miss 25973
Core_0_STLB_demand_MPKI 0.25973
Core_0_STLB_demand_miss_rate 0.021869
Core_0_STLB_load_access 1187664
Core_0_STLB_load_hit 1161691
Core_0_STLB_load_miss 25973
Core_0_STLB_load_MPKI 0.25973
Core_0_STLB_load_miss_rate 0.021869
Core_0_STLB_rfo_access 0
Core_0_STLB_rfo_hit 0
Core_0_STLB_rfo_miss 0
Core_0_STLB_rfo_MPKI 0
Core_0_STLB_rfo_miss_rate 0
Core_0_STLB_prefetch_access 0
Core_0_STLB_prefetch_hit 0
Core_0_STLB_prefetch_miss 0
Core_0_STLB_prefetch_MPKI 0
Core_0_STLB_prefetch_miss_rate 0
Core_0_STLB_writeback_access 0
Core_0_STLB_writeback_hit 0
Core_0_STLB_writeback_miss 0
Core_0_STLB_writeback_MPKI 0
Core_0_STLB_writeback_miss_rate 0
Core_0_STLB_prefetch_requested 0
Core_0_STLB_prefetch_issued 0
Core_0_STLB_prefetch_useful 0
Core_0_STLB_prefetch_useless 0
Core_0_STLB_prefetch_late 0
Core_0_STLB_prefetch_accuracy 0
Core_0_STLB_prefetch_coverage 0

Core_0_L1I_total_access 18249097
Core_0_L1I_total_hit 14711056
Core_0_L1I_total_miss 3538041
Core_0_L1I_total_MPKI 35.3804
Core_0_L1I_total_miss_rate 0.193875
Core_0_L1I_demand_access 18249097
Core_0_L1I_demand_hit 14711056
Core_0_L1I_demand_miss 3538041
Core_0_L1I_demand_MPKI 35.3804
Core_0_L1I_demand_miss_rate 0.193875
Core_0_L1I_load_access 18249097
Core_0_L1I_load_hit 14711056
Core_0_L1I_load_miss 3538041
Core_0_L1I_load_MPKI 35.3804
Core_0_L1I_load_miss_rate 0.193875
Core_0_L1I_rfo_access 0
Core_0_L1I_rfo_hit 0
Core_0_L1I_rfo_miss 0
Core_0_L1I_rfo_MPKI 0
Core_0_L1I_rfo_miss_rate 0
Core_0_L1I_prefetch_access 0
Core_0_L1I_prefetch_hit 0
Core_0_L1I_prefetch_miss 0
Core_0_L1I_prefetch_MPKI 0
Core_0_L1I_prefetch_miss_rate 0
Core_0_L1I_writeback_access 0
Core_0_L1I_writeback_hit 0
Core_0_L1I_writeback_miss 0
Core_0_L1I_writeback_MPKI 0
Core_0_L1I_writeback_miss_rate 0
Core_0_L1I_prefetch_requested 0
Core_0_L1I_prefetch_issued 0
Core_0_L1I_prefetch_useful 0
Core_0_L1I_prefetch_useless 0
Core_0_L1I_prefetch_late 0
Core_0_L1I_prefetch_accuracy 0
Core_0_L1I_prefetch_coverage 0

Core_0_L1D_total_access 28893091
Core_0_L1D_total_hit 26082117
Core_0_L1D_total_miss 2810974
Core_0_L1D_total_MPKI 28.1097
Core_0_L1D_total_miss_rate 0.0972888
Core_0_L1D_demand_access 16829610
Core_0_L1D_demand_hit 15693313
Core_0_L1D_demand_miss 1136297
Core_0_L1D_demand_MPKI 11.363
Core_0_L1D_demand_miss_rate 0.0675177
Core_0_L1D_load_access 16829610
Core_0_L1D_load_hit 15693313
Core_0_L1D_load_miss 1136297
Core_0_L1D_load_MPKI 11.363
Core_0_L1D_load_miss_rate 0.0675177
Core_0_L1D_rfo_access 0
Core_0_L1D_rfo_hit 0
Core_0_L1D_rfo_miss 0
Core_0_L1D_rfo_MPKI 0
Core_0_L1D_rfo_miss_rate 0
Core_0_L1D_prefetch_access 0
Core_0_L1D_prefetch_hit 0
Core_0_L1D_prefetch_miss 0
Core_0_L1D_prefetch_MPKI 0
Core_0_L1D_prefetch_miss_rate 0
Core_0_L1D_writeback_access 12063481
Core_0_L1D_writeback_hit 10388804
Core_0_L1D_writeback_miss 1674677
Core_0_L1D_writeback_MPKI 16.7468
Core_0_L1D_writeback_miss_rate 0.138822
Core_0_L1D_prefetch_requested 0
Core_0_L1D_prefetch_issued 0
Core_0_L1D_prefetch_useful 0
Core_0_L1D_prefetch_useless 0
Core_0_L1D_prefetch_late 0
Core_0_L1D_prefetch_accuracy 0
Core_0_L1D_prefetch_coverage 0

Core_0_L2C_total_access 4441422
Core_0_L2C_total_hit 3382881
Core_0_L2C_total_miss 1058541
Core_0_L2C_total_MPKI 10.5854
Core_0_L2C_total_miss_rate 0.238334
Core_0_L2C_demand_access 3798731
Core_0_L2C_demand_hit 2744380
Core_0_L2C_demand_miss 1054351
Core_0_L2C_demand_MPKI 10.5435
Core_0_L2C_demand_miss_rate 0.277553
Core_0_L2C_load_access 3367589
Core_0_L2C_load_hit 2571285
Core_0_L2C_load_miss 796304
Core_0_L2C_load_MPKI 7.96304
Core_0_L2C_load_miss_rate 0.236461
Core_0_L2C_rfo_access 431142
Core_0_L2C_rfo_hit 173095
Core_0_L2C_rfo_miss 258047
Core_0_L2C_rfo_MPKI 2.58047
Core_0_L2C_rfo_miss_rate 0.59852
Core_0_L2C_prefetch_access 0
Core_0_L2C_prefetch_hit 0
Core_0_L2C_prefetch_miss 0
Core_0_L2C_prefetch_MPKI 0
Core_0_L2C_prefetch_miss_rate 0
Core_0_L2C_writeback_access 642691
Core_0_L2C_writeback_hit 638501
Core_0_L2C_writeback_miss 4190
Core_0_L2C_writeback_MPKI 0.0419
Core_0_L2C_writeback_miss_rate 0.00651946
Core_0_L2C_prefetch_requested 0
Core_0_L2C_prefetch_issued 0
Core_0_L2C_prefetch_useful 0
Core_0_L2C_prefetch_useless 0
Core_0_L2C_prefetch_late 0
Core_0_L2C_prefetch_accuracy 0
Core_0_L2C_prefetch_coverage 0

Core_0_LLC_total_access 1392623
Core_0_LLC_total_hit 1169385
Core_0_LLC_total_miss 223238
Core_0_LLC_total_MPKI 2.23238
Core_0_LLC_total_miss_rate 0.1603
Core_0_LLC_demand_access 1054349
Core_0_LLC_demand_hit 872472
Core_0_LLC_demand_miss 181877
Core_0_LLC_demand_MPKI 1.81877
Core_0_LLC_demand_miss_rate 0.172502
Core_0_LLC_load_access 796302
Core_0_LLC_load_hit 685402
Core_0_LLC_load_miss 110900
Core_0_LLC_load_MPKI 1.109
Core_0_LLC_load_miss_rate 0.139269
Core_0_LLC_rfo_access 258047
Core_0_LLC_rfo_hit 187070
Core_0_LLC_rfo_miss 70977
Core_0_LLC_rfo_MPKI 0.70977
Core_0_LLC_rfo_miss_rate 0.275055
Core_0_LLC_prefetch_access 0
Core_0_LLC_prefetch_hit 0
Core_0_LLC_prefetch_miss 0
Core_0_LLC_prefetch_MPKI 0
Core_0_LLC_prefetch_miss_rate 0
Core_0_LLC_writeback_access 338274
Core_0_LLC_writeback_hit 296913
Core_0_LLC_writeback_miss 41361
Core_0_LLC_writeback_MPKI 0.41361
Core_0_LLC_writeback_miss_rate 0.122271
Core_0_LLC_prefetch_requested 0
Core_0_LLC_prefetch_issued 0
Core_0_LLC_prefetch_useful 0
Core_0_LLC_prefetch_useless 0
Core_0_LLC_prefetch_late 0
Core_0_LLC_prefetch_accuracy 0
Core_0_LLC_prefetch_coverage 0

[DRAM Statistics]
Channel_0_RQ_row_buffer_hit 14702
Channel_0_RQ_row_buffer_miss 172684
Channel_0_WQ_row_buffer_hit 15725
Channel_0_WQ_row_buffer_miss 74365
Channel_0_WQ_full 0
Channel_0_dbus_congested 909770
DRAM_total_RQ_row_buffer_hit 14702
DRAM_total_RQ_row_buffer_miss 172684
DRAM_total_WQ_row_buffer_hit 15725
DRAM_total_WQ_row_buffer_miss 74365
DRAM_total_WQ_full 0
DRAM_total_dbus_congested 909770
DRAM_avg_congested_cycle 13.5716

====== DRAM_RQ_TRAFFIC ========
DRAM_RQ_READ_TRAFFIC_BREAKDOWN:
data_demand_read.count = 179371
data_demand_read.share = 95.71%

inst_demand_read.count = 2506
inst_demand_read.share = 1.34%

cache_inst_prefetch.count = 0
cache_inst_prefetch.share = 0.00%

cache_data_prefetch.count = 0
cache_data_prefetch.share = 0.00%

stlb_data_demand.count = 5355
stlb_data_demand.share = 2.86%

stlb_inst_demand.count = 180
stlb_inst_demand.share = 0.10%

stlb_l1i_pref.count = 0
stlb_l1i_pref.share = 0.00%

stlb_l1d_pref.count = 0
stlb_l1d_pref.share = 0.00%

DRAM_RQ_READ_TRAFFIC_SUMMARY:
cache_demand.count = 181877
cache_demand.share = 97.05%

cache_prefetch.count = 0
cache_prefetch.share = 0.00%

stlb_demand.count = 5535
stlb_demand.share = 2.95%

stlb_prefetch.count = 0
stlb_prefetch.share = 0.00%

DRAM_RQ_READ_TRAFFIC_DEBUG:
total_classified_read.count = 187412
unclassified_read.count = 0
total_read_with_other.count = 187412

classified_plus_unclassified_check.count = 187412
dram_rq_read_total_observed.count = 187412
dram_rq_read_total_observed.per_1K_instructions = 1.87412

STLB_MISS_PTW_DRAM_TOUCH_BREAKDOWN:
stlb_miss_total.count = 25973

stlb_miss_touch_dram.count = 5051
stlb_miss_touch_dram.share = 19.45%

stlb_miss_no_dram_touch.count = 20922
stlb_miss_no_dram_touch.share = 80.55%

STLB_MISS_PTW_DRAM_TOUCH_DEBUG:
stlb_miss_touch_plus_no_touch.count = 25973
stlb_miss_total_check.count = 25973

======STLB miss causes ========
Core_0_STLB_miss_cause_breakdown
Core_0_STLB_cause_Demand_Data_miss 20278
Core_0_STLB_cause_Demand_Data_miss_rate 0.0170739
Core_0_STLB_cause_Demand_Instruction_miss 5695
Core_0_STLB_cause_Demand_Instruction_miss_rate 0.00479513
Core_0_STLB_cause_L1D_Prefetch_miss 0
Core_0_STLB_cause_L1D_Prefetch_miss_rate 0
Core_0_STLB_cause_L1I_Prefetch_miss 0
Core_0_STLB_cause_L1I_Prefetch_miss_rate 0
Core_0_STLB_cause_Other_miss 0
Core_0_STLB_cause_Other_miss_rate 0
Core_0_STLB_Demand_miss 25973
Core_0_STLB_Demand_miss_rate 0.021869
Core_0_STLB_L1D_Prefetch_miss 0
Core_0_STLB_L1D_Prefetch_miss_rate 0
Core_0_STLB_Other_miss 0
Core_0_STLB_Other_miss_rate 0
