[VMEM] WARNING: physical memory size is smaller than virtual memory size.

*** ChampSim Multicore Out-of-Order Simulator ***
Warmup Instructions: 50000000
Simulation Instructions: 100000000
Number of CPUs: 1
Page size: 4096
Core 0: /data0/tzh/champsim_traces/QMM/srv_63_new.xz
Off-chip DRAM Size: 16 GiB Channels: 1 Width: 64-bit Data Rate: 3205 MT/s
[BTB] WARNING: target of return is a lower address than the corresponding call. This is usually a problem with your trace.
[BTB] WARNING: target of return is a lower address than the corresponding call. This is usually a problem with your trace.
[BTB] WARNING: target of return is a lower address than the corresponding call. This is usually a problem with your trace.
[BTB] WARNING: target of return is a lower address than the corresponding call. This is usually a problem with your trace.
[BTB] WARNING: target of return is a lower address than the corresponding call. This is usually a problem with your trace.
[BTB] WARNING: target of return is a lower address than the corresponding call. This is usually a problem with your trace.
[BTB] WARNING: target of return is a lower address than the corresponding call. This is usually a problem with your trace.
[BTB] WARNING: target of return is a lower address than the corresponding call. This is usually a problem with your trace.
[BTB] WARNING: target of return is a lower address than the corresponding call. This is usually a problem with your trace.
[BTB] WARNING: target of return is a lower address than the corresponding call. This is usually a problem with your trace.
*** Reached end of trace: (0, "/data0/tzh/champsim_traces/QMM/srv_63_new.xz")
Warmup halting CPU 0 at instruction 50000003 cycle 10836796 for remainder of phase
Warmup finished CPU 0 instructions: 50000003 cycles: 10836796 cumulative IPC: 4.614 (Simulation time: 00 hr 02 min 24 sec)
Warmup complete CPU 0 instructions: 50000003 cycles: 10836796 cumulative IPC: 4.614 (Simulation time: 00 hr 02 min 24 sec)
*** Reached end of trace: (0, "/data0/tzh/champsim_traces/QMM/srv_63_new.xz")
*** Reached end of trace: (0, "/data0/tzh/champsim_traces/QMM/srv_63_new.xz")
*** Reached end of trace: (0, "/data0/tzh/champsim_traces/QMM/srv_63_new.xz")
Simulation finished CPU 0 instructions: 100000003 cycles: 55746633 cumulative IPC: 1.794 (Simulation time: 00 hr 10 min 31 sec)
Simulation complete CPU 0 instructions: 100000003 cycles: 55746633 cumulative IPC: 1.794 (Simulation time: 00 hr 10 min 31 sec)

ChampSim completed all CPUs

=== Simulation ===
CPU 0 runs /data0/tzh/champsim_traces/QMM/srv_63_new.xz

Region of Interest Statistics

CPU 0 cumulative IPC: 1.794 instructions: 100000003 cycles: 55746633
CPU 0 Branch Prediction Accuracy: 98.41% MPKI: 2.853 Average ROB Occupancy at Mispredict: 134.2
Branch type MPKI
BRANCH_DIRECT_JUMP: 0.2078
BRANCH_INDIRECT: 0.1699
BRANCH_CONDITIONAL: 1.649
BRANCH_DIRECT_CALL: 0.3912
BRANCH_INDIRECT_CALL: 0.08942
BRANCH_RETURN: 0.3455

cpu0->cpu0_STLB TOTAL        ACCESS:    1650099 HIT:    1472501 MISS:     177598 MSHR_MERGE:          0
cpu0->cpu0_STLB LOAD         ACCESS:    1650099 HIT:    1472501 MISS:     177598 MSHR_MERGE:          0
cpu0->cpu0_STLB RFO          ACCESS:          0 HIT:          0 MISS:          0 MSHR_MERGE:          0
cpu0->cpu0_STLB PREFETCH     ACCESS:          0 HIT:          0 MISS:          0 MSHR_MERGE:          0
cpu0->cpu0_STLB WRITE        ACCESS:          0 HIT:          0 MISS:          0 MSHR_MERGE:          0
cpu0->cpu0_STLB TRANSLATION  ACCESS:          0 HIT:          0 MISS:          0 MSHR_MERGE:          0
cpu0->cpu0_STLB PREFETCH REQUESTED:          0 ISSUED:          0 USEFUL:          0 USELESS:          0 LATE:          0
cpu0->cpu0_STLB AVERAGE MISS LATENCY: 36.42 cycles
cpu0->cpu0_L2C TOTAL        ACCESS:    4517813 HIT:    2843766 MISS:    1674047 MSHR_MERGE:          0
cpu0->cpu0_L2C LOAD         ACCESS:    3663902 HIT:    2189348 MISS:    1474554 MSHR_MERGE:          0
cpu0->cpu0_L2C RFO          ACCESS:     166851 HIT:      77467 MISS:      89384 MSHR_MERGE:          0
cpu0->cpu0_L2C PREFETCH     ACCESS:          0 HIT:          0 MISS:          0 MSHR_MERGE:          0
cpu0->cpu0_L2C WRITE        ACCESS:     524614 HIT:     521532 MISS:       3082 MSHR_MERGE:          0
cpu0->cpu0_L2C TRANSLATION  ACCESS:     162446 HIT:      55419 MISS:     107027 MSHR_MERGE:          0
cpu0->cpu0_L2C PREFETCH REQUESTED:          0 ISSUED:          0 USEFUL:          0 USELESS:          0 LATE:          0
cpu0->cpu0_L2C AVERAGE MISS LATENCY: 31.68 cycles
cpu0->cpu0_L1I TOTAL        ACCESS:   15799576 HIT:   11637952 MISS:    4161624 MSHR_MERGE:    1591229
cpu0->cpu0_L1I LOAD         ACCESS:   15799576 HIT:   11637952 MISS:    4161624 MSHR_MERGE:    1591229
cpu0->cpu0_L1I RFO          ACCESS:          0 HIT:          0 MISS:          0 MSHR_MERGE:          0
cpu0->cpu0_L1I PREFETCH     ACCESS:          0 HIT:          0 MISS:          0 MSHR_MERGE:          0
cpu0->cpu0_L1I WRITE        ACCESS:          0 HIT:          0 MISS:          0 MSHR_MERGE:          0
cpu0->cpu0_L1I TRANSLATION  ACCESS:          0 HIT:          0 MISS:          0 MSHR_MERGE:          0
cpu0->cpu0_L1I PREFETCH REQUESTED:          0 ISSUED:          0 USEFUL:          0 USELESS:          0 LATE:          0
cpu0->cpu0_L1I AVERAGE MISS LATENCY: 13.63 cycles
cpu0->cpu0_L1D TOTAL        ACCESS:   23206380 HIT:   21105909 MISS:    2100471 MSHR_MERGE:     677649
cpu0->cpu0_L1D LOAD         ACCESS:   12858865 HIT:   11378787 MISS:    1480078 MSHR_MERGE:     386560
cpu0->cpu0_L1D RFO          ACCESS:          0 HIT:          0 MISS:          0 MSHR_MERGE:          0
cpu0->cpu0_L1D PREFETCH     ACCESS:          0 HIT:          0 MISS:          0 MSHR_MERGE:          0
cpu0->cpu0_L1D WRITE        ACCESS:    9944498 HIT:    9489780 MISS:     454718 MSHR_MERGE:     287860
cpu0->cpu0_L1D TRANSLATION  ACCESS:     403017 HIT:     237342 MISS:     165675 MSHR_MERGE:       3229
cpu0->cpu0_L1D PREFETCH REQUESTED:          0 ISSUED:          0 USEFUL:          0 USELESS:          0 LATE:          0
cpu0->cpu0_L1D AVERAGE MISS LATENCY: 35.17 cycles
cpu0->cpu0_ITLB TOTAL        ACCESS:   13405879 HIT:   12426793 MISS:     979086 MSHR_MERGE:     607475
cpu0->cpu0_ITLB LOAD         ACCESS:   13405879 HIT:   12426793 MISS:     979086 MSHR_MERGE:     607475
cpu0->cpu0_ITLB RFO          ACCESS:          0 HIT:          0 MISS:          0 MSHR_MERGE:          0
cpu0->cpu0_ITLB PREFETCH     ACCESS:          0 HIT:          0 MISS:          0 MSHR_MERGE:          0
cpu0->cpu0_ITLB WRITE        ACCESS:          0 HIT:          0 MISS:          0 MSHR_MERGE:          0
cpu0->cpu0_ITLB TRANSLATION  ACCESS:          0 HIT:          0 MISS:          0 MSHR_MERGE:          0
cpu0->cpu0_ITLB PREFETCH REQUESTED:          0 ISSUED:          0 USEFUL:          0 USELESS:          0 LATE:          0
cpu0->cpu0_ITLB AVERAGE MISS LATENCY: 9.444 cycles
cpu0->cpu0_DTLB TOTAL        ACCESS:   21471007 HIT:   19743355 MISS:    1727652 MSHR_MERGE:     449164
cpu0->cpu0_DTLB LOAD         ACCESS:   21471007 HIT:   19743355 MISS:    1727652 MSHR_MERGE:     449164
cpu0->cpu0_DTLB RFO          ACCESS:          0 HIT:          0 MISS:          0 MSHR_MERGE:          0
cpu0->cpu0_DTLB PREFETCH     ACCESS:          0 HIT:          0 MISS:          0 MSHR_MERGE:          0
cpu0->cpu0_DTLB WRITE        ACCESS:          0 HIT:          0 MISS:          0 MSHR_MERGE:          0
cpu0->cpu0_DTLB TRANSLATION  ACCESS:          0 HIT:          0 MISS:          0 MSHR_MERGE:          0
cpu0->cpu0_DTLB PREFETCH REQUESTED:          0 ISSUED:          0 USEFUL:          0 USELESS:          0 LATE:          0
cpu0->cpu0_DTLB AVERAGE MISS LATENCY: 8.923 cycles
cpu0->LLC TOTAL        ACCESS:    1951013 HIT:    1796309 MISS:     154704 MSHR_MERGE:          0
cpu0->LLC LOAD         ACCESS:    1474554 HIT:    1354211 MISS:     120343 MSHR_MERGE:          0
cpu0->LLC RFO          ACCESS:      89384 HIT:      66469 MISS:      22915 MSHR_MERGE:          0
cpu0->LLC PREFETCH     ACCESS:          0 HIT:          0 MISS:          0 MSHR_MERGE:          0
cpu0->LLC WRITE        ACCESS:     280048 HIT:     274819 MISS:       5229 MSHR_MERGE:          0
cpu0->LLC TRANSLATION  ACCESS:     107027 HIT:     100810 MISS:       6217 MSHR_MERGE:          0
cpu0->LLC PREFETCH REQUESTED:          0 ISSUED:          0 USEFUL:          0 USELESS:          0 LATE:          0
cpu0->LLC AVERAGE MISS LATENCY: 179.9 cycles

DRAM Statistics

Channel 0 RQ ROW_BUFFER_HIT:       5288
  ROW_BUFFER_MISS:     144186
  AVG DBUS CONGESTED CYCLE: 16.63
Channel 0 WQ ROW_BUFFER_HIT:      24432
  ROW_BUFFER_MISS:      81308
  FULL:          0
Channel 0 REFRESHES ISSUED:       4645

[ROI Statistics]
[System Configuration]
num_cpus 1
cpu_freq 4000
fetch_width 6
decode_width 6
dispatch_width 6
execute_width 6
lq_width 2
sq_width 2
retire_width 6
scheduler_size 128
branch_mispredict_penalty 15
rob_size 352
lq_size 128
sq_size 72
ifetch_buffer_size 64
decode_buffer_size 32
dispatch_buffer_size 32
register_file_size 288
decode_latency 1
dispatch_latency 1
schedule_latency 1
execute_latency 1
page_size 4096
block_size 64
core_0_itlb_set 16
core_0_itlb_way 4
core_0_itlb_rq_size 16
core_0_itlb_wq_size 16
core_0_itlb_pq_size 0
core_0_itlb_mshr_size 8
core_0_itlb_hit_latency 1
core_0_itlb_fill_latency 1
core_0_itlb_max_tag_check 2
core_0_itlb_max_fill 2
core_0_dtlb_set 16
core_0_dtlb_way 4
core_0_dtlb_rq_size 16
core_0_dtlb_wq_size 16
core_0_dtlb_pq_size 0
core_0_dtlb_mshr_size 8
core_0_dtlb_hit_latency 1
core_0_dtlb_fill_latency 1
core_0_dtlb_max_tag_check 2
core_0_dtlb_max_fill 2
core_0_stlb_set 128
core_0_stlb_way 12
core_0_stlb_rq_size 32
core_0_stlb_wq_size 32
core_0_stlb_pq_size 0
core_0_stlb_mshr_size 16
core_0_stlb_hit_latency 4
core_0_stlb_fill_latency 4
core_0_stlb_max_tag_check 1
core_0_stlb_max_fill 1
core_0_l1i_set 64
core_0_l1i_way 8
core_0_l1i_rq_size 64
core_0_l1i_wq_size 64
core_0_l1i_pq_size 32
core_0_l1i_mshr_size 8
core_0_l1i_hit_latency 2
core_0_l1i_fill_latency 2
core_0_l1i_max_tag_check 2
core_0_l1i_max_fill 2
core_0_l1d_set 64
core_0_l1d_way 12
core_0_l1d_rq_size 64
core_0_l1d_wq_size 64
core_0_l1d_pq_size 8
core_0_l1d_mshr_size 16
core_0_l1d_hit_latency 2
core_0_l1d_fill_latency 3
core_0_l1d_max_tag_check 2
core_0_l1d_max_fill 2
core_0_l2c_set 1024
core_0_l2c_way 8
core_0_l2c_rq_size 32
core_0_l2c_wq_size 32
core_0_l2c_pq_size 16
core_0_l2c_mshr_size 32
core_0_l2c_hit_latency 5
core_0_l2c_fill_latency 5
core_0_l2c_max_tag_check 1
core_0_l2c_max_fill 1
llc_set 2048
llc_way 16
llc_rq_size 32
llc_wq_size 32
llc_pq_size 32
llc_mshr_size 64
llc_hit_latency 10
llc_fill_latency 10
llc_max_tag_check 1
llc_max_fill 1
dram_channels 1
dram_ranks 1
dram_bankgroups 8
dram_banks 4
dram_rows 65536
dram_columns 1024
dram_channel_width 8
dram_rq_size 64
dram_wq_size 64
dram_size 17179869184
core_0_itlb_prefetcher no
core_0_dtlb_prefetcher no
core_0_stlb_prefetcher no
core_0_l1i_prefetcher no
core_0_l1d_prefetcher no
core_0_l2c_prefetcher no
llc_prefetcher no
llc_replacement drrip

Core_0_instructions 100000003
Core_0_cycles 55746633
Core_0_IPC 1.79383
Core_0_branch_prediction_accuracy 98.4068
Core_0_branch_MPKI 2.85315
Core_0_average_ROB_occupancy_at_mispredict 134.226

Core_0_ITLB_total_access 13405879
Core_0_ITLB_total_hit 12426793
Core_0_ITLB_total_miss 979086
Core_0_ITLB_total_MPKI 9.79086
Core_0_ITLB_total_miss_rate 0.0730341
Core_0_ITLB_demand_access 13405879
Core_0_ITLB_demand_hit 12426793
Core_0_ITLB_demand_miss 979086
Core_0_ITLB_demand_MPKI 9.79086
Core_0_ITLB_demand_miss_rate 0.0730341
Core_0_ITLB_load_access 13405879
Core_0_ITLB_load_hit 12426793
Core_0_ITLB_load_miss 979086
Core_0_ITLB_load_MPKI 9.79086
Core_0_ITLB_load_miss_rate 0.0730341
Core_0_ITLB_rfo_access 0
Core_0_ITLB_rfo_hit 0
Core_0_ITLB_rfo_miss 0
Core_0_ITLB_rfo_MPKI 0
Core_0_ITLB_rfo_miss_rate 0
Core_0_ITLB_prefetch_access 0
Core_0_ITLB_prefetch_hit 0
Core_0_ITLB_prefetch_miss 0
Core_0_ITLB_prefetch_MPKI 0
Core_0_ITLB_prefetch_miss_rate 0
Core_0_ITLB_writeback_access 0
Core_0_ITLB_writeback_hit 0
Core_0_ITLB_writeback_miss 0
Core_0_ITLB_writeback_MPKI 0
Core_0_ITLB_writeback_miss_rate 0
Core_0_ITLB_prefetch_requested 0
Core_0_ITLB_prefetch_issued 0
Core_0_ITLB_prefetch_useful 0
Core_0_ITLB_prefetch_useless 0
Core_0_ITLB_prefetch_late 0
Core_0_ITLB_prefetch_accuracy 0
Core_0_ITLB_prefetch_coverage 0

Core_0_DTLB_total_access 21471007
Core_0_DTLB_total_hit 19743355
Core_0_DTLB_total_miss 1727652
Core_0_DTLB_total_MPKI 17.2765
Core_0_DTLB_total_miss_rate 0.0804644
Core_0_DTLB_demand_access 21471007
Core_0_DTLB_demand_hit 19743355
Core_0_DTLB_demand_miss 1727652
Core_0_DTLB_demand_MPKI 17.2765
Core_0_DTLB_demand_miss_rate 0.0804644
Core_0_DTLB_load_access 21471007
Core_0_DTLB_load_hit 19743355
Core_0_DTLB_load_miss 1727652
Core_0_DTLB_load_MPKI 17.2765
Core_0_DTLB_load_miss_rate 0.0804644
Core_0_DTLB_rfo_access 0
Core_0_DTLB_rfo_hit 0
Core_0_DTLB_rfo_miss 0
Core_0_DTLB_rfo_MPKI 0
Core_0_DTLB_rfo_miss_rate 0
Core_0_DTLB_prefetch_access 0
Core_0_DTLB_prefetch_hit 0
Core_0_DTLB_prefetch_miss 0
Core_0_DTLB_prefetch_MPKI 0
Core_0_DTLB_prefetch_miss_rate 0
Core_0_DTLB_writeback_access 0
Core_0_DTLB_writeback_hit 0
Core_0_DTLB_writeback_miss 0
Core_0_DTLB_writeback_MPKI 0
Core_0_DTLB_writeback_miss_rate 0
Core_0_DTLB_prefetch_requested 0
Core_0_DTLB_prefetch_issued 0
Core_0_DTLB_prefetch_useful 0
Core_0_DTLB_prefetch_useless 0
Core_0_DTLB_prefetch_late 0
Core_0_DTLB_prefetch_accuracy 0
Core_0_DTLB_prefetch_coverage 0

Core_0_STLB_total_access 1650099
Core_0_STLB_total_hit 1472501
Core_0_STLB_total_miss 177598
Core_0_STLB_total_MPKI 1.77598
Core_0_STLB_total_miss_rate 0.107629
Core_0_STLB_demand_access 1650099
Core_0_STLB_demand_hit 1472501
Core_0_STLB_demand_miss 177598
Core_0_STLB_demand_MPKI 1.77598
Core_0_STLB_demand_miss_rate 0.107629
Core_0_STLB_load_access 1650099
Core_0_STLB_load_hit 1472501
Core_0_STLB_load_miss 177598
Core_0_STLB_load_MPKI 1.77598
Core_0_STLB_load_miss_rate 0.107629
Core_0_STLB_rfo_access 0
Core_0_STLB_rfo_hit 0
Core_0_STLB_rfo_miss 0
Core_0_STLB_rfo_MPKI 0
Core_0_STLB_rfo_miss_rate 0
Core_0_STLB_prefetch_access 0
Core_0_STLB_prefetch_hit 0
Core_0_STLB_prefetch_miss 0
Core_0_STLB_prefetch_MPKI 0
Core_0_STLB_prefetch_miss_rate 0
Core_0_STLB_writeback_access 0
Core_0_STLB_writeback_hit 0
Core_0_STLB_writeback_miss 0
Core_0_STLB_writeback_MPKI 0
Core_0_STLB_writeback_miss_rate 0
Core_0_STLB_prefetch_requested 0
Core_0_STLB_prefetch_issued 0
Core_0_STLB_prefetch_useful 0
Core_0_STLB_prefetch_useless 0
Core_0_STLB_prefetch_late 0
Core_0_STLB_prefetch_accuracy 0
Core_0_STLB_prefetch_coverage 0

Core_0_L1I_total_access 15799576
Core_0_L1I_total_hit 11637952
Core_0_L1I_total_miss 4161624
Core_0_L1I_total_MPKI 41.6162
Core_0_L1I_total_miss_rate 0.263401
Core_0_L1I_demand_access 15799576
Core_0_L1I_demand_hit 11637952
Core_0_L1I_demand_miss 4161624
Core_0_L1I_demand_MPKI 41.6162
Core_0_L1I_demand_miss_rate 0.263401
Core_0_L1I_load_access 15799576
Core_0_L1I_load_hit 11637952
Core_0_L1I_load_miss 4161624
Core_0_L1I_load_MPKI 41.6162
Core_0_L1I_load_miss_rate 0.263401
Core_0_L1I_rfo_access 0
Core_0_L1I_rfo_hit 0
Core_0_L1I_rfo_miss 0
Core_0_L1I_rfo_MPKI 0
Core_0_L1I_rfo_miss_rate 0
Core_0_L1I_prefetch_access 0
Core_0_L1I_prefetch_hit 0
Core_0_L1I_prefetch_miss 0
Core_0_L1I_prefetch_MPKI 0
Core_0_L1I_prefetch_miss_rate 0
Core_0_L1I_writeback_access 0
Core_0_L1I_writeback_hit 0
Core_0_L1I_writeback_miss 0
Core_0_L1I_writeback_MPKI 0
Core_0_L1I_writeback_miss_rate 0
Core_0_L1I_prefetch_requested 0
Core_0_L1I_prefetch_issued 0
Core_0_L1I_prefetch_useful 0
Core_0_L1I_prefetch_useless 0
Core_0_L1I_prefetch_late 0
Core_0_L1I_prefetch_accuracy 0
Core_0_L1I_prefetch_coverage 0

Core_0_L1D_total_access 22803363
Core_0_L1D_total_hit 20868567
Core_0_L1D_total_miss 1934796
Core_0_L1D_total_MPKI 19.348
Core_0_L1D_total_miss_rate 0.084847
Core_0_L1D_demand_access 12858865
Core_0_L1D_demand_hit 11378787
Core_0_L1D_demand_miss 1480078
Core_0_L1D_demand_MPKI 14.8008
Core_0_L1D_demand_miss_rate 0.115102
Core_0_L1D_load_access 12858865
Core_0_L1D_load_hit 11378787
Core_0_L1D_load_miss 1480078
Core_0_L1D_load_MPKI 14.8008
Core_0_L1D_load_miss_rate 0.115102
Core_0_L1D_rfo_access 0
Core_0_L1D_rfo_hit 0
Core_0_L1D_rfo_miss 0
Core_0_L1D_rfo_MPKI 0
Core_0_L1D_rfo_miss_rate 0
Core_0_L1D_prefetch_access 0
Core_0_L1D_prefetch_hit 0
Core_0_L1D_prefetch_miss 0
Core_0_L1D_prefetch_MPKI 0
Core_0_L1D_prefetch_miss_rate 0
Core_0_L1D_writeback_access 9944498
Core_0_L1D_writeback_hit 9489780
Core_0_L1D_writeback_miss 454718
Core_0_L1D_writeback_MPKI 4.54718
Core_0_L1D_writeback_miss_rate 0.0457256
Core_0_L1D_prefetch_requested 0
Core_0_L1D_prefetch_issued 0
Core_0_L1D_prefetch_useful 0
Core_0_L1D_prefetch_useless 0
Core_0_L1D_prefetch_late 0
Core_0_L1D_prefetch_accuracy 0
Core_0_L1D_prefetch_coverage 0

Core_0_L2C_total_access 4355367
Core_0_L2C_total_hit 2788347
Core_0_L2C_total_miss 1567020
Core_0_L2C_total_MPKI 15.6702
Core_0_L2C_total_miss_rate 0.359791
Core_0_L2C_demand_access 3830753
Core_0_L2C_demand_hit 2266815
Core_0_L2C_demand_miss 1563938
Core_0_L2C_demand_MPKI 15.6394
Core_0_L2C_demand_miss_rate 0.408259
Core_0_L2C_load_access 3663902
Core_0_L2C_load_hit 2189348
Core_0_L2C_load_miss 1474554
Core_0_L2C_load_MPKI 14.7455
Core_0_L2C_load_miss_rate 0.402455
Core_0_L2C_rfo_access 166851
Core_0_L2C_rfo_hit 77467
Core_0_L2C_rfo_miss 89384
Core_0_L2C_rfo_MPKI 0.89384
Core_0_L2C_rfo_miss_rate 0.535712
Core_0_L2C_prefetch_access 0
Core_0_L2C_prefetch_hit 0
Core_0_L2C_prefetch_miss 0
Core_0_L2C_prefetch_MPKI 0
Core_0_L2C_prefetch_miss_rate 0
Core_0_L2C_writeback_access 524614
Core_0_L2C_writeback_hit 521532
Core_0_L2C_writeback_miss 3082
Core_0_L2C_writeback_MPKI 0.03082
Core_0_L2C_writeback_miss_rate 0.0058748
Core_0_L2C_prefetch_requested 0
Core_0_L2C_prefetch_issued 0
Core_0_L2C_prefetch_useful 0
Core_0_L2C_prefetch_useless 0
Core_0_L2C_prefetch_late 0
Core_0_L2C_prefetch_accuracy 0
Core_0_L2C_prefetch_coverage 0

Core_0_LLC_total_access 1843986
Core_0_LLC_total_hit 1695499
Core_0_LLC_total_miss 148487
Core_0_LLC_total_MPKI 1.48487
Core_0_LLC_total_miss_rate 0.080525
Core_0_LLC_demand_access 1563938
Core_0_LLC_demand_hit 1420680
Core_0_LLC_demand_miss 143258
Core_0_LLC_demand_MPKI 1.43258
Core_0_LLC_demand_miss_rate 0.0916008
Core_0_LLC_load_access 1474554
Core_0_LLC_load_hit 1354211
Core_0_LLC_load_miss 120343
Core_0_LLC_load_MPKI 1.20343
Core_0_LLC_load_miss_rate 0.0816132
Core_0_LLC_rfo_access 89384
Core_0_LLC_rfo_hit 66469
Core_0_LLC_rfo_miss 22915
Core_0_LLC_rfo_MPKI 0.22915
Core_0_LLC_rfo_miss_rate 0.256366
Core_0_LLC_prefetch_access 0
Core_0_LLC_prefetch_hit 0
Core_0_LLC_prefetch_miss 0
Core_0_LLC_prefetch_MPKI 0
Core_0_LLC_prefetch_miss_rate 0
Core_0_LLC_writeback_access 280048
Core_0_LLC_writeback_hit 274819
Core_0_LLC_writeback_miss 5229
Core_0_LLC_writeback_MPKI 0.05229
Core_0_LLC_writeback_miss_rate 0.0186718
Core_0_LLC_prefetch_requested 0
Core_0_LLC_prefetch_issued 0
Core_0_LLC_prefetch_useful 0
Core_0_LLC_prefetch_useless 0
Core_0_LLC_prefetch_late 0
Core_0_LLC_prefetch_accuracy 0
Core_0_LLC_prefetch_coverage 0

[DRAM Statistics]
Channel_0_RQ_row_buffer_hit 5288
Channel_0_RQ_row_buffer_miss 144186
Channel_0_WQ_row_buffer_hit 24432
Channel_0_WQ_row_buffer_miss 81308
Channel_0_WQ_full 0
Channel_0_dbus_congested 807580
DRAM_total_RQ_row_buffer_hit 5288
DRAM_total_RQ_row_buffer_miss 144186
DRAM_total_WQ_row_buffer_hit 24432
DRAM_total_WQ_row_buffer_miss 81308
DRAM_total_WQ_full 0
DRAM_total_dbus_congested 807580
DRAM_avg_congested_cycle 16.633

====== DRAM_RQ_TRAFFIC ========
DRAM_RQ_READ_TRAFFIC_BREAKDOWN:
data_demand_read.count = 137208
data_demand_read.share = 91.79%

inst_demand_read.count = 6050
inst_demand_read.share = 4.05%

cache_inst_prefetch.count = 0
cache_inst_prefetch.share = 0.00%

cache_data_prefetch.count = 0
cache_data_prefetch.share = 0.00%

stlb_data_demand.count = 5989
stlb_data_demand.share = 4.01%

stlb_inst_demand.count = 228
stlb_inst_demand.share = 0.15%

stlb_l1i_pref.count = 0
stlb_l1i_pref.share = 0.00%

stlb_l1d_pref.count = 0
stlb_l1d_pref.share = 0.00%

DRAM_RQ_READ_TRAFFIC_SUMMARY:
cache_demand.count = 143258
cache_demand.share = 95.84%

cache_prefetch.count = 0
cache_prefetch.share = 0.00%

stlb_demand.count = 6217
stlb_demand.share = 4.16%

stlb_prefetch.count = 0
stlb_prefetch.share = 0.00%

DRAM_RQ_READ_TRAFFIC_DEBUG:
total_classified_read.count = 149475
unclassified_read.count = 0
total_read_with_other.count = 149475

classified_plus_unclassified_check.count = 149475
dram_rq_read_total_observed.count = 149475
dram_rq_read_total_observed.per_1K_instructions = 1.49475

STLB_MISS_PTW_DRAM_TOUCH_BREAKDOWN:
stlb_miss_total.count = 177598

stlb_miss_touch_dram.count = 6206
stlb_miss_touch_dram.share = 3.49%

stlb_miss_no_dram_touch.count = 171392
stlb_miss_no_dram_touch.share = 96.51%

STLB_MISS_PTW_DRAM_TOUCH_DEBUG:
stlb_miss_touch_plus_no_touch.count = 177598
stlb_miss_total_check.count = 177598

======STLB miss causes ========
Core_0_STLB_miss_cause_breakdown
Core_0_STLB_cause_Demand_Data_miss 116051
Core_0_STLB_cause_Demand_Data_miss_rate 0.0703297
Core_0_STLB_cause_Demand_Instruction_miss 61547
Core_0_STLB_cause_Demand_Instruction_miss_rate 0.037299
Core_0_STLB_cause_L1D_Prefetch_miss 0
Core_0_STLB_cause_L1D_Prefetch_miss_rate 0
Core_0_STLB_cause_L1I_Prefetch_miss 0
Core_0_STLB_cause_L1I_Prefetch_miss_rate 0
Core_0_STLB_cause_Other_miss 0
Core_0_STLB_cause_Other_miss_rate 0
Core_0_STLB_Demand_miss 177598
Core_0_STLB_Demand_miss_rate 0.107629
Core_0_STLB_L1D_Prefetch_miss 0
Core_0_STLB_L1D_Prefetch_miss_rate 0
Core_0_STLB_Other_miss 0
Core_0_STLB_Other_miss_rate 0
