[VMEM] WARNING: physical memory size is smaller than virtual memory size.

*** ChampSim Multicore Out-of-Order Simulator ***
Warmup Instructions: 50000000
Simulation Instructions: 100000000
Number of CPUs: 1
Page size: 4096
Core 0: /data0/tzh/champsim_traces/QMM/srv_65_new.xz
Off-chip DRAM Size: 16 GiB Channels: 1 Width: 64-bit Data Rate: 3205 MT/s
[BTB] WARNING: target of return is a lower address than the corresponding call. This is usually a problem with your trace.
[BTB] WARNING: target of return is a lower address than the corresponding call. This is usually a problem with your trace.
[BTB] WARNING: target of return is a lower address than the corresponding call. This is usually a problem with your trace.
[BTB] WARNING: target of return is a lower address than the corresponding call. This is usually a problem with your trace.
[BTB] WARNING: target of return is a lower address than the corresponding call. This is usually a problem with your trace.
[BTB] WARNING: target of return is a lower address than the corresponding call. This is usually a problem with your trace.
[BTB] WARNING: target of return is a lower address than the corresponding call. This is usually a problem with your trace.
[BTB] WARNING: target of return is a lower address than the corresponding call. This is usually a problem with your trace.
[BTB] WARNING: target of return is a lower address than the corresponding call. This is usually a problem with your trace.
[BTB] WARNING: target of return is a lower address than the corresponding call. This is usually a problem with your trace.
*** Reached end of trace: (0, "/data0/tzh/champsim_traces/QMM/srv_65_new.xz")
Warmup halting CPU 0 at instruction 50000004 cycle 10758425 for remainder of phase
Warmup finished CPU 0 instructions: 50000004 cycles: 10758425 cumulative IPC: 4.648 (Simulation time: 00 hr 02 min 21 sec)
Warmup complete CPU 0 instructions: 50000004 cycles: 10758425 cumulative IPC: 4.648 (Simulation time: 00 hr 02 min 21 sec)
*** Reached end of trace: (0, "/data0/tzh/champsim_traces/QMM/srv_65_new.xz")
*** Reached end of trace: (0, "/data0/tzh/champsim_traces/QMM/srv_65_new.xz")
*** Reached end of trace: (0, "/data0/tzh/champsim_traces/QMM/srv_65_new.xz")
Simulation finished CPU 0 instructions: 100000000 cycles: 52228345 cumulative IPC: 1.915 (Simulation time: 00 hr 10 min 18 sec)
Simulation complete CPU 0 instructions: 100000000 cycles: 52228345 cumulative IPC: 1.915 (Simulation time: 00 hr 10 min 18 sec)

ChampSim completed all CPUs

=== Simulation ===
CPU 0 runs /data0/tzh/champsim_traces/QMM/srv_65_new.xz

Region of Interest Statistics

CPU 0 cumulative IPC: 1.915 instructions: 100000000 cycles: 52228345
CPU 0 Branch Prediction Accuracy: 98.83% MPKI: 2.108 Average ROB Occupancy at Mispredict: 156.1
Branch type MPKI
BRANCH_DIRECT_JUMP: 0.1315
BRANCH_INDIRECT: 0.1719
BRANCH_CONDITIONAL: 1.244
BRANCH_DIRECT_CALL: 0.2426
BRANCH_INDIRECT_CALL: 0.07485
BRANCH_RETURN: 0.2435

cpu0->cpu0_STLB TOTAL        ACCESS:    1543172 HIT:    1386296 MISS:     156876 MSHR_MERGE:          0
cpu0->cpu0_STLB LOAD         ACCESS:    1543172 HIT:    1386296 MISS:     156876 MSHR_MERGE:          0
cpu0->cpu0_STLB RFO          ACCESS:          0 HIT:          0 MISS:          0 MSHR_MERGE:          0
cpu0->cpu0_STLB PREFETCH     ACCESS:          0 HIT:          0 MISS:          0 MSHR_MERGE:          0
cpu0->cpu0_STLB WRITE        ACCESS:          0 HIT:          0 MISS:          0 MSHR_MERGE:          0
cpu0->cpu0_STLB TRANSLATION  ACCESS:          0 HIT:          0 MISS:          0 MSHR_MERGE:          0
cpu0->cpu0_STLB PREFETCH REQUESTED:          0 ISSUED:          0 USEFUL:          0 USELESS:          0 LATE:          0
cpu0->cpu0_STLB AVERAGE MISS LATENCY: 36.05 cycles
cpu0->cpu0_L2C TOTAL        ACCESS:    4475041 HIT:    2960180 MISS:    1514861 MSHR_MERGE:          0
cpu0->cpu0_L2C LOAD         ACCESS:    3644226 HIT:    2303816 MISS:    1340410 MSHR_MERGE:          0
cpu0->cpu0_L2C RFO          ACCESS:     163768 HIT:      83836 MISS:      79932 MSHR_MERGE:          0
cpu0->cpu0_L2C PREFETCH     ACCESS:          0 HIT:          0 MISS:          0 MSHR_MERGE:          0
cpu0->cpu0_L2C WRITE        ACCESS:     520215 HIT:     518271 MISS:       1944 MSHR_MERGE:          0
cpu0->cpu0_L2C TRANSLATION  ACCESS:     146832 HIT:      54257 MISS:      92575 MSHR_MERGE:          0
cpu0->cpu0_L2C PREFETCH REQUESTED:          0 ISSUED:          0 USEFUL:          0 USELESS:          0 LATE:          0
cpu0->cpu0_L2C AVERAGE MISS LATENCY: 32.43 cycles
cpu0->cpu0_L1I TOTAL        ACCESS:   15874540 HIT:   11705786 MISS:    4168754 MSHR_MERGE:    1616152
cpu0->cpu0_L1I LOAD         ACCESS:   15874540 HIT:   11705786 MISS:    4168754 MSHR_MERGE:    1616152
cpu0->cpu0_L1I RFO          ACCESS:          0 HIT:          0 MISS:          0 MSHR_MERGE:          0
cpu0->cpu0_L1I PREFETCH     ACCESS:          0 HIT:          0 MISS:          0 MSHR_MERGE:          0
cpu0->cpu0_L1I WRITE        ACCESS:          0 HIT:          0 MISS:          0 MSHR_MERGE:          0
cpu0->cpu0_L1I TRANSLATION  ACCESS:          0 HIT:          0 MISS:          0 MSHR_MERGE:          0
cpu0->cpu0_L1I PREFETCH REQUESTED:          0 ISSUED:          0 USEFUL:          0 USELESS:          0 LATE:          0
cpu0->cpu0_L1I AVERAGE MISS LATENCY: 12.85 cycles
cpu0->cpu0_L1D TOTAL        ACCESS:   23060936 HIT:   20965012 MISS:    2095924 MSHR_MERGE:     693671
cpu0->cpu0_L1D LOAD         ACCESS:   12794236 HIT:   11306414 MISS:    1487822 MSHR_MERGE:     396186
cpu0->cpu0_L1D RFO          ACCESS:          0 HIT:          0 MISS:          0 MSHR_MERGE:          0
cpu0->cpu0_L1D PREFETCH     ACCESS:          0 HIT:          0 MISS:          0 MSHR_MERGE:          0
cpu0->cpu0_L1D WRITE        ACCESS:    9909644 HIT:    9451420 MISS:     458224 MSHR_MERGE:     294439
cpu0->cpu0_L1D TRANSLATION  ACCESS:     357056 HIT:     207178 MISS:     149878 MSHR_MERGE:       3046
cpu0->cpu0_L1D PREFETCH REQUESTED:          0 ISSUED:          0 USEFUL:          0 USELESS:          0 LATE:          0
cpu0->cpu0_L1D AVERAGE MISS LATENCY: 34.22 cycles
cpu0->cpu0_ITLB TOTAL        ACCESS:   13507242 HIT:   12509073 MISS:     998169 MSHR_MERGE:     617415
cpu0->cpu0_ITLB LOAD         ACCESS:   13507242 HIT:   12509073 MISS:     998169 MSHR_MERGE:     617415
cpu0->cpu0_ITLB RFO          ACCESS:          0 HIT:          0 MISS:          0 MSHR_MERGE:          0
cpu0->cpu0_ITLB PREFETCH     ACCESS:          0 HIT:          0 MISS:          0 MSHR_MERGE:          0
cpu0->cpu0_ITLB WRITE        ACCESS:          0 HIT:          0 MISS:          0 MSHR_MERGE:          0
cpu0->cpu0_ITLB TRANSLATION  ACCESS:          0 HIT:          0 MISS:          0 MSHR_MERGE:          0
cpu0->cpu0_ITLB PREFETCH REQUESTED:          0 ISSUED:          0 USEFUL:          0 USELESS:          0 LATE:          0
cpu0->cpu0_ITLB AVERAGE MISS LATENCY: 8.833 cycles
cpu0->cpu0_DTLB TOTAL        ACCESS:   21347460 HIT:   19737437 MISS:    1610023 MSHR_MERGE:     447605
cpu0->cpu0_DTLB LOAD         ACCESS:   21347460 HIT:   19737437 MISS:    1610023 MSHR_MERGE:     447605
cpu0->cpu0_DTLB RFO          ACCESS:          0 HIT:          0 MISS:          0 MSHR_MERGE:          0
cpu0->cpu0_DTLB PREFETCH     ACCESS:          0 HIT:          0 MISS:          0 MSHR_MERGE:          0
cpu0->cpu0_DTLB WRITE        ACCESS:          0 HIT:          0 MISS:          0 MSHR_MERGE:          0
cpu0->cpu0_DTLB TRANSLATION  ACCESS:          0 HIT:          0 MISS:          0 MSHR_MERGE:          0
cpu0->cpu0_DTLB PREFETCH REQUESTED:          0 ISSUED:          0 USEFUL:          0 USELESS:          0 LATE:          0
cpu0->cpu0_DTLB AVERAGE MISS LATENCY: 8.76 cycles
cpu0->LLC TOTAL        ACCESS:    1772884 HIT:    1626352 MISS:     146532 MSHR_MERGE:          0
cpu0->LLC LOAD         ACCESS:    1340410 HIT:    1226659 MISS:     113751 MSHR_MERGE:          0
cpu0->LLC RFO          ACCESS:      79930 HIT:      56883 MISS:      23047 MSHR_MERGE:          0
cpu0->LLC PREFETCH     ACCESS:          0 HIT:          0 MISS:          0 MSHR_MERGE:          0
cpu0->LLC WRITE        ACCESS:     259969 HIT:     255428 MISS:       4541 MSHR_MERGE:          0
cpu0->LLC TRANSLATION  ACCESS:      92575 HIT:      87382 MISS:       5193 MSHR_MERGE:          0
cpu0->LLC PREFETCH REQUESTED:          0 ISSUED:          0 USEFUL:          0 USELESS:          0 LATE:          0
cpu0->LLC AVERAGE MISS LATENCY: 179.5 cycles

DRAM Statistics

Channel 0 RQ ROW_BUFFER_HIT:       5824
  ROW_BUFFER_MISS:     136161
  AVG DBUS CONGESTED CYCLE: 16.16
Channel 0 WQ ROW_BUFFER_HIT:      22516
  ROW_BUFFER_MISS:      81526
  FULL:          0
Channel 0 REFRESHES ISSUED:       4352

[ROI Statistics]
[System Configuration]
num_cpus 1
cpu_freq 4000
fetch_width 6
decode_width 6
dispatch_width 6
execute_width 6
lq_width 2
sq_width 2
retire_width 6
scheduler_size 128
branch_mispredict_penalty 15
rob_size 352
lq_size 128
sq_size 72
ifetch_buffer_size 64
decode_buffer_size 32
dispatch_buffer_size 32
register_file_size 288
decode_latency 1
dispatch_latency 1
schedule_latency 1
execute_latency 1
page_size 4096
block_size 64
core_0_itlb_set 16
core_0_itlb_way 4
core_0_itlb_rq_size 16
core_0_itlb_wq_size 16
core_0_itlb_pq_size 0
core_0_itlb_mshr_size 8
core_0_itlb_hit_latency 1
core_0_itlb_fill_latency 1
core_0_itlb_max_tag_check 2
core_0_itlb_max_fill 2
core_0_dtlb_set 16
core_0_dtlb_way 4
core_0_dtlb_rq_size 16
core_0_dtlb_wq_size 16
core_0_dtlb_pq_size 0
core_0_dtlb_mshr_size 8
core_0_dtlb_hit_latency 1
core_0_dtlb_fill_latency 1
core_0_dtlb_max_tag_check 2
core_0_dtlb_max_fill 2
core_0_stlb_set 128
core_0_stlb_way 12
core_0_stlb_rq_size 32
core_0_stlb_wq_size 32
core_0_stlb_pq_size 0
core_0_stlb_mshr_size 16
core_0_stlb_hit_latency 4
core_0_stlb_fill_latency 4
core_0_stlb_max_tag_check 1
core_0_stlb_max_fill 1
core_0_l1i_set 64
core_0_l1i_way 8
core_0_l1i_rq_size 64
core_0_l1i_wq_size 64
core_0_l1i_pq_size 32
core_0_l1i_mshr_size 8
core_0_l1i_hit_latency 2
core_0_l1i_fill_latency 2
core_0_l1i_max_tag_check 2
core_0_l1i_max_fill 2
core_0_l1d_set 64
core_0_l1d_way 12
core_0_l1d_rq_size 64
core_0_l1d_wq_size 64
core_0_l1d_pq_size 8
core_0_l1d_mshr_size 16
core_0_l1d_hit_latency 2
core_0_l1d_fill_latency 3
core_0_l1d_max_tag_check 2
core_0_l1d_max_fill 2
core_0_l2c_set 1024
core_0_l2c_way 8
core_0_l2c_rq_size 32
core_0_l2c_wq_size 32
core_0_l2c_pq_size 16
core_0_l2c_mshr_size 32
core_0_l2c_hit_latency 5
core_0_l2c_fill_latency 5
core_0_l2c_max_tag_check 1
core_0_l2c_max_fill 1
llc_set 2048
llc_way 16
llc_rq_size 32
llc_wq_size 32
llc_pq_size 32
llc_mshr_size 64
llc_hit_latency 10
llc_fill_latency 10
llc_max_tag_check 1
llc_max_fill 1
dram_channels 1
dram_ranks 1
dram_bankgroups 8
dram_banks 4
dram_rows 65536
dram_columns 1024
dram_channel_width 8
dram_rq_size 64
dram_wq_size 64
dram_size 17179869184
core_0_itlb_prefetcher no
core_0_dtlb_prefetcher no
core_0_stlb_prefetcher no
core_0_l1i_prefetcher no
core_0_l1d_prefetcher no
core_0_l2c_prefetcher no
llc_prefetcher no
llc_replacement drrip

Core_0_instructions 100000000
Core_0_cycles 52228345
Core_0_IPC 1.91467
Core_0_branch_prediction_accuracy 98.8269
Core_0_branch_MPKI 2.10805
Core_0_average_ROB_occupancy_at_mispredict 156.143

Core_0_ITLB_total_access 13507242
Core_0_ITLB_total_hit 12509073
Core_0_ITLB_total_miss 998169
Core_0_ITLB_total_MPKI 9.98169
Core_0_ITLB_total_miss_rate 0.0738988
Core_0_ITLB_demand_access 13507242
Core_0_ITLB_demand_hit 12509073
Core_0_ITLB_demand_miss 998169
Core_0_ITLB_demand_MPKI 9.98169
Core_0_ITLB_demand_miss_rate 0.0738988
Core_0_ITLB_load_access 13507242
Core_0_ITLB_load_hit 12509073
Core_0_ITLB_load_miss 998169
Core_0_ITLB_load_MPKI 9.98169
Core_0_ITLB_load_miss_rate 0.0738988
Core_0_ITLB_rfo_access 0
Core_0_ITLB_rfo_hit 0
Core_0_ITLB_rfo_miss 0
Core_0_ITLB_rfo_MPKI 0
Core_0_ITLB_rfo_miss_rate 0
Core_0_ITLB_prefetch_access 0
Core_0_ITLB_prefetch_hit 0
Core_0_ITLB_prefetch_miss 0
Core_0_ITLB_prefetch_MPKI 0
Core_0_ITLB_prefetch_miss_rate 0
Core_0_ITLB_writeback_access 0
Core_0_ITLB_writeback_hit 0
Core_0_ITLB_writeback_miss 0
Core_0_ITLB_writeback_MPKI 0
Core_0_ITLB_writeback_miss_rate 0
Core_0_ITLB_prefetch_requested 0
Core_0_ITLB_prefetch_issued 0
Core_0_ITLB_prefetch_useful 0
Core_0_ITLB_prefetch_useless 0
Core_0_ITLB_prefetch_late 0
Core_0_ITLB_prefetch_accuracy 0
Core_0_ITLB_prefetch_coverage 0

Core_0_DTLB_total_access 21347460
Core_0_DTLB_total_hit 19737437
Core_0_DTLB_total_miss 1610023
Core_0_DTLB_total_MPKI 16.1002
Core_0_DTLB_total_miss_rate 0.0754199
Core_0_DTLB_demand_access 21347460
Core_0_DTLB_demand_hit 19737437
Core_0_DTLB_demand_miss 1610023
Core_0_DTLB_demand_MPKI 16.1002
Core_0_DTLB_demand_miss_rate 0.0754199
Core_0_DTLB_load_access 21347460
Core_0_DTLB_load_hit 19737437
Core_0_DTLB_load_miss 1610023
Core_0_DTLB_load_MPKI 16.1002
Core_0_DTLB_load_miss_rate 0.0754199
Core_0_DTLB_rfo_access 0
Core_0_DTLB_rfo_hit 0
Core_0_DTLB_rfo_miss 0
Core_0_DTLB_rfo_MPKI 0
Core_0_DTLB_rfo_miss_rate 0
Core_0_DTLB_prefetch_access 0
Core_0_DTLB_prefetch_hit 0
Core_0_DTLB_prefetch_miss 0
Core_0_DTLB_prefetch_MPKI 0
Core_0_DTLB_prefetch_miss_rate 0
Core_0_DTLB_writeback_access 0
Core_0_DTLB_writeback_hit 0
Core_0_DTLB_writeback_miss 0
Core_0_DTLB_writeback_MPKI 0
Core_0_DTLB_writeback_miss_rate 0
Core_0_DTLB_prefetch_requested 0
Core_0_DTLB_prefetch_issued 0
Core_0_DTLB_prefetch_useful 0
Core_0_DTLB_prefetch_useless 0
Core_0_DTLB_prefetch_late 0
Core_0_DTLB_prefetch_accuracy 0
Core_0_DTLB_prefetch_coverage 0

Core_0_STLB_total_access 1543172
Core_0_STLB_total_hit 1386296
Core_0_STLB_total_miss 156876
Core_0_STLB_total_MPKI 1.56876
Core_0_STLB_total_miss_rate 0.101658
Core_0_STLB_demand_access 1543172
Core_0_STLB_demand_hit 1386296
Core_0_STLB_demand_miss 156876
Core_0_STLB_demand_MPKI 1.56876
Core_0_STLB_demand_miss_rate 0.101658
Core_0_STLB_load_access 1543172
Core_0_STLB_load_hit 1386296
Core_0_STLB_load_miss 156876
Core_0_STLB_load_MPKI 1.56876
Core_0_STLB_load_miss_rate 0.101658
Core_0_STLB_rfo_access 0
Core_0_STLB_rfo_hit 0
Core_0_STLB_rfo_miss 0
Core_0_STLB_rfo_MPKI 0
Core_0_STLB_rfo_miss_rate 0
Core_0_STLB_prefetch_access 0
Core_0_STLB_prefetch_hit 0
Core_0_STLB_prefetch_miss 0
Core_0_STLB_prefetch_MPKI 0
Core_0_STLB_prefetch_miss_rate 0
Core_0_STLB_writeback_access 0
Core_0_STLB_writeback_hit 0
Core_0_STLB_writeback_miss 0
Core_0_STLB_writeback_MPKI 0
Core_0_STLB_writeback_miss_rate 0
Core_0_STLB_prefetch_requested 0
Core_0_STLB_prefetch_issued 0
Core_0_STLB_prefetch_useful 0
Core_0_STLB_prefetch_useless 0
Core_0_STLB_prefetch_late 0
Core_0_STLB_prefetch_accuracy 0
Core_0_STLB_prefetch_coverage 0

Core_0_L1I_total_access 15874540
Core_0_L1I_total_hit 11705786
Core_0_L1I_total_miss 4168754
Core_0_L1I_total_MPKI 41.6875
Core_0_L1I_total_miss_rate 0.262606
Core_0_L1I_demand_access 15874540
Core_0_L1I_demand_hit 11705786
Core_0_L1I_demand_miss 4168754
Core_0_L1I_demand_MPKI 41.6875
Core_0_L1I_demand_miss_rate 0.262606
Core_0_L1I_load_access 15874540
Core_0_L1I_load_hit 11705786
Core_0_L1I_load_miss 4168754
Core_0_L1I_load_MPKI 41.6875
Core_0_L1I_load_miss_rate 0.262606
Core_0_L1I_rfo_access 0
Core_0_L1I_rfo_hit 0
Core_0_L1I_rfo_miss 0
Core_0_L1I_rfo_MPKI 0
Core_0_L1I_rfo_miss_rate 0
Core_0_L1I_prefetch_access 0
Core_0_L1I_prefetch_hit 0
Core_0_L1I_prefetch_miss 0
Core_0_L1I_prefetch_MPKI 0
Core_0_L1I_prefetch_miss_rate 0
Core_0_L1I_writeback_access 0
Core_0_L1I_writeback_hit 0
Core_0_L1I_writeback_miss 0
Core_0_L1I_writeback_MPKI 0
Core_0_L1I_writeback_miss_rate 0
Core_0_L1I_prefetch_requested 0
Core_0_L1I_prefetch_issued 0
Core_0_L1I_prefetch_useful 0
Core_0_L1I_prefetch_useless 0
Core_0_L1I_prefetch_late 0
Core_0_L1I_prefetch_accuracy 0
Core_0_L1I_prefetch_coverage 0

Core_0_L1D_total_access 22703880
Core_0_L1D_total_hit 20757834
Core_0_L1D_total_miss 1946046
Core_0_L1D_total_MPKI 19.4605
Core_0_L1D_total_miss_rate 0.0857142
Core_0_L1D_demand_access 12794236
Core_0_L1D_demand_hit 11306414
Core_0_L1D_demand_miss 1487822
Core_0_L1D_demand_MPKI 14.8782
Core_0_L1D_demand_miss_rate 0.116288
Core_0_L1D_load_access 12794236
Core_0_L1D_load_hit 11306414
Core_0_L1D_load_miss 1487822
Core_0_L1D_load_MPKI 14.8782
Core_0_L1D_load_miss_rate 0.116288
Core_0_L1D_rfo_access 0
Core_0_L1D_rfo_hit 0
Core_0_L1D_rfo_miss 0
Core_0_L1D_rfo_MPKI 0
Core_0_L1D_rfo_miss_rate 0
Core_0_L1D_prefetch_access 0
Core_0_L1D_prefetch_hit 0
Core_0_L1D_prefetch_miss 0
Core_0_L1D_prefetch_MPKI 0
Core_0_L1D_prefetch_miss_rate 0
Core_0_L1D_writeback_access 9909644
Core_0_L1D_writeback_hit 9451420
Core_0_L1D_writeback_miss 458224
Core_0_L1D_writeback_MPKI 4.58224
Core_0_L1D_writeback_miss_rate 0.0462402
Core_0_L1D_prefetch_requested 0
Core_0_L1D_prefetch_issued 0
Core_0_L1D_prefetch_useful 0
Core_0_L1D_prefetch_useless 0
Core_0_L1D_prefetch_late 0
Core_0_L1D_prefetch_accuracy 0
Core_0_L1D_prefetch_coverage 0

Core_0_L2C_total_access 4328209
Core_0_L2C_total_hit 2905923
Core_0_L2C_total_miss 1422286
Core_0_L2C_total_MPKI 14.2229
Core_0_L2C_total_miss_rate 0.328608
Core_0_L2C_demand_access 3807994
Core_0_L2C_demand_hit 2387652
Core_0_L2C_demand_miss 1420342
Core_0_L2C_demand_MPKI 14.2034
Core_0_L2C_demand_miss_rate 0.37299
Core_0_L2C_load_access 3644226
Core_0_L2C_load_hit 2303816
Core_0_L2C_load_miss 1340410
Core_0_L2C_load_MPKI 13.4041
Core_0_L2C_load_miss_rate 0.367817
Core_0_L2C_rfo_access 163768
Core_0_L2C_rfo_hit 83836
Core_0_L2C_rfo_miss 79932
Core_0_L2C_rfo_MPKI 0.79932
Core_0_L2C_rfo_miss_rate 0.488081
Core_0_L2C_prefetch_access 0
Core_0_L2C_prefetch_hit 0
Core_0_L2C_prefetch_miss 0
Core_0_L2C_prefetch_MPKI 0
Core_0_L2C_prefetch_miss_rate 0
Core_0_L2C_writeback_access 520215
Core_0_L2C_writeback_hit 518271
Core_0_L2C_writeback_miss 1944
Core_0_L2C_writeback_MPKI 0.01944
Core_0_L2C_writeback_miss_rate 0.00373692
Core_0_L2C_prefetch_requested 0
Core_0_L2C_prefetch_issued 0
Core_0_L2C_prefetch_useful 0
Core_0_L2C_prefetch_useless 0
Core_0_L2C_prefetch_late 0
Core_0_L2C_prefetch_accuracy 0
Core_0_L2C_prefetch_coverage 0

Core_0_LLC_total_access 1680309
Core_0_LLC_total_hit 1538970
Core_0_LLC_total_miss 141339
Core_0_LLC_total_MPKI 1.41339
Core_0_LLC_total_miss_rate 0.0841149
Core_0_LLC_demand_access 1420340
Core_0_LLC_demand_hit 1283542
Core_0_LLC_demand_miss 136798
Core_0_LLC_demand_MPKI 1.36798
Core_0_LLC_demand_miss_rate 0.0963136
Core_0_LLC_load_access 1340410
Core_0_LLC_load_hit 1226659
Core_0_LLC_load_miss 113751
Core_0_LLC_load_MPKI 1.13751
Core_0_LLC_load_miss_rate 0.0848628
Core_0_LLC_rfo_access 79930
Core_0_LLC_rfo_hit 56883
Core_0_LLC_rfo_miss 23047
Core_0_LLC_rfo_MPKI 0.23047
Core_0_LLC_rfo_miss_rate 0.28834
Core_0_LLC_prefetch_access 0
Core_0_LLC_prefetch_hit 0
Core_0_LLC_prefetch_miss 0
Core_0_LLC_prefetch_MPKI 0
Core_0_LLC_prefetch_miss_rate 0
Core_0_LLC_writeback_access 259969
Core_0_LLC_writeback_hit 255428
Core_0_LLC_writeback_miss 4541
Core_0_LLC_writeback_MPKI 0.04541
Core_0_LLC_writeback_miss_rate 0.0174675
Core_0_LLC_prefetch_requested 0
Core_0_LLC_prefetch_issued 0
Core_0_LLC_prefetch_useful 0
Core_0_LLC_prefetch_useless 0
Core_0_LLC_prefetch_late 0
Core_0_LLC_prefetch_accuracy 0
Core_0_LLC_prefetch_coverage 0

[DRAM Statistics]
Channel_0_RQ_row_buffer_hit 5824
Channel_0_RQ_row_buffer_miss 136161
Channel_0_WQ_row_buffer_hit 22516
Channel_0_WQ_row_buffer_miss 81526
Channel_0_WQ_full 0
Channel_0_dbus_congested 761301
DRAM_total_RQ_row_buffer_hit 5824
DRAM_total_RQ_row_buffer_miss 136161
DRAM_total_WQ_row_buffer_hit 22516
DRAM_total_WQ_row_buffer_miss 81526
DRAM_total_WQ_full 0
DRAM_total_dbus_congested 761301
DRAM_avg_congested_cycle 16.1631

====== DRAM_RQ_TRAFFIC ========
DRAM_RQ_READ_TRAFFIC_BREAKDOWN:
data_demand_read.count = 133671
data_demand_read.share = 94.14%

inst_demand_read.count = 3127
inst_demand_read.share = 2.20%

cache_inst_prefetch.count = 0
cache_inst_prefetch.share = 0.00%

cache_data_prefetch.count = 0
cache_data_prefetch.share = 0.00%

stlb_data_demand.count = 5095
stlb_data_demand.share = 3.59%

stlb_inst_demand.count = 98
stlb_inst_demand.share = 0.07%

stlb_l1i_pref.count = 0
stlb_l1i_pref.share = 0.00%

stlb_l1d_pref.count = 0
stlb_l1d_pref.share = 0.00%

DRAM_RQ_READ_TRAFFIC_SUMMARY:
cache_demand.count = 136798
cache_demand.share = 96.34%

cache_prefetch.count = 0
cache_prefetch.share = 0.00%

stlb_demand.count = 5193
stlb_demand.share = 3.66%

stlb_prefetch.count = 0
stlb_prefetch.share = 0.00%

DRAM_RQ_READ_TRAFFIC_DEBUG:
total_classified_read.count = 141991
unclassified_read.count = 0
total_read_with_other.count = 141991

classified_plus_unclassified_check.count = 141991
dram_rq_read_total_observed.count = 141991
dram_rq_read_total_observed.per_1K_instructions = 1.41991

STLB_MISS_PTW_DRAM_TOUCH_BREAKDOWN:
stlb_miss_total.count = 156876

stlb_miss_touch_dram.count = 5193
stlb_miss_touch_dram.share = 3.31%

stlb_miss_no_dram_touch.count = 151683
stlb_miss_no_dram_touch.share = 96.69%

STLB_MISS_PTW_DRAM_TOUCH_DEBUG:
stlb_miss_touch_plus_no_touch.count = 156876
stlb_miss_total_check.count = 156876

======STLB miss causes ========
Core_0_STLB_miss_cause_breakdown
Core_0_STLB_cause_Demand_Data_miss 102188
Core_0_STLB_cause_Demand_Data_miss_rate 0.0662194
Core_0_STLB_cause_Demand_Instruction_miss 54688
Core_0_STLB_cause_Demand_Instruction_miss_rate 0.0354387
Core_0_STLB_cause_L1D_Prefetch_miss 0
Core_0_STLB_cause_L1D_Prefetch_miss_rate 0
Core_0_STLB_cause_L1I_Prefetch_miss 0
Core_0_STLB_cause_L1I_Prefetch_miss_rate 0
Core_0_STLB_cause_Other_miss 0
Core_0_STLB_cause_Other_miss_rate 0
Core_0_STLB_Demand_miss 156876
Core_0_STLB_Demand_miss_rate 0.101658
Core_0_STLB_L1D_Prefetch_miss 0
Core_0_STLB_L1D_Prefetch_miss_rate 0
Core_0_STLB_Other_miss 0
Core_0_STLB_Other_miss_rate 0
