[VMEM] WARNING: physical memory size is smaller than virtual memory size.

*** ChampSim Multicore Out-of-Order Simulator ***
Warmup Instructions: 50000000
Simulation Instructions: 100000000
Number of CPUs: 1
Page size: 4096
Core 0: /data2/zcq/champsim_traces_gap/sssp.urand-4669B.champsimtrace.xz
Off-chip DRAM Size: 16 GiB Channels: 1 Width: 64-bit Data Rate: 3205 MT/s
Warmup halting CPU 0 at instruction 50000002 cycle 41890628 for remainder of phase
Warmup finished CPU 0 instructions: 50000002 cycles: 41890628 cumulative IPC: 1.194 (Simulation time: 00 hr 07 min 14 sec)
Warmup complete CPU 0 instructions: 50000002 cycles: 41890628 cumulative IPC: 1.194 (Simulation time: 00 hr 07 min 14 sec)
Simulation finished CPU 0 instructions: 100000000 cycles: 626986943 cumulative IPC: 0.1595 (Simulation time: 00 hr 59 min 50 sec)
Simulation complete CPU 0 instructions: 100000000 cycles: 626986943 cumulative IPC: 0.1595 (Simulation time: 00 hr 59 min 50 sec)

ChampSim completed all CPUs

=== Simulation ===
CPU 0 runs /data2/zcq/champsim_traces_gap/sssp.urand-4669B.champsimtrace.xz

Region of Interest Statistics

CPU 0 cumulative IPC: 0.1595 instructions: 100000000 cycles: 626986943
CPU 0 Branch Prediction Accuracy: 97.09% MPKI: 4.418 Average ROB Occupancy at Mispredict: 176.8
Branch type MPKI
BRANCH_DIRECT_JUMP: 0
BRANCH_INDIRECT: 0
BRANCH_CONDITIONAL: 4.418
BRANCH_DIRECT_CALL: 0
BRANCH_INDIRECT_CALL: 0
BRANCH_RETURN: 0

cpu0->cpu0_STLB TOTAL        ACCESS:    7677320 HIT:     327716 MISS:    7349604 MSHR_MERGE:          0
cpu0->cpu0_STLB LOAD         ACCESS:    7677320 HIT:     327716 MISS:    7349604 MSHR_MERGE:          0
cpu0->cpu0_STLB RFO          ACCESS:          0 HIT:          0 MISS:          0 MSHR_MERGE:          0
cpu0->cpu0_STLB PREFETCH     ACCESS:          0 HIT:          0 MISS:          0 MSHR_MERGE:          0
cpu0->cpu0_STLB WRITE        ACCESS:          0 HIT:          0 MISS:          0 MSHR_MERGE:          0
cpu0->cpu0_STLB TRANSLATION  ACCESS:          0 HIT:          0 MISS:          0 MSHR_MERGE:          0
cpu0->cpu0_STLB PREFETCH REQUESTED:          0 ISSUED:          0 USEFUL:          0 USELESS:          0 LATE:          0
cpu0->cpu0_STLB AVERAGE MISS LATENCY: 67.89 cycles
cpu0->cpu0_L2C TOTAL        ACCESS:   16597560 HIT:    2077882 MISS:   14519678 MSHR_MERGE:          0
cpu0->cpu0_L2C LOAD         ACCESS:    8301531 HIT:      89680 MISS:    8211851 MSHR_MERGE:          0
cpu0->cpu0_L2C RFO          ACCESS:     141814 HIT:     112202 MISS:      29612 MSHR_MERGE:          0
cpu0->cpu0_L2C PREFETCH     ACCESS:          0 HIT:          0 MISS:          0 MSHR_MERGE:          0
cpu0->cpu0_L2C WRITE        ACCESS:     418787 HIT:     418256 MISS:        531 MSHR_MERGE:          0
cpu0->cpu0_L2C TRANSLATION  ACCESS:    7735428 HIT:    1457744 MISS:    6277684 MSHR_MERGE:          0
cpu0->cpu0_L2C PREFETCH REQUESTED:          0 ISSUED:          0 USEFUL:          0 USELESS:          0 LATE:          0
cpu0->cpu0_L2C AVERAGE MISS LATENCY: 159.6 cycles
cpu0->cpu0_L1I TOTAL        ACCESS:     725448 HIT:     725448 MISS:          0 MSHR_MERGE:          0
cpu0->cpu0_L1I LOAD         ACCESS:     725448 HIT:     725448 MISS:          0 MSHR_MERGE:          0
cpu0->cpu0_L1I RFO          ACCESS:          0 HIT:          0 MISS:          0 MSHR_MERGE:          0
cpu0->cpu0_L1I PREFETCH     ACCESS:          0 HIT:          0 MISS:          0 MSHR_MERGE:          0
cpu0->cpu0_L1I WRITE        ACCESS:          0 HIT:          0 MISS:          0 MSHR_MERGE:          0
cpu0->cpu0_L1I TRANSLATION  ACCESS:          0 HIT:          0 MISS:          0 MSHR_MERGE:          0
cpu0->cpu0_L1I PREFETCH REQUESTED:          0 ISSUED:          0 USEFUL:          0 USELESS:          0 LATE:          0
cpu0->cpu0_L1I AVERAGE MISS LATENCY: - cycles
cpu0->cpu0_L1D TOTAL        ACCESS:   53241510 HIT:   30784695 MISS:   22456815 MSHR_MERGE:    6278037
cpu0->cpu0_L1D LOAD         ACCESS:   32192758 HIT:   17624288 MISS:   14568470 MSHR_MERGE:    6266936
cpu0->cpu0_L1D RFO          ACCESS:          0 HIT:          0 MISS:          0 MSHR_MERGE:          0
cpu0->cpu0_L1D PREFETCH     ACCESS:          0 HIT:          0 MISS:          0 MSHR_MERGE:          0
cpu0->cpu0_L1D WRITE        ACCESS:    1247811 HIT:    1105987 MISS:     141824 MSHR_MERGE:          8
cpu0->cpu0_L1D TRANSLATION  ACCESS:   19800941 HIT:   12054420 MISS:    7746521 MSHR_MERGE:      11093
cpu0->cpu0_L1D PREFETCH REQUESTED:          0 ISSUED:          0 USEFUL:          0 USELESS:          0 LATE:          0
cpu0->cpu0_L1D AVERAGE MISS LATENCY: 152.1 cycles
cpu0->cpu0_ITLB TOTAL        ACCESS:     721309 HIT:     721309 MISS:          0 MSHR_MERGE:          0
cpu0->cpu0_ITLB LOAD         ACCESS:     721309 HIT:     721309 MISS:          0 MSHR_MERGE:          0
cpu0->cpu0_ITLB RFO          ACCESS:          0 HIT:          0 MISS:          0 MSHR_MERGE:          0
cpu0->cpu0_ITLB PREFETCH     ACCESS:          0 HIT:          0 MISS:          0 MSHR_MERGE:          0
cpu0->cpu0_ITLB WRITE        ACCESS:          0 HIT:          0 MISS:          0 MSHR_MERGE:          0
cpu0->cpu0_ITLB TRANSLATION  ACCESS:          0 HIT:          0 MISS:          0 MSHR_MERGE:          0
cpu0->cpu0_ITLB PREFETCH REQUESTED:          0 ISSUED:          0 USEFUL:          0 USELESS:          0 LATE:          0
cpu0->cpu0_ITLB AVERAGE MISS LATENCY: - cycles
cpu0->cpu0_DTLB TOTAL        ACCESS:   33223519 HIT:   21785920 MISS:   11437599 MSHR_MERGE:    3760280
cpu0->cpu0_DTLB LOAD         ACCESS:   33223519 HIT:   21785920 MISS:   11437599 MSHR_MERGE:    3760280
cpu0->cpu0_DTLB RFO          ACCESS:          0 HIT:          0 MISS:          0 MSHR_MERGE:          0
cpu0->cpu0_DTLB PREFETCH     ACCESS:          0 HIT:          0 MISS:          0 MSHR_MERGE:          0
cpu0->cpu0_DTLB WRITE        ACCESS:          0 HIT:          0 MISS:          0 MSHR_MERGE:          0
cpu0->cpu0_DTLB TRANSLATION  ACCESS:          0 HIT:          0 MISS:          0 MSHR_MERGE:          0
cpu0->cpu0_DTLB PREFETCH REQUESTED:          0 ISSUED:          0 USEFUL:          0 USELESS:          0 LATE:          0
cpu0->cpu0_DTLB AVERAGE MISS LATENCY: 71.1 cycles
cpu0->LLC TOTAL        ACCESS:   14757969 HIT:    5662674 MISS:    9095295 MSHR_MERGE:          0
cpu0->LLC LOAD         ACCESS:    8211850 HIT:      16792 MISS:    8195058 MSHR_MERGE:          0
cpu0->LLC RFO          ACCESS:      29612 HIT:      15941 MISS:      13671 MSHR_MERGE:          0
cpu0->LLC PREFETCH     ACCESS:          0 HIT:          0 MISS:          0 MSHR_MERGE:          0
cpu0->LLC WRITE        ACCESS:     238824 HIT:      66948 MISS:     171876 MSHR_MERGE:          0
cpu0->LLC TRANSLATION  ACCESS:    6277683 HIT:    5562993 MISS:     714690 MSHR_MERGE:          0
cpu0->LLC PREFETCH REQUESTED:          0 ISSUED:          0 USEFUL:          0 USELESS:          0 LATE:          0
cpu0->LLC AVERAGE MISS LATENCY: 230 cycles

DRAM Statistics

Channel 0 RQ ROW_BUFFER_HIT:        157
  ROW_BUFFER_MISS:    8923257
  AVG DBUS CONGESTED CYCLE: 7.845
Channel 0 WQ ROW_BUFFER_HIT:      55468
  ROW_BUFFER_MISS:     160781
  FULL:          0
Channel 0 REFRESHES ISSUED:      52249

[ROI Statistics]
[System Configuration]
num_cpus 1
cpu_freq 4000
fetch_width 6
decode_width 6
dispatch_width 6
execute_width 6
lq_width 2
sq_width 2
retire_width 6
scheduler_size 128
branch_mispredict_penalty 15
rob_size 352
lq_size 128
sq_size 72
ifetch_buffer_size 64
decode_buffer_size 32
dispatch_buffer_size 32
register_file_size 288
decode_latency 1
dispatch_latency 1
schedule_latency 1
execute_latency 1
page_size 4096
block_size 64
core_0_itlb_set 16
core_0_itlb_way 4
core_0_itlb_rq_size 16
core_0_itlb_wq_size 16
core_0_itlb_pq_size 0
core_0_itlb_mshr_size 8
core_0_itlb_hit_latency 1
core_0_itlb_fill_latency 1
core_0_itlb_max_tag_check 2
core_0_itlb_max_fill 2
core_0_dtlb_set 16
core_0_dtlb_way 4
core_0_dtlb_rq_size 16
core_0_dtlb_wq_size 16
core_0_dtlb_pq_size 0
core_0_dtlb_mshr_size 8
core_0_dtlb_hit_latency 1
core_0_dtlb_fill_latency 1
core_0_dtlb_max_tag_check 2
core_0_dtlb_max_fill 2
core_0_stlb_set 128
core_0_stlb_way 12
core_0_stlb_rq_size 32
core_0_stlb_wq_size 32
core_0_stlb_pq_size 0
core_0_stlb_mshr_size 16
core_0_stlb_hit_latency 4
core_0_stlb_fill_latency 4
core_0_stlb_max_tag_check 1
core_0_stlb_max_fill 1
core_0_l1i_set 64
core_0_l1i_way 8
core_0_l1i_rq_size 64
core_0_l1i_wq_size 64
core_0_l1i_pq_size 32
core_0_l1i_mshr_size 8
core_0_l1i_hit_latency 2
core_0_l1i_fill_latency 2
core_0_l1i_max_tag_check 2
core_0_l1i_max_fill 2
core_0_l1d_set 64
core_0_l1d_way 12
core_0_l1d_rq_size 64
core_0_l1d_wq_size 64
core_0_l1d_pq_size 8
core_0_l1d_mshr_size 16
core_0_l1d_hit_latency 2
core_0_l1d_fill_latency 3
core_0_l1d_max_tag_check 2
core_0_l1d_max_fill 2
core_0_l2c_set 1024
core_0_l2c_way 8
core_0_l2c_rq_size 32
core_0_l2c_wq_size 32
core_0_l2c_pq_size 16
core_0_l2c_mshr_size 32
core_0_l2c_hit_latency 5
core_0_l2c_fill_latency 5
core_0_l2c_max_tag_check 1
core_0_l2c_max_fill 1
llc_set 2048
llc_way 16
llc_rq_size 32
llc_wq_size 32
llc_pq_size 32
llc_mshr_size 64
llc_hit_latency 10
llc_fill_latency 10
llc_max_tag_check 1
llc_max_fill 1
dram_channels 1
dram_ranks 1
dram_bankgroups 8
dram_banks 4
dram_rows 65536
dram_columns 1024
dram_channel_width 8
dram_rq_size 64
dram_wq_size 64
dram_size 17179869184
core_0_itlb_prefetcher no
core_0_dtlb_prefetcher no
core_0_stlb_prefetcher no
core_0_l1i_prefetcher no
core_0_l1d_prefetcher no
core_0_l2c_prefetcher no
llc_prefetcher no
llc_replacement drrip

Core_0_instructions 100000000
Core_0_cycles 626986943
Core_0_IPC 0.159493
Core_0_branch_prediction_accuracy 97.0856
Core_0_branch_MPKI 4.41785
Core_0_average_ROB_occupancy_at_mispredict 176.762

Core_0_ITLB_total_access 721309
Core_0_ITLB_total_hit 721309
Core_0_ITLB_total_miss 0
Core_0_ITLB_total_MPKI 0
Core_0_ITLB_total_miss_rate 0
Core_0_ITLB_demand_access 721309
Core_0_ITLB_demand_hit 721309
Core_0_ITLB_demand_miss 0
Core_0_ITLB_demand_MPKI 0
Core_0_ITLB_demand_miss_rate 0
Core_0_ITLB_load_access 721309
Core_0_ITLB_load_hit 721309
Core_0_ITLB_load_miss 0
Core_0_ITLB_load_MPKI 0
Core_0_ITLB_load_miss_rate 0
Core_0_ITLB_rfo_access 0
Core_0_ITLB_rfo_hit 0
Core_0_ITLB_rfo_miss 0
Core_0_ITLB_rfo_MPKI 0
Core_0_ITLB_rfo_miss_rate 0
Core_0_ITLB_prefetch_access 0
Core_0_ITLB_prefetch_hit 0
Core_0_ITLB_prefetch_miss 0
Core_0_ITLB_prefetch_MPKI 0
Core_0_ITLB_prefetch_miss_rate 0
Core_0_ITLB_writeback_access 0
Core_0_ITLB_writeback_hit 0
Core_0_ITLB_writeback_miss 0
Core_0_ITLB_writeback_MPKI 0
Core_0_ITLB_writeback_miss_rate 0
Core_0_ITLB_prefetch_requested 0
Core_0_ITLB_prefetch_issued 0
Core_0_ITLB_prefetch_useful 0
Core_0_ITLB_prefetch_useless 0
Core_0_ITLB_prefetch_late 0
Core_0_ITLB_prefetch_accuracy 0
Core_0_ITLB_prefetch_coverage 0

Core_0_DTLB_total_access 33223519
Core_0_DTLB_total_hit 21785920
Core_0_DTLB_total_miss 11437599
Core_0_DTLB_total_MPKI 114.376
Core_0_DTLB_total_miss_rate 0.344262
Core_0_DTLB_demand_access 33223519
Core_0_DTLB_demand_hit 21785920
Core_0_DTLB_demand_miss 11437599
Core_0_DTLB_demand_MPKI 114.376
Core_0_DTLB_demand_miss_rate 0.344262
Core_0_DTLB_load_access 33223519
Core_0_DTLB_load_hit 21785920
Core_0_DTLB_load_miss 11437599
Core_0_DTLB_load_MPKI 114.376
Core_0_DTLB_load_miss_rate 0.344262
Core_0_DTLB_rfo_access 0
Core_0_DTLB_rfo_hit 0
Core_0_DTLB_rfo_miss 0
Core_0_DTLB_rfo_MPKI 0
Core_0_DTLB_rfo_miss_rate 0
Core_0_DTLB_prefetch_access 0
Core_0_DTLB_prefetch_hit 0
Core_0_DTLB_prefetch_miss 0
Core_0_DTLB_prefetch_MPKI 0
Core_0_DTLB_prefetch_miss_rate 0
Core_0_DTLB_writeback_access 0
Core_0_DTLB_writeback_hit 0
Core_0_DTLB_writeback_miss 0
Core_0_DTLB_writeback_MPKI 0
Core_0_DTLB_writeback_miss_rate 0
Core_0_DTLB_prefetch_requested 0
Core_0_DTLB_prefetch_issued 0
Core_0_DTLB_prefetch_useful 0
Core_0_DTLB_prefetch_useless 0
Core_0_DTLB_prefetch_late 0
Core_0_DTLB_prefetch_accuracy 0
Core_0_DTLB_prefetch_coverage 0

Core_0_STLB_total_access 7677320
Core_0_STLB_total_hit 327716
Core_0_STLB_total_miss 7349604
Core_0_STLB_total_MPKI 73.496
Core_0_STLB_total_miss_rate 0.957314
Core_0_STLB_demand_access 7677320
Core_0_STLB_demand_hit 327716
Core_0_STLB_demand_miss 7349604
Core_0_STLB_demand_MPKI 73.496
Core_0_STLB_demand_miss_rate 0.957314
Core_0_STLB_load_access 7677320
Core_0_STLB_load_hit 327716
Core_0_STLB_load_miss 7349604
Core_0_STLB_load_MPKI 73.496
Core_0_STLB_load_miss_rate 0.957314
Core_0_STLB_rfo_access 0
Core_0_STLB_rfo_hit 0
Core_0_STLB_rfo_miss 0
Core_0_STLB_rfo_MPKI 0
Core_0_STLB_rfo_miss_rate 0
Core_0_STLB_prefetch_access 0
Core_0_STLB_prefetch_hit 0
Core_0_STLB_prefetch_miss 0
Core_0_STLB_prefetch_MPKI 0
Core_0_STLB_prefetch_miss_rate 0
Core_0_STLB_writeback_access 0
Core_0_STLB_writeback_hit 0
Core_0_STLB_writeback_miss 0
Core_0_STLB_writeback_MPKI 0
Core_0_STLB_writeback_miss_rate 0
Core_0_STLB_prefetch_requested 0
Core_0_STLB_prefetch_issued 0
Core_0_STLB_prefetch_useful 0
Core_0_STLB_prefetch_useless 0
Core_0_STLB_prefetch_late 0
Core_0_STLB_prefetch_accuracy 0
Core_0_STLB_prefetch_coverage 0

Core_0_L1I_total_access 725448
Core_0_L1I_total_hit 725448
Core_0_L1I_total_miss 0
Core_0_L1I_total_MPKI 0
Core_0_L1I_total_miss_rate 0
Core_0_L1I_demand_access 725448
Core_0_L1I_demand_hit 725448
Core_0_L1I_demand_miss 0
Core_0_L1I_demand_MPKI 0
Core_0_L1I_demand_miss_rate 0
Core_0_L1I_load_access 725448
Core_0_L1I_load_hit 725448
Core_0_L1I_load_miss 0
Core_0_L1I_load_MPKI 0
Core_0_L1I_load_miss_rate 0
Core_0_L1I_rfo_access 0
Core_0_L1I_rfo_hit 0
Core_0_L1I_rfo_miss 0
Core_0_L1I_rfo_MPKI 0
Core_0_L1I_rfo_miss_rate 0
Core_0_L1I_prefetch_access 0
Core_0_L1I_prefetch_hit 0
Core_0_L1I_prefetch_miss 0
Core_0_L1I_prefetch_MPKI 0
Core_0_L1I_prefetch_miss_rate 0
Core_0_L1I_writeback_access 0
Core_0_L1I_writeback_hit 0
Core_0_L1I_writeback_miss 0
Core_0_L1I_writeback_MPKI 0
Core_0_L1I_writeback_miss_rate 0
Core_0_L1I_prefetch_requested 0
Core_0_L1I_prefetch_issued 0
Core_0_L1I_prefetch_useful 0
Core_0_L1I_prefetch_useless 0
Core_0_L1I_prefetch_late 0
Core_0_L1I_prefetch_accuracy 0
Core_0_L1I_prefetch_coverage 0

Core_0_L1D_total_access 33440569
Core_0_L1D_total_hit 18730275
Core_0_L1D_total_miss 14710294
Core_0_L1D_total_MPKI 147.103
Core_0_L1D_total_miss_rate 0.439894
Core_0_L1D_demand_access 32192758
Core_0_L1D_demand_hit 17624288
Core_0_L1D_demand_miss 14568470
Core_0_L1D_demand_MPKI 145.685
Core_0_L1D_demand_miss_rate 0.452539
Core_0_L1D_load_access 32192758
Core_0_L1D_load_hit 17624288
Core_0_L1D_load_miss 14568470
Core_0_L1D_load_MPKI 145.685
Core_0_L1D_load_miss_rate 0.452539
Core_0_L1D_rfo_access 0
Core_0_L1D_rfo_hit 0
Core_0_L1D_rfo_miss 0
Core_0_L1D_rfo_MPKI 0
Core_0_L1D_rfo_miss_rate 0
Core_0_L1D_prefetch_access 0
Core_0_L1D_prefetch_hit 0
Core_0_L1D_prefetch_miss 0
Core_0_L1D_prefetch_MPKI 0
Core_0_L1D_prefetch_miss_rate 0
Core_0_L1D_writeback_access 1247811
Core_0_L1D_writeback_hit 1105987
Core_0_L1D_writeback_miss 141824
Core_0_L1D_writeback_MPKI 1.41824
Core_0_L1D_writeback_miss_rate 0.113658
Core_0_L1D_prefetch_requested 0
Core_0_L1D_prefetch_issued 0
Core_0_L1D_prefetch_useful 0
Core_0_L1D_prefetch_useless 0
Core_0_L1D_prefetch_late 0
Core_0_L1D_prefetch_accuracy 0
Core_0_L1D_prefetch_coverage 0

Core_0_L2C_total_access 8862132
Core_0_L2C_total_hit 620138
Core_0_L2C_total_miss 8241994
Core_0_L2C_total_MPKI 82.4199
Core_0_L2C_total_miss_rate 0.930024
Core_0_L2C_demand_access 8443345
Core_0_L2C_demand_hit 201882
Core_0_L2C_demand_miss 8241463
Core_0_L2C_demand_MPKI 82.4146
Core_0_L2C_demand_miss_rate 0.97609
Core_0_L2C_load_access 8301531
Core_0_L2C_load_hit 89680
Core_0_L2C_load_miss 8211851
Core_0_L2C_load_MPKI 82.1185
Core_0_L2C_load_miss_rate 0.989197
Core_0_L2C_rfo_access 141814
Core_0_L2C_rfo_hit 112202
Core_0_L2C_rfo_miss 29612
Core_0_L2C_rfo_MPKI 0.29612
Core_0_L2C_rfo_miss_rate 0.208809
Core_0_L2C_prefetch_access 0
Core_0_L2C_prefetch_hit 0
Core_0_L2C_prefetch_miss 0
Core_0_L2C_prefetch_MPKI 0
Core_0_L2C_prefetch_miss_rate 0
Core_0_L2C_writeback_access 418787
Core_0_L2C_writeback_hit 418256
Core_0_L2C_writeback_miss 531
Core_0_L2C_writeback_MPKI 0.00531
Core_0_L2C_writeback_miss_rate 0.00126795
Core_0_L2C_prefetch_requested 0
Core_0_L2C_prefetch_issued 0
Core_0_L2C_prefetch_useful 0
Core_0_L2C_prefetch_useless 0
Core_0_L2C_prefetch_late 0
Core_0_L2C_prefetch_accuracy 0
Core_0_L2C_prefetch_coverage 0

Core_0_LLC_total_access 8480286
Core_0_LLC_total_hit 99681
Core_0_LLC_total_miss 8380605
Core_0_LLC_total_MPKI 83.806
Core_0_LLC_total_miss_rate 0.988246
Core_0_LLC_demand_access 8241462
Core_0_LLC_demand_hit 32733
Core_0_LLC_demand_miss 8208729
Core_0_LLC_demand_MPKI 82.0873
Core_0_LLC_demand_miss_rate 0.996028
Core_0_LLC_load_access 8211850
Core_0_LLC_load_hit 16792
Core_0_LLC_load_miss 8195058
Core_0_LLC_load_MPKI 81.9506
Core_0_LLC_load_miss_rate 0.997955
Core_0_LLC_rfo_access 29612
Core_0_LLC_rfo_hit 15941
Core_0_LLC_rfo_miss 13671
Core_0_LLC_rfo_MPKI 0.13671
Core_0_LLC_rfo_miss_rate 0.461671
Core_0_LLC_prefetch_access 0
Core_0_LLC_prefetch_hit 0
Core_0_LLC_prefetch_miss 0
Core_0_LLC_prefetch_MPKI 0
Core_0_LLC_prefetch_miss_rate 0
Core_0_LLC_writeback_access 238824
Core_0_LLC_writeback_hit 66948
Core_0_LLC_writeback_miss 171876
Core_0_LLC_writeback_MPKI 1.71876
Core_0_LLC_writeback_miss_rate 0.719676
Core_0_LLC_prefetch_requested 0
Core_0_LLC_prefetch_issued 0
Core_0_LLC_prefetch_useful 0
Core_0_LLC_prefetch_useless 0
Core_0_LLC_prefetch_late 0
Core_0_LLC_prefetch_accuracy 0
Core_0_LLC_prefetch_coverage 0

[DRAM Statistics]
Channel_0_RQ_row_buffer_hit 157
Channel_0_RQ_row_buffer_miss 8923257
Channel_0_WQ_row_buffer_hit 55468
Channel_0_WQ_row_buffer_miss 160781
Channel_0_WQ_full 0
Channel_0_dbus_congested 15825407
DRAM_total_RQ_row_buffer_hit 157
DRAM_total_RQ_row_buffer_miss 8923257
DRAM_total_WQ_row_buffer_hit 55468
DRAM_total_WQ_row_buffer_miss 160781
DRAM_total_WQ_full 0
DRAM_total_dbus_congested 15825407
DRAM_avg_congested_cycle 7.84504

====== DRAM_RQ_TRAFFIC ========
DRAM_RQ_READ_TRAFFIC_BREAKDOWN:
data_demand_read.count = 8208729
data_demand_read.share = 91.99%

inst_demand_read.count = 0
inst_demand_read.share = 0.00%

cache_inst_prefetch.count = 0
cache_inst_prefetch.share = 0.00%

cache_data_prefetch.count = 0
cache_data_prefetch.share = 0.00%

stlb_data_demand.count = 714690
stlb_data_demand.share = 8.01%

stlb_inst_demand.count = 0
stlb_inst_demand.share = 0.00%

stlb_l1i_pref.count = 0
stlb_l1i_pref.share = 0.00%

stlb_l1d_pref.count = 0
stlb_l1d_pref.share = 0.00%

DRAM_RQ_READ_TRAFFIC_SUMMARY:
cache_demand.count = 8208729
cache_demand.share = 91.99%

cache_prefetch.count = 0
cache_prefetch.share = 0.00%

stlb_demand.count = 714690
stlb_demand.share = 8.01%

stlb_prefetch.count = 0
stlb_prefetch.share = 0.00%

DRAM_RQ_READ_TRAFFIC_DEBUG:
total_classified_read.count = 8923419
unclassified_read.count = 0
total_read_with_other.count = 8923419

classified_plus_unclassified_check.count = 8923419
dram_rq_read_total_observed.count = 8923419
dram_rq_read_total_observed.per_1K_instructions = 89.2342

STLB_MISS_PTW_DRAM_TOUCH_BREAKDOWN:
stlb_miss_total.count = 7349602

stlb_miss_touch_dram.count = 661367
stlb_miss_touch_dram.share = 9.00%

stlb_miss_no_dram_touch.count = 6688235
stlb_miss_no_dram_touch.share = 91.00%

STLB_MISS_PTW_DRAM_TOUCH_DEBUG:
stlb_miss_touch_plus_no_touch.count = 7349602
stlb_miss_total_check.count = 7349602

======STLB miss causes ========
Core_0_STLB_miss_cause_breakdown
Core_0_STLB_cause_Demand_Data_miss 7349604
Core_0_STLB_cause_Demand_Data_miss_rate 0.957314
Core_0_STLB_cause_Demand_Instruction_miss 0
Core_0_STLB_cause_Demand_Instruction_miss_rate 0
Core_0_STLB_cause_L1D_Prefetch_miss 0
Core_0_STLB_cause_L1D_Prefetch_miss_rate 0
Core_0_STLB_cause_L1I_Prefetch_miss 0
Core_0_STLB_cause_L1I_Prefetch_miss_rate 0
Core_0_STLB_cause_Other_miss 0
Core_0_STLB_cause_Other_miss_rate 0
Core_0_STLB_Demand_miss 7349604
Core_0_STLB_Demand_miss_rate 0.957314
Core_0_STLB_L1D_Prefetch_miss 0
Core_0_STLB_L1D_Prefetch_miss_rate 0
Core_0_STLB_Other_miss 0
Core_0_STLB_Other_miss_rate 0
