[VMEM] WARNING: physical memory size is smaller than virtual memory size.

*** ChampSim Multicore Out-of-Order Simulator ***
Warmup Instructions: 50000000
Simulation Instructions: 100000000
Number of CPUs: 1
Page size: 4096
Core 0: /data2/zcq/champsim_traces_gap/tc.twitter-34B.champsimtrace.xz
Off-chip DRAM Size: 16 GiB Channels: 1 Width: 64-bit Data Rate: 3205 MT/s
Warmup halting CPU 0 at instruction 50000000 cycle 14387359 for remainder of phase
Warmup finished CPU 0 instructions: 50000000 cycles: 14387359 cumulative IPC: 3.475 (Simulation time: 00 hr 02 min 15 sec)
Warmup complete CPU 0 instructions: 50000000 cycles: 14387359 cumulative IPC: 3.475 (Simulation time: 00 hr 02 min 15 sec)
Simulation finished CPU 0 instructions: 100000000 cycles: 179301522 cumulative IPC: 0.5577 (Simulation time: 00 hr 14 min 32 sec)
Simulation complete CPU 0 instructions: 100000000 cycles: 179301522 cumulative IPC: 0.5577 (Simulation time: 00 hr 14 min 32 sec)

ChampSim completed all CPUs

=== Simulation ===
CPU 0 runs /data2/zcq/champsim_traces_gap/tc.twitter-34B.champsimtrace.xz

Region of Interest Statistics

CPU 0 cumulative IPC: 0.5577 instructions: 100000000 cycles: 179301522
CPU 0 Branch Prediction Accuracy: 81.82% MPKI: 44.18 Average ROB Occupancy at Mispredict: 6.515
Branch type MPKI
BRANCH_DIRECT_JUMP: 0.00818
BRANCH_INDIRECT: 0
BRANCH_CONDITIONAL: 44.17
BRANCH_DIRECT_CALL: 2e-05
BRANCH_INDIRECT_CALL: 0
BRANCH_RETURN: 2e-05

cpu0->cpu0_STLB TOTAL        ACCESS:     407098 HIT:      18967 MISS:     388131 MSHR_MERGE:          0
cpu0->cpu0_STLB LOAD         ACCESS:     407098 HIT:      18967 MISS:     388131 MSHR_MERGE:          0
cpu0->cpu0_STLB RFO          ACCESS:          0 HIT:          0 MISS:          0 MSHR_MERGE:          0
cpu0->cpu0_STLB PREFETCH     ACCESS:          0 HIT:          0 MISS:          0 MSHR_MERGE:          0
cpu0->cpu0_STLB WRITE        ACCESS:          0 HIT:          0 MISS:          0 MSHR_MERGE:          0
cpu0->cpu0_STLB TRANSLATION  ACCESS:          0 HIT:          0 MISS:          0 MSHR_MERGE:          0
cpu0->cpu0_STLB PREFETCH REQUESTED:          0 ISSUED:          0 USEFUL:          0 USELESS:          0 LATE:          0
cpu0->cpu0_STLB AVERAGE MISS LATENCY: 96.86 cycles
cpu0->cpu0_L2C TOTAL        ACCESS:    1624562 HIT:     502733 MISS:    1121829 MSHR_MERGE:          0
cpu0->cpu0_L2C LOAD         ACCESS:    1044452 HIT:     136895 MISS:     907557 MSHR_MERGE:          0
cpu0->cpu0_L2C RFO          ACCESS:      52968 HIT:       2942 MISS:      50026 MSHR_MERGE:          0
cpu0->cpu0_L2C PREFETCH     ACCESS:          0 HIT:          0 MISS:          0 MSHR_MERGE:          0
cpu0->cpu0_L2C WRITE        ACCESS:     269815 HIT:     269792 MISS:         23 MSHR_MERGE:          0
cpu0->cpu0_L2C TRANSLATION  ACCESS:     257327 HIT:      93104 MISS:     164223 MSHR_MERGE:          0
cpu0->cpu0_L2C PREFETCH REQUESTED:          0 ISSUED:          0 USEFUL:          0 USELESS:          0 LATE:          0
cpu0->cpu0_L2C AVERAGE MISS LATENCY: 232.5 cycles
cpu0->cpu0_L1I TOTAL        ACCESS:    1534884 HIT:    1534878 MISS:          6 MSHR_MERGE:          0
cpu0->cpu0_L1I LOAD         ACCESS:    1534884 HIT:    1534878 MISS:          6 MSHR_MERGE:          0
cpu0->cpu0_L1I RFO          ACCESS:          0 HIT:          0 MISS:          0 MSHR_MERGE:          0
cpu0->cpu0_L1I PREFETCH     ACCESS:          0 HIT:          0 MISS:          0 MSHR_MERGE:          0
cpu0->cpu0_L1I WRITE        ACCESS:          0 HIT:          0 MISS:          0 MSHR_MERGE:          0
cpu0->cpu0_L1I TRANSLATION  ACCESS:          0 HIT:          0 MISS:          0 MSHR_MERGE:          0
cpu0->cpu0_L1I PREFETCH REQUESTED:          0 ISSUED:          0 USEFUL:          0 USELESS:          0 LATE:          0
cpu0->cpu0_L1I AVERAGE MISS LATENCY: 164.3 cycles
cpu0->cpu0_L1D TOTAL        ACCESS:   27304023 HIT:   24684364 MISS:    2619659 MSHR_MERGE:    1264879
cpu0->cpu0_L1D LOAD         ACCESS:   17376813 HIT:   15623337 MISS:    1753476 MSHR_MERGE:     709030
cpu0->cpu0_L1D RFO          ACCESS:          0 HIT:          0 MISS:          0 MSHR_MERGE:          0
cpu0->cpu0_L1D PREFETCH     ACCESS:          0 HIT:          0 MISS:          0 MSHR_MERGE:          0
cpu0->cpu0_L1D WRITE        ACCESS:    9193213 HIT:    8635710 MISS:     557503 MSHR_MERGE:     504496
cpu0->cpu0_L1D TRANSLATION  ACCESS:     733997 HIT:     425317 MISS:     308680 MSHR_MERGE:      51353
cpu0->cpu0_L1D PREFETCH REQUESTED:          0 ISSUED:          0 USEFUL:          0 USELESS:          0 LATE:          0
cpu0->cpu0_L1D AVERAGE MISS LATENCY: 201.7 cycles
cpu0->cpu0_ITLB TOTAL        ACCESS:    1417355 HIT:    1417354 MISS:          1 MSHR_MERGE:          0
cpu0->cpu0_ITLB LOAD         ACCESS:    1417355 HIT:    1417354 MISS:          1 MSHR_MERGE:          0
cpu0->cpu0_ITLB RFO          ACCESS:          0 HIT:          0 MISS:          0 MSHR_MERGE:          0
cpu0->cpu0_ITLB PREFETCH     ACCESS:          0 HIT:          0 MISS:          0 MSHR_MERGE:          0
cpu0->cpu0_ITLB WRITE        ACCESS:          0 HIT:          0 MISS:          0 MSHR_MERGE:          0
cpu0->cpu0_ITLB TRANSLATION  ACCESS:          0 HIT:          0 MISS:          0 MSHR_MERGE:          0
cpu0->cpu0_ITLB PREFETCH REQUESTED:          0 ISSUED:          0 USEFUL:          0 USELESS:          0 LATE:          0
cpu0->cpu0_ITLB AVERAGE MISS LATENCY: 581 cycles
cpu0->cpu0_DTLB TOTAL        ACCESS:   24029606 HIT:   23387974 MISS:     641632 MSHR_MERGE:     234535
cpu0->cpu0_DTLB LOAD         ACCESS:   24029606 HIT:   23387974 MISS:     641632 MSHR_MERGE:     234535
cpu0->cpu0_DTLB RFO          ACCESS:          0 HIT:          0 MISS:          0 MSHR_MERGE:          0
cpu0->cpu0_DTLB PREFETCH     ACCESS:          0 HIT:          0 MISS:          0 MSHR_MERGE:          0
cpu0->cpu0_DTLB WRITE        ACCESS:          0 HIT:          0 MISS:          0 MSHR_MERGE:          0
cpu0->cpu0_DTLB TRANSLATION  ACCESS:          0 HIT:          0 MISS:          0 MSHR_MERGE:          0
cpu0->cpu0_DTLB PREFETCH REQUESTED:          0 ISSUED:          0 USEFUL:          0 USELESS:          0 LATE:          0
cpu0->cpu0_DTLB AVERAGE MISS LATENCY: 98.42 cycles
cpu0->LLC TOTAL        ACCESS:    1267856 HIT:     333123 MISS:     934733 MSHR_MERGE:          0
cpu0->LLC LOAD         ACCESS:     907557 HIT:      96611 MISS:     810946 MSHR_MERGE:          0
cpu0->LLC RFO          ACCESS:      50026 HIT:        814 MISS:      49212 MSHR_MERGE:          0
cpu0->LLC PREFETCH     ACCESS:          0 HIT:          0 MISS:          0 MSHR_MERGE:          0
cpu0->LLC WRITE        ACCESS:     146050 HIT:     119379 MISS:      26671 MSHR_MERGE:          0
cpu0->LLC TRANSLATION  ACCESS:     164223 HIT:     116319 MISS:      47904 MSHR_MERGE:          0
cpu0->LLC PREFETCH REQUESTED:          0 ISSUED:          0 USEFUL:          0 USELESS:          0 LATE:          0
cpu0->LLC AVERAGE MISS LATENCY: 260.3 cycles

DRAM Statistics

Channel 0 RQ ROW_BUFFER_HIT:      27194
  ROW_BUFFER_MISS:     880868
  AVG DBUS CONGESTED CYCLE: 4.202
Channel 0 WQ ROW_BUFFER_HIT:       4808
  ROW_BUFFER_MISS:      65725
  FULL:          0
Channel 0 REFRESHES ISSUED:      14942

[ROI Statistics]
[System Configuration]
num_cpus 1
cpu_freq 4000
fetch_width 6
decode_width 6
dispatch_width 6
execute_width 6
lq_width 2
sq_width 2
retire_width 6
scheduler_size 128
branch_mispredict_penalty 15
rob_size 352
lq_size 128
sq_size 72
ifetch_buffer_size 64
decode_buffer_size 32
dispatch_buffer_size 32
register_file_size 288
decode_latency 1
dispatch_latency 1
schedule_latency 1
execute_latency 1
page_size 4096
block_size 64
core_0_itlb_set 16
core_0_itlb_way 4
core_0_itlb_rq_size 16
core_0_itlb_wq_size 16
core_0_itlb_pq_size 0
core_0_itlb_mshr_size 8
core_0_itlb_hit_latency 1
core_0_itlb_fill_latency 1
core_0_itlb_max_tag_check 2
core_0_itlb_max_fill 2
core_0_dtlb_set 16
core_0_dtlb_way 4
core_0_dtlb_rq_size 16
core_0_dtlb_wq_size 16
core_0_dtlb_pq_size 0
core_0_dtlb_mshr_size 8
core_0_dtlb_hit_latency 1
core_0_dtlb_fill_latency 1
core_0_dtlb_max_tag_check 2
core_0_dtlb_max_fill 2
core_0_stlb_set 128
core_0_stlb_way 12
core_0_stlb_rq_size 32
core_0_stlb_wq_size 32
core_0_stlb_pq_size 0
core_0_stlb_mshr_size 16
core_0_stlb_hit_latency 4
core_0_stlb_fill_latency 4
core_0_stlb_max_tag_check 1
core_0_stlb_max_fill 1
core_0_l1i_set 64
core_0_l1i_way 8
core_0_l1i_rq_size 64
core_0_l1i_wq_size 64
core_0_l1i_pq_size 32
core_0_l1i_mshr_size 8
core_0_l1i_hit_latency 2
core_0_l1i_fill_latency 2
core_0_l1i_max_tag_check 2
core_0_l1i_max_fill 2
core_0_l1d_set 64
core_0_l1d_way 12
core_0_l1d_rq_size 64
core_0_l1d_wq_size 64
core_0_l1d_pq_size 8
core_0_l1d_mshr_size 16
core_0_l1d_hit_latency 2
core_0_l1d_fill_latency 3
core_0_l1d_max_tag_check 2
core_0_l1d_max_fill 2
core_0_l2c_set 1024
core_0_l2c_way 8
core_0_l2c_rq_size 32
core_0_l2c_wq_size 32
core_0_l2c_pq_size 16
core_0_l2c_mshr_size 32
core_0_l2c_hit_latency 5
core_0_l2c_fill_latency 5
core_0_l2c_max_tag_check 1
core_0_l2c_max_fill 1
llc_set 2048
llc_way 16
llc_rq_size 32
llc_wq_size 32
llc_pq_size 32
llc_mshr_size 64
llc_hit_latency 10
llc_fill_latency 10
llc_max_tag_check 1
llc_max_fill 1
dram_channels 1
dram_ranks 1
dram_bankgroups 8
dram_banks 4
dram_rows 65536
dram_columns 1024
dram_channel_width 8
dram_rq_size 64
dram_wq_size 64
dram_size 17179869184
core_0_itlb_prefetcher no
core_0_dtlb_prefetcher no
core_0_stlb_prefetcher no
core_0_l1i_prefetcher no
core_0_l1d_prefetcher no
core_0_l2c_prefetcher no
llc_prefetcher no
llc_replacement drrip

Core_0_instructions 100000000
Core_0_cycles 179301522
Core_0_IPC 0.55772
Core_0_branch_prediction_accuracy 81.8171
Core_0_branch_MPKI 44.1768
Core_0_average_ROB_occupancy_at_mispredict 6.51466

Core_0_ITLB_total_access 1417355
Core_0_ITLB_total_hit 1417354
Core_0_ITLB_total_miss 1
Core_0_ITLB_total_MPKI 1e-05
Core_0_ITLB_total_miss_rate 7.0554e-07
Core_0_ITLB_demand_access 1417355
Core_0_ITLB_demand_hit 1417354
Core_0_ITLB_demand_miss 1
Core_0_ITLB_demand_MPKI 1e-05
Core_0_ITLB_demand_miss_rate 7.0554e-07
Core_0_ITLB_load_access 1417355
Core_0_ITLB_load_hit 1417354
Core_0_ITLB_load_miss 1
Core_0_ITLB_load_MPKI 1e-05
Core_0_ITLB_load_miss_rate 7.0554e-07
Core_0_ITLB_rfo_access 0
Core_0_ITLB_rfo_hit 0
Core_0_ITLB_rfo_miss 0
Core_0_ITLB_rfo_MPKI 0
Core_0_ITLB_rfo_miss_rate 0
Core_0_ITLB_prefetch_access 0
Core_0_ITLB_prefetch_hit 0
Core_0_ITLB_prefetch_miss 0
Core_0_ITLB_prefetch_MPKI 0
Core_0_ITLB_prefetch_miss_rate 0
Core_0_ITLB_writeback_access 0
Core_0_ITLB_writeback_hit 0
Core_0_ITLB_writeback_miss 0
Core_0_ITLB_writeback_MPKI 0
Core_0_ITLB_writeback_miss_rate 0
Core_0_ITLB_prefetch_requested 0
Core_0_ITLB_prefetch_issued 0
Core_0_ITLB_prefetch_useful 0
Core_0_ITLB_prefetch_useless 0
Core_0_ITLB_prefetch_late 0
Core_0_ITLB_prefetch_accuracy 0
Core_0_ITLB_prefetch_coverage 0

Core_0_DTLB_total_access 24029606
Core_0_DTLB_total_hit 23387974
Core_0_DTLB_total_miss 641632
Core_0_DTLB_total_MPKI 6.41632
Core_0_DTLB_total_miss_rate 0.0267017
Core_0_DTLB_demand_access 24029606
Core_0_DTLB_demand_hit 23387974
Core_0_DTLB_demand_miss 641632
Core_0_DTLB_demand_MPKI 6.41632
Core_0_DTLB_demand_miss_rate 0.0267017
Core_0_DTLB_load_access 24029606
Core_0_DTLB_load_hit 23387974
Core_0_DTLB_load_miss 641632
Core_0_DTLB_load_MPKI 6.41632
Core_0_DTLB_load_miss_rate 0.0267017
Core_0_DTLB_rfo_access 0
Core_0_DTLB_rfo_hit 0
Core_0_DTLB_rfo_miss 0
Core_0_DTLB_rfo_MPKI 0
Core_0_DTLB_rfo_miss_rate 0
Core_0_DTLB_prefetch_access 0
Core_0_DTLB_prefetch_hit 0
Core_0_DTLB_prefetch_miss 0
Core_0_DTLB_prefetch_MPKI 0
Core_0_DTLB_prefetch_miss_rate 0
Core_0_DTLB_writeback_access 0
Core_0_DTLB_writeback_hit 0
Core_0_DTLB_writeback_miss 0
Core_0_DTLB_writeback_MPKI 0
Core_0_DTLB_writeback_miss_rate 0
Core_0_DTLB_prefetch_requested 0
Core_0_DTLB_prefetch_issued 0
Core_0_DTLB_prefetch_useful 0
Core_0_DTLB_prefetch_useless 0
Core_0_DTLB_prefetch_late 0
Core_0_DTLB_prefetch_accuracy 0
Core_0_DTLB_prefetch_coverage 0

Core_0_STLB_total_access 407098
Core_0_STLB_total_hit 18967
Core_0_STLB_total_miss 388131
Core_0_STLB_total_MPKI 3.88131
Core_0_STLB_total_miss_rate 0.953409
Core_0_STLB_demand_access 407098
Core_0_STLB_demand_hit 18967
Core_0_STLB_demand_miss 388131
Core_0_STLB_demand_MPKI 3.88131
Core_0_STLB_demand_miss_rate 0.953409
Core_0_STLB_load_access 407098
Core_0_STLB_load_hit 18967
Core_0_STLB_load_miss 388131
Core_0_STLB_load_MPKI 3.88131
Core_0_STLB_load_miss_rate 0.953409
Core_0_STLB_rfo_access 0
Core_0_STLB_rfo_hit 0
Core_0_STLB_rfo_miss 0
Core_0_STLB_rfo_MPKI 0
Core_0_STLB_rfo_miss_rate 0
Core_0_STLB_prefetch_access 0
Core_0_STLB_prefetch_hit 0
Core_0_STLB_prefetch_miss 0
Core_0_STLB_prefetch_MPKI 0
Core_0_STLB_prefetch_miss_rate 0
Core_0_STLB_writeback_access 0
Core_0_STLB_writeback_hit 0
Core_0_STLB_writeback_miss 0
Core_0_STLB_writeback_MPKI 0
Core_0_STLB_writeback_miss_rate 0
Core_0_STLB_prefetch_requested 0
Core_0_STLB_prefetch_issued 0
Core_0_STLB_prefetch_useful 0
Core_0_STLB_prefetch_useless 0
Core_0_STLB_prefetch_late 0
Core_0_STLB_prefetch_accuracy 0
Core_0_STLB_prefetch_coverage 0

Core_0_L1I_total_access 1534884
Core_0_L1I_total_hit 1534878
Core_0_L1I_total_miss 6
Core_0_L1I_total_MPKI 6e-05
Core_0_L1I_total_miss_rate 3.90909e-06
Core_0_L1I_demand_access 1534884
Core_0_L1I_demand_hit 1534878
Core_0_L1I_demand_miss 6
Core_0_L1I_demand_MPKI 6e-05
Core_0_L1I_demand_miss_rate 3.90909e-06
Core_0_L1I_load_access 1534884
Core_0_L1I_load_hit 1534878
Core_0_L1I_load_miss 6
Core_0_L1I_load_MPKI 6e-05
Core_0_L1I_load_miss_rate 3.90909e-06
Core_0_L1I_rfo_access 0
Core_0_L1I_rfo_hit 0
Core_0_L1I_rfo_miss 0
Core_0_L1I_rfo_MPKI 0
Core_0_L1I_rfo_miss_rate 0
Core_0_L1I_prefetch_access 0
Core_0_L1I_prefetch_hit 0
Core_0_L1I_prefetch_miss 0
Core_0_L1I_prefetch_MPKI 0
Core_0_L1I_prefetch_miss_rate 0
Core_0_L1I_writeback_access 0
Core_0_L1I_writeback_hit 0
Core_0_L1I_writeback_miss 0
Core_0_L1I_writeback_MPKI 0
Core_0_L1I_writeback_miss_rate 0
Core_0_L1I_prefetch_requested 0
Core_0_L1I_prefetch_issued 0
Core_0_L1I_prefetch_useful 0
Core_0_L1I_prefetch_useless 0
Core_0_L1I_prefetch_late 0
Core_0_L1I_prefetch_accuracy 0
Core_0_L1I_prefetch_coverage 0

Core_0_L1D_total_access 26570026
Core_0_L1D_total_hit 24259047
Core_0_L1D_total_miss 2310979
Core_0_L1D_total_MPKI 23.1098
Core_0_L1D_total_miss_rate 0.0869769
Core_0_L1D_demand_access 17376813
Core_0_L1D_demand_hit 15623337
Core_0_L1D_demand_miss 1753476
Core_0_L1D_demand_MPKI 17.5348
Core_0_L1D_demand_miss_rate 0.100909
Core_0_L1D_load_access 17376813
Core_0_L1D_load_hit 15623337
Core_0_L1D_load_miss 1753476
Core_0_L1D_load_MPKI 17.5348
Core_0_L1D_load_miss_rate 0.100909
Core_0_L1D_rfo_access 0
Core_0_L1D_rfo_hit 0
Core_0_L1D_rfo_miss 0
Core_0_L1D_rfo_MPKI 0
Core_0_L1D_rfo_miss_rate 0
Core_0_L1D_prefetch_access 0
Core_0_L1D_prefetch_hit 0
Core_0_L1D_prefetch_miss 0
Core_0_L1D_prefetch_MPKI 0
Core_0_L1D_prefetch_miss_rate 0
Core_0_L1D_writeback_access 9193213
Core_0_L1D_writeback_hit 8635710
Core_0_L1D_writeback_miss 557503
Core_0_L1D_writeback_MPKI 5.57503
Core_0_L1D_writeback_miss_rate 0.0606429
Core_0_L1D_prefetch_requested 0
Core_0_L1D_prefetch_issued 0
Core_0_L1D_prefetch_useful 0
Core_0_L1D_prefetch_useless 0
Core_0_L1D_prefetch_late 0
Core_0_L1D_prefetch_accuracy 0
Core_0_L1D_prefetch_coverage 0

Core_0_L2C_total_access 1367235
Core_0_L2C_total_hit 409629
Core_0_L2C_total_miss 957606
Core_0_L2C_total_MPKI 9.57606
Core_0_L2C_total_miss_rate 0.700396
Core_0_L2C_demand_access 1097420
Core_0_L2C_demand_hit 139837
Core_0_L2C_demand_miss 957583
Core_0_L2C_demand_MPKI 9.57583
Core_0_L2C_demand_miss_rate 0.872577
Core_0_L2C_load_access 1044452
Core_0_L2C_load_hit 136895
Core_0_L2C_load_miss 907557
Core_0_L2C_load_MPKI 9.07557
Core_0_L2C_load_miss_rate 0.868931
Core_0_L2C_rfo_access 52968
Core_0_L2C_rfo_hit 2942
Core_0_L2C_rfo_miss 50026
Core_0_L2C_rfo_MPKI 0.50026
Core_0_L2C_rfo_miss_rate 0.944457
Core_0_L2C_prefetch_access 0
Core_0_L2C_prefetch_hit 0
Core_0_L2C_prefetch_miss 0
Core_0_L2C_prefetch_MPKI 0
Core_0_L2C_prefetch_miss_rate 0
Core_0_L2C_writeback_access 269815
Core_0_L2C_writeback_hit 269792
Core_0_L2C_writeback_miss 23
Core_0_L2C_writeback_MPKI 0.00023
Core_0_L2C_writeback_miss_rate 8.52436e-05
Core_0_L2C_prefetch_requested 0
Core_0_L2C_prefetch_issued 0
Core_0_L2C_prefetch_useful 0
Core_0_L2C_prefetch_useless 0
Core_0_L2C_prefetch_late 0
Core_0_L2C_prefetch_accuracy 0
Core_0_L2C_prefetch_coverage 0

Core_0_LLC_total_access 1103633
Core_0_LLC_total_hit 216804
Core_0_LLC_total_miss 886829
Core_0_LLC_total_MPKI 8.86829
Core_0_LLC_total_miss_rate 0.803554
Core_0_LLC_demand_access 957583
Core_0_LLC_demand_hit 97425
Core_0_LLC_demand_miss 860158
Core_0_LLC_demand_MPKI 8.60158
Core_0_LLC_demand_miss_rate 0.898259
Core_0_LLC_load_access 907557
Core_0_LLC_load_hit 96611
Core_0_LLC_load_miss 810946
Core_0_LLC_load_MPKI 8.10946
Core_0_LLC_load_miss_rate 0.893548
Core_0_LLC_rfo_access 50026
Core_0_LLC_rfo_hit 814
Core_0_LLC_rfo_miss 49212
Core_0_LLC_rfo_MPKI 0.49212
Core_0_LLC_rfo_miss_rate 0.983728
Core_0_LLC_prefetch_access 0
Core_0_LLC_prefetch_hit 0
Core_0_LLC_prefetch_miss 0
Core_0_LLC_prefetch_MPKI 0
Core_0_LLC_prefetch_miss_rate 0
Core_0_LLC_writeback_access 146050
Core_0_LLC_writeback_hit 119379
Core_0_LLC_writeback_miss 26671
Core_0_LLC_writeback_MPKI 0.26671
Core_0_LLC_writeback_miss_rate 0.182616
Core_0_LLC_prefetch_requested 0
Core_0_LLC_prefetch_issued 0
Core_0_LLC_prefetch_useful 0
Core_0_LLC_prefetch_useless 0
Core_0_LLC_prefetch_late 0
Core_0_LLC_prefetch_accuracy 0
Core_0_LLC_prefetch_coverage 0

[DRAM Statistics]
Channel_0_RQ_row_buffer_hit 27194
Channel_0_RQ_row_buffer_miss 880868
Channel_0_WQ_row_buffer_hit 4808
Channel_0_WQ_row_buffer_miss 65725
Channel_0_WQ_full 0
Channel_0_dbus_congested 1789099
DRAM_total_RQ_row_buffer_hit 27194
DRAM_total_RQ_row_buffer_miss 880868
DRAM_total_WQ_row_buffer_hit 4808
DRAM_total_WQ_row_buffer_miss 65725
DRAM_total_WQ_full 0
DRAM_total_dbus_congested 1789099
DRAM_avg_congested_cycle 4.20206

====== DRAM_RQ_TRAFFIC ========
DRAM_RQ_READ_TRAFFIC_BREAKDOWN:
data_demand_read.count = 860152
data_demand_read.share = 94.72%

inst_demand_read.count = 6
inst_demand_read.share = 0.00%

cache_inst_prefetch.count = 0
cache_inst_prefetch.share = 0.00%

cache_data_prefetch.count = 0
cache_data_prefetch.share = 0.00%

stlb_data_demand.count = 47902
stlb_data_demand.share = 5.28%

stlb_inst_demand.count = 2
stlb_inst_demand.share = 0.00%

stlb_l1i_pref.count = 0
stlb_l1i_pref.share = 0.00%

stlb_l1d_pref.count = 0
stlb_l1d_pref.share = 0.00%

DRAM_RQ_READ_TRAFFIC_SUMMARY:
cache_demand.count = 860158
cache_demand.share = 94.72%

cache_prefetch.count = 0
cache_prefetch.share = 0.00%

stlb_demand.count = 47904
stlb_demand.share = 5.28%

stlb_prefetch.count = 0
stlb_prefetch.share = 0.00%

DRAM_RQ_READ_TRAFFIC_DEBUG:
total_classified_read.count = 908062
unclassified_read.count = 0
total_read_with_other.count = 908062

classified_plus_unclassified_check.count = 908062
dram_rq_read_total_observed.count = 908062
dram_rq_read_total_observed.per_1K_instructions = 9.08062

STLB_MISS_PTW_DRAM_TOUCH_BREAKDOWN:
stlb_miss_total.count = 388131

stlb_miss_touch_dram.count = 48418
stlb_miss_touch_dram.share = 12.47%

stlb_miss_no_dram_touch.count = 339713
stlb_miss_no_dram_touch.share = 87.53%

STLB_MISS_PTW_DRAM_TOUCH_DEBUG:
stlb_miss_touch_plus_no_touch.count = 388131
stlb_miss_total_check.count = 388131

======STLB miss causes ========
Core_0_STLB_miss_cause_breakdown
Core_0_STLB_cause_Demand_Data_miss 388130
Core_0_STLB_cause_Demand_Data_miss_rate 0.953407
Core_0_STLB_cause_Demand_Instruction_miss 1
Core_0_STLB_cause_Demand_Instruction_miss_rate 2.45641e-06
Core_0_STLB_cause_L1D_Prefetch_miss 0
Core_0_STLB_cause_L1D_Prefetch_miss_rate 0
Core_0_STLB_cause_L1I_Prefetch_miss 0
Core_0_STLB_cause_L1I_Prefetch_miss_rate 0
Core_0_STLB_cause_Other_miss 0
Core_0_STLB_cause_Other_miss_rate 0
Core_0_STLB_Demand_miss 388131
Core_0_STLB_Demand_miss_rate 0.953409
Core_0_STLB_L1D_Prefetch_miss 0
Core_0_STLB_L1D_Prefetch_miss_rate 0
Core_0_STLB_Other_miss 0
Core_0_STLB_Other_miss_rate 0
