[VMEM] WARNING: physical memory size is smaller than virtual memory size.

*** ChampSim Multicore Out-of-Order Simulator ***
Warmup Instructions: 50000000
Simulation Instructions: 100000000
Number of CPUs: 1
Page size: 4096
Core 0: /data2/zcq/champsim_traces_xsbench/xs.XXL100nuclide-30B.champsimtrace.xz
Off-chip DRAM Size: 16 GiB Channels: 1 Width: 64-bit Data Rate: 3205 MT/s
Warmup halting CPU 0 at instruction 50000005 cycle 12604143 for remainder of phase
Warmup finished CPU 0 instructions: 50000005 cycles: 12604143 cumulative IPC: 3.967 (Simulation time: 00 hr 02 min 05 sec)
Warmup complete CPU 0 instructions: 50000005 cycles: 12604143 cumulative IPC: 3.967 (Simulation time: 00 hr 02 min 05 sec)
Simulation finished CPU 0 instructions: 100000005 cycles: 212221964 cumulative IPC: 0.4712 (Simulation time: 00 hr 17 min 03 sec)
Simulation complete CPU 0 instructions: 100000005 cycles: 212221964 cumulative IPC: 0.4712 (Simulation time: 00 hr 17 min 03 sec)

ChampSim completed all CPUs

=== Simulation ===
CPU 0 runs /data2/zcq/champsim_traces_xsbench/xs.XXL100nuclide-30B.champsimtrace.xz

Region of Interest Statistics

CPU 0 cumulative IPC: 0.4712 instructions: 100000005 cycles: 212221964
CPU 0 Branch Prediction Accuracy: 92.65% MPKI: 17.9 Average ROB Occupancy at Mispredict: 30.88
Branch type MPKI
BRANCH_DIRECT_JUMP: 0
BRANCH_INDIRECT: 0
BRANCH_CONDITIONAL: 17.9
BRANCH_DIRECT_CALL: 0
BRANCH_INDIRECT_CALL: 0
BRANCH_RETURN: 0.00076

cpu0->cpu0_STLB TOTAL        ACCESS:     909225 HIT:     780284 MISS:     128941 MSHR_MERGE:          0
cpu0->cpu0_STLB LOAD         ACCESS:     909225 HIT:     780284 MISS:     128941 MSHR_MERGE:          0
cpu0->cpu0_STLB RFO          ACCESS:          0 HIT:          0 MISS:          0 MSHR_MERGE:          0
cpu0->cpu0_STLB PREFETCH     ACCESS:          0 HIT:          0 MISS:          0 MSHR_MERGE:          0
cpu0->cpu0_STLB WRITE        ACCESS:          0 HIT:          0 MISS:          0 MSHR_MERGE:          0
cpu0->cpu0_STLB TRANSLATION  ACCESS:          0 HIT:          0 MISS:          0 MSHR_MERGE:          0
cpu0->cpu0_STLB PREFETCH REQUESTED:          0 ISSUED:          0 USEFUL:          0 USELESS:          0 LATE:          0
cpu0->cpu0_STLB AVERAGE MISS LATENCY: 23.33 cycles
cpu0->cpu0_L2C TOTAL        ACCESS:    3063799 HIT:    1519590 MISS:    1544209 MSHR_MERGE:          0
cpu0->cpu0_L2C LOAD         ACCESS:    2242536 HIT:     869197 MISS:    1373339 MSHR_MERGE:          0
cpu0->cpu0_L2C RFO          ACCESS:     293928 HIT:     125072 MISS:     168856 MSHR_MERGE:          0
cpu0->cpu0_L2C PREFETCH     ACCESS:          0 HIT:          0 MISS:          0 MSHR_MERGE:          0
cpu0->cpu0_L2C WRITE        ACCESS:     455150 HIT:     455097 MISS:         53 MSHR_MERGE:          0
cpu0->cpu0_L2C TRANSLATION  ACCESS:      72185 HIT:      70224 MISS:       1961 MSHR_MERGE:          0
cpu0->cpu0_L2C PREFETCH REQUESTED:          0 ISSUED:          0 USEFUL:          0 USELESS:          0 LATE:          0
cpu0->cpu0_L2C AVERAGE MISS LATENCY: 150.7 cycles
cpu0->cpu0_L1I TOTAL        ACCESS:    1432855 HIT:    1432855 MISS:          0 MSHR_MERGE:          0
cpu0->cpu0_L1I LOAD         ACCESS:    1432855 HIT:    1432855 MISS:          0 MSHR_MERGE:          0
cpu0->cpu0_L1I RFO          ACCESS:          0 HIT:          0 MISS:          0 MSHR_MERGE:          0
cpu0->cpu0_L1I PREFETCH     ACCESS:          0 HIT:          0 MISS:          0 MSHR_MERGE:          0
cpu0->cpu0_L1I WRITE        ACCESS:          0 HIT:          0 MISS:          0 MSHR_MERGE:          0
cpu0->cpu0_L1I TRANSLATION  ACCESS:          0 HIT:          0 MISS:          0 MSHR_MERGE:          0
cpu0->cpu0_L1I PREFETCH REQUESTED:          0 ISSUED:          0 USEFUL:          0 USELESS:          0 LATE:          0
cpu0->cpu0_L1I AVERAGE MISS LATENCY: - cycles
cpu0->cpu0_L1D TOTAL        ACCESS:   36627754 HIT:   32838888 MISS:    3788866 MSHR_MERGE:    1180214
cpu0->cpu0_L1D LOAD         ACCESS:   23873103 HIT:   20972981 MISS:    2900122 MSHR_MERGE:     657586
cpu0->cpu0_L1D RFO          ACCESS:          0 HIT:          0 MISS:          0 MSHR_MERGE:          0
cpu0->cpu0_L1D PREFETCH     ACCESS:          0 HIT:          0 MISS:          0 MSHR_MERGE:          0
cpu0->cpu0_L1D WRITE        ACCESS:   12496839 HIT:   11680332 MISS:     816507 MSHR_MERGE:     522576
cpu0->cpu0_L1D TRANSLATION  ACCESS:     257812 HIT:     185575 MISS:      72237 MSHR_MERGE:         52
cpu0->cpu0_L1D PREFETCH REQUESTED:          0 ISSUED:          0 USEFUL:          0 USELESS:          0 LATE:          0
cpu0->cpu0_L1D AVERAGE MISS LATENCY: 97.85 cycles
cpu0->cpu0_ITLB TOTAL        ACCESS:    1356984 HIT:    1356984 MISS:          0 MSHR_MERGE:          0
cpu0->cpu0_ITLB LOAD         ACCESS:    1356984 HIT:    1356984 MISS:          0 MSHR_MERGE:          0
cpu0->cpu0_ITLB RFO          ACCESS:          0 HIT:          0 MISS:          0 MSHR_MERGE:          0
cpu0->cpu0_ITLB PREFETCH     ACCESS:          0 HIT:          0 MISS:          0 MSHR_MERGE:          0
cpu0->cpu0_ITLB WRITE        ACCESS:          0 HIT:          0 MISS:          0 MSHR_MERGE:          0
cpu0->cpu0_ITLB TRANSLATION  ACCESS:          0 HIT:          0 MISS:          0 MSHR_MERGE:          0
cpu0->cpu0_ITLB PREFETCH REQUESTED:          0 ISSUED:          0 USEFUL:          0 USELESS:          0 LATE:          0
cpu0->cpu0_ITLB AVERAGE MISS LATENCY: - cycles
cpu0->cpu0_DTLB TOTAL        ACCESS:   35381956 HIT:   34382118 MISS:     999838 MSHR_MERGE:      90613
cpu0->cpu0_DTLB LOAD         ACCESS:   35381956 HIT:   34382118 MISS:     999838 MSHR_MERGE:      90613
cpu0->cpu0_DTLB RFO          ACCESS:          0 HIT:          0 MISS:          0 MSHR_MERGE:          0
cpu0->cpu0_DTLB PREFETCH     ACCESS:          0 HIT:          0 MISS:          0 MSHR_MERGE:          0
cpu0->cpu0_DTLB WRITE        ACCESS:          0 HIT:          0 MISS:          0 MSHR_MERGE:          0
cpu0->cpu0_DTLB TRANSLATION  ACCESS:          0 HIT:          0 MISS:          0 MSHR_MERGE:          0
cpu0->cpu0_DTLB PREFETCH REQUESTED:          0 ISSUED:          0 USEFUL:          0 USELESS:          0 LATE:          0
cpu0->cpu0_DTLB AVERAGE MISS LATENCY: 8.458 cycles
cpu0->LLC TOTAL        ACCESS:    1827281 HIT:     750142 MISS:    1077139 MSHR_MERGE:          0
cpu0->LLC LOAD         ACCESS:    1373339 HIT:     480156 MISS:     893183 MSHR_MERGE:          0
cpu0->LLC RFO          ACCESS:     168856 HIT:      72391 MISS:      96465 MSHR_MERGE:          0
cpu0->LLC PREFETCH     ACCESS:          0 HIT:          0 MISS:          0 MSHR_MERGE:          0
cpu0->LLC WRITE        ACCESS:     283125 HIT:     197491 MISS:      85634 MSHR_MERGE:          0
cpu0->LLC TRANSLATION  ACCESS:       1961 HIT:        104 MISS:       1857 MSHR_MERGE:          0
cpu0->LLC PREFETCH REQUESTED:          0 ISSUED:          0 USEFUL:          0 USELESS:          0 LATE:          0
cpu0->LLC AVERAGE MISS LATENCY: 194.3 cycles

DRAM Statistics

Channel 0 RQ ROW_BUFFER_HIT:      13522
  ROW_BUFFER_MISS:     977378
  AVG DBUS CONGESTED CYCLE: 13.01
Channel 0 WQ ROW_BUFFER_HIT:      38603
  ROW_BUFFER_MISS:     123182
  FULL:         79
Channel 0 REFRESHES ISSUED:      17685

[ROI Statistics]
[System Configuration]
num_cpus 1
cpu_freq 4000
fetch_width 6
decode_width 6
dispatch_width 6
execute_width 6
lq_width 2
sq_width 2
retire_width 6
scheduler_size 128
branch_mispredict_penalty 15
rob_size 352
lq_size 128
sq_size 72
ifetch_buffer_size 64
decode_buffer_size 32
dispatch_buffer_size 32
register_file_size 288
decode_latency 1
dispatch_latency 1
schedule_latency 1
execute_latency 1
page_size 4096
block_size 64
core_0_itlb_set 16
core_0_itlb_way 4
core_0_itlb_rq_size 16
core_0_itlb_wq_size 16
core_0_itlb_pq_size 0
core_0_itlb_mshr_size 8
core_0_itlb_hit_latency 1
core_0_itlb_fill_latency 1
core_0_itlb_max_tag_check 2
core_0_itlb_max_fill 2
core_0_dtlb_set 16
core_0_dtlb_way 4
core_0_dtlb_rq_size 16
core_0_dtlb_wq_size 16
core_0_dtlb_pq_size 0
core_0_dtlb_mshr_size 8
core_0_dtlb_hit_latency 1
core_0_dtlb_fill_latency 1
core_0_dtlb_max_tag_check 2
core_0_dtlb_max_fill 2
core_0_stlb_set 128
core_0_stlb_way 12
core_0_stlb_rq_size 32
core_0_stlb_wq_size 32
core_0_stlb_pq_size 0
core_0_stlb_mshr_size 16
core_0_stlb_hit_latency 4
core_0_stlb_fill_latency 4
core_0_stlb_max_tag_check 1
core_0_stlb_max_fill 1
core_0_l1i_set 64
core_0_l1i_way 8
core_0_l1i_rq_size 64
core_0_l1i_wq_size 64
core_0_l1i_pq_size 32
core_0_l1i_mshr_size 8
core_0_l1i_hit_latency 2
core_0_l1i_fill_latency 2
core_0_l1i_max_tag_check 2
core_0_l1i_max_fill 2
core_0_l1d_set 64
core_0_l1d_way 12
core_0_l1d_rq_size 64
core_0_l1d_wq_size 64
core_0_l1d_pq_size 8
core_0_l1d_mshr_size 16
core_0_l1d_hit_latency 2
core_0_l1d_fill_latency 3
core_0_l1d_max_tag_check 2
core_0_l1d_max_fill 2
core_0_l2c_set 1024
core_0_l2c_way 8
core_0_l2c_rq_size 32
core_0_l2c_wq_size 32
core_0_l2c_pq_size 16
core_0_l2c_mshr_size 32
core_0_l2c_hit_latency 5
core_0_l2c_fill_latency 5
core_0_l2c_max_tag_check 1
core_0_l2c_max_fill 1
llc_set 2048
llc_way 16
llc_rq_size 32
llc_wq_size 32
llc_pq_size 32
llc_mshr_size 64
llc_hit_latency 10
llc_fill_latency 10
llc_max_tag_check 1
llc_max_fill 1
dram_channels 1
dram_ranks 1
dram_bankgroups 8
dram_banks 4
dram_rows 65536
dram_columns 1024
dram_channel_width 8
dram_rq_size 64
dram_wq_size 64
dram_size 17179869184
core_0_itlb_prefetcher no
core_0_dtlb_prefetcher no
core_0_stlb_prefetcher no
core_0_l1i_prefetcher no
core_0_l1d_prefetcher no
core_0_l2c_prefetcher no
llc_prefetcher no
llc_replacement drrip

Core_0_instructions 100000005
Core_0_cycles 212221964
Core_0_IPC 0.471205
Core_0_branch_prediction_accuracy 92.6505
Core_0_branch_MPKI 17.9019
Core_0_average_ROB_occupancy_at_mispredict 30.8794

Core_0_ITLB_total_access 1356984
Core_0_ITLB_total_hit 1356984
Core_0_ITLB_total_miss 0
Core_0_ITLB_total_MPKI 0
Core_0_ITLB_total_miss_rate 0
Core_0_ITLB_demand_access 1356984
Core_0_ITLB_demand_hit 1356984
Core_0_ITLB_demand_miss 0
Core_0_ITLB_demand_MPKI 0
Core_0_ITLB_demand_miss_rate 0
Core_0_ITLB_load_access 1356984
Core_0_ITLB_load_hit 1356984
Core_0_ITLB_load_miss 0
Core_0_ITLB_load_MPKI 0
Core_0_ITLB_load_miss_rate 0
Core_0_ITLB_rfo_access 0
Core_0_ITLB_rfo_hit 0
Core_0_ITLB_rfo_miss 0
Core_0_ITLB_rfo_MPKI 0
Core_0_ITLB_rfo_miss_rate 0
Core_0_ITLB_prefetch_access 0
Core_0_ITLB_prefetch_hit 0
Core_0_ITLB_prefetch_miss 0
Core_0_ITLB_prefetch_MPKI 0
Core_0_ITLB_prefetch_miss_rate 0
Core_0_ITLB_writeback_access 0
Core_0_ITLB_writeback_hit 0
Core_0_ITLB_writeback_miss 0
Core_0_ITLB_writeback_MPKI 0
Core_0_ITLB_writeback_miss_rate 0
Core_0_ITLB_prefetch_requested 0
Core_0_ITLB_prefetch_issued 0
Core_0_ITLB_prefetch_useful 0
Core_0_ITLB_prefetch_useless 0
Core_0_ITLB_prefetch_late 0
Core_0_ITLB_prefetch_accuracy 0
Core_0_ITLB_prefetch_coverage 0

Core_0_DTLB_total_access 35381956
Core_0_DTLB_total_hit 34382118
Core_0_DTLB_total_miss 999838
Core_0_DTLB_total_MPKI 9.99838
Core_0_DTLB_total_miss_rate 0.0282584
Core_0_DTLB_demand_access 35381956
Core_0_DTLB_demand_hit 34382118
Core_0_DTLB_demand_miss 999838
Core_0_DTLB_demand_MPKI 9.99838
Core_0_DTLB_demand_miss_rate 0.0282584
Core_0_DTLB_load_access 35381956
Core_0_DTLB_load_hit 34382118
Core_0_DTLB_load_miss 999838
Core_0_DTLB_load_MPKI 9.99838
Core_0_DTLB_load_miss_rate 0.0282584
Core_0_DTLB_rfo_access 0
Core_0_DTLB_rfo_hit 0
Core_0_DTLB_rfo_miss 0
Core_0_DTLB_rfo_MPKI 0
Core_0_DTLB_rfo_miss_rate 0
Core_0_DTLB_prefetch_access 0
Core_0_DTLB_prefetch_hit 0
Core_0_DTLB_prefetch_miss 0
Core_0_DTLB_prefetch_MPKI 0
Core_0_DTLB_prefetch_miss_rate 0
Core_0_DTLB_writeback_access 0
Core_0_DTLB_writeback_hit 0
Core_0_DTLB_writeback_miss 0
Core_0_DTLB_writeback_MPKI 0
Core_0_DTLB_writeback_miss_rate 0
Core_0_DTLB_prefetch_requested 0
Core_0_DTLB_prefetch_issued 0
Core_0_DTLB_prefetch_useful 0
Core_0_DTLB_prefetch_useless 0
Core_0_DTLB_prefetch_late 0
Core_0_DTLB_prefetch_accuracy 0
Core_0_DTLB_prefetch_coverage 0

Core_0_STLB_total_access 909225
Core_0_STLB_total_hit 780284
Core_0_STLB_total_miss 128941
Core_0_STLB_total_MPKI 1.28941
Core_0_STLB_total_miss_rate 0.141814
Core_0_STLB_demand_access 909225
Core_0_STLB_demand_hit 780284
Core_0_STLB_demand_miss 128941
Core_0_STLB_demand_MPKI 1.28941
Core_0_STLB_demand_miss_rate 0.141814
Core_0_STLB_load_access 909225
Core_0_STLB_load_hit 780284
Core_0_STLB_load_miss 128941
Core_0_STLB_load_MPKI 1.28941
Core_0_STLB_load_miss_rate 0.141814
Core_0_STLB_rfo_access 0
Core_0_STLB_rfo_hit 0
Core_0_STLB_rfo_miss 0
Core_0_STLB_rfo_MPKI 0
Core_0_STLB_rfo_miss_rate 0
Core_0_STLB_prefetch_access 0
Core_0_STLB_prefetch_hit 0
Core_0_STLB_prefetch_miss 0
Core_0_STLB_prefetch_MPKI 0
Core_0_STLB_prefetch_miss_rate 0
Core_0_STLB_writeback_access 0
Core_0_STLB_writeback_hit 0
Core_0_STLB_writeback_miss 0
Core_0_STLB_writeback_MPKI 0
Core_0_STLB_writeback_miss_rate 0
Core_0_STLB_prefetch_requested 0
Core_0_STLB_prefetch_issued 0
Core_0_STLB_prefetch_useful 0
Core_0_STLB_prefetch_useless 0
Core_0_STLB_prefetch_late 0
Core_0_STLB_prefetch_accuracy 0
Core_0_STLB_prefetch_coverage 0

Core_0_L1I_total_access 1432855
Core_0_L1I_total_hit 1432855
Core_0_L1I_total_miss 0
Core_0_L1I_total_MPKI 0
Core_0_L1I_total_miss_rate 0
Core_0_L1I_demand_access 1432855
Core_0_L1I_demand_hit 1432855
Core_0_L1I_demand_miss 0
Core_0_L1I_demand_MPKI 0
Core_0_L1I_demand_miss_rate 0
Core_0_L1I_load_access 1432855
Core_0_L1I_load_hit 1432855
Core_0_L1I_load_miss 0
Core_0_L1I_load_MPKI 0
Core_0_L1I_load_miss_rate 0
Core_0_L1I_rfo_access 0
Core_0_L1I_rfo_hit 0
Core_0_L1I_rfo_miss 0
Core_0_L1I_rfo_MPKI 0
Core_0_L1I_rfo_miss_rate 0
Core_0_L1I_prefetch_access 0
Core_0_L1I_prefetch_hit 0
Core_0_L1I_prefetch_miss 0
Core_0_L1I_prefetch_MPKI 0
Core_0_L1I_prefetch_miss_rate 0
Core_0_L1I_writeback_access 0
Core_0_L1I_writeback_hit 0
Core_0_L1I_writeback_miss 0
Core_0_L1I_writeback_MPKI 0
Core_0_L1I_writeback_miss_rate 0
Core_0_L1I_prefetch_requested 0
Core_0_L1I_prefetch_issued 0
Core_0_L1I_prefetch_useful 0
Core_0_L1I_prefetch_useless 0
Core_0_L1I_prefetch_late 0
Core_0_L1I_prefetch_accuracy 0
Core_0_L1I_prefetch_coverage 0

Core_0_L1D_total_access 36369942
Core_0_L1D_total_hit 32653313
Core_0_L1D_total_miss 3716629
Core_0_L1D_total_MPKI 37.1663
Core_0_L1D_total_miss_rate 0.10219
Core_0_L1D_demand_access 23873103
Core_0_L1D_demand_hit 20972981
Core_0_L1D_demand_miss 2900122
Core_0_L1D_demand_MPKI 29.0012
Core_0_L1D_demand_miss_rate 0.121481
Core_0_L1D_load_access 23873103
Core_0_L1D_load_hit 20972981
Core_0_L1D_load_miss 2900122
Core_0_L1D_load_MPKI 29.0012
Core_0_L1D_load_miss_rate 0.121481
Core_0_L1D_rfo_access 0
Core_0_L1D_rfo_hit 0
Core_0_L1D_rfo_miss 0
Core_0_L1D_rfo_MPKI 0
Core_0_L1D_rfo_miss_rate 0
Core_0_L1D_prefetch_access 0
Core_0_L1D_prefetch_hit 0
Core_0_L1D_prefetch_miss 0
Core_0_L1D_prefetch_MPKI 0
Core_0_L1D_prefetch_miss_rate 0
Core_0_L1D_writeback_access 12496839
Core_0_L1D_writeback_hit 11680332
Core_0_L1D_writeback_miss 816507
Core_0_L1D_writeback_MPKI 8.16507
Core_0_L1D_writeback_miss_rate 0.0653371
Core_0_L1D_prefetch_requested 0
Core_0_L1D_prefetch_issued 0
Core_0_L1D_prefetch_useful 0
Core_0_L1D_prefetch_useless 0
Core_0_L1D_prefetch_late 0
Core_0_L1D_prefetch_accuracy 0
Core_0_L1D_prefetch_coverage 0

Core_0_L2C_total_access 2991614
Core_0_L2C_total_hit 1449366
Core_0_L2C_total_miss 1542248
Core_0_L2C_total_MPKI 15.4225
Core_0_L2C_total_miss_rate 0.515524
Core_0_L2C_demand_access 2536464
Core_0_L2C_demand_hit 994269
Core_0_L2C_demand_miss 1542195
Core_0_L2C_demand_MPKI 15.4219
Core_0_L2C_demand_miss_rate 0.60801
Core_0_L2C_load_access 2242536
Core_0_L2C_load_hit 869197
Core_0_L2C_load_miss 1373339
Core_0_L2C_load_MPKI 13.7334
Core_0_L2C_load_miss_rate 0.612404
Core_0_L2C_rfo_access 293928
Core_0_L2C_rfo_hit 125072
Core_0_L2C_rfo_miss 168856
Core_0_L2C_rfo_MPKI 1.68856
Core_0_L2C_rfo_miss_rate 0.574481
Core_0_L2C_prefetch_access 0
Core_0_L2C_prefetch_hit 0
Core_0_L2C_prefetch_miss 0
Core_0_L2C_prefetch_MPKI 0
Core_0_L2C_prefetch_miss_rate 0
Core_0_L2C_writeback_access 455150
Core_0_L2C_writeback_hit 455097
Core_0_L2C_writeback_miss 53
Core_0_L2C_writeback_MPKI 0.00053
Core_0_L2C_writeback_miss_rate 0.000116445
Core_0_L2C_prefetch_requested 0
Core_0_L2C_prefetch_issued 0
Core_0_L2C_prefetch_useful 0
Core_0_L2C_prefetch_useless 0
Core_0_L2C_prefetch_late 0
Core_0_L2C_prefetch_accuracy 0
Core_0_L2C_prefetch_coverage 0

Core_0_LLC_total_access 1825320
Core_0_LLC_total_hit 750038
Core_0_LLC_total_miss 1075282
Core_0_LLC_total_MPKI 10.7528
Core_0_LLC_total_miss_rate 0.589092
Core_0_LLC_demand_access 1542195
Core_0_LLC_demand_hit 552547
Core_0_LLC_demand_miss 989648
Core_0_LLC_demand_MPKI 9.89648
Core_0_LLC_demand_miss_rate 0.641714
Core_0_LLC_load_access 1373339
Core_0_LLC_load_hit 480156
Core_0_LLC_load_miss 893183
Core_0_LLC_load_MPKI 8.93183
Core_0_LLC_load_miss_rate 0.650373
Core_0_LLC_rfo_access 168856
Core_0_LLC_rfo_hit 72391
Core_0_LLC_rfo_miss 96465
Core_0_LLC_rfo_MPKI 0.96465
Core_0_LLC_rfo_miss_rate 0.571286
Core_0_LLC_prefetch_access 0
Core_0_LLC_prefetch_hit 0
Core_0_LLC_prefetch_miss 0
Core_0_LLC_prefetch_MPKI 0
Core_0_LLC_prefetch_miss_rate 0
Core_0_LLC_writeback_access 283125
Core_0_LLC_writeback_hit 197491
Core_0_LLC_writeback_miss 85634
Core_0_LLC_writeback_MPKI 0.85634
Core_0_LLC_writeback_miss_rate 0.30246
Core_0_LLC_prefetch_requested 0
Core_0_LLC_prefetch_issued 0
Core_0_LLC_prefetch_useful 0
Core_0_LLC_prefetch_useless 0
Core_0_LLC_prefetch_late 0
Core_0_LLC_prefetch_accuracy 0
Core_0_LLC_prefetch_coverage 0

[DRAM Statistics]
Channel_0_RQ_row_buffer_hit 13522
Channel_0_RQ_row_buffer_miss 977378
Channel_0_WQ_row_buffer_hit 38603
Channel_0_WQ_row_buffer_miss 123182
Channel_0_WQ_full 79
Channel_0_dbus_congested 2459942
DRAM_total_RQ_row_buffer_hit 13522
DRAM_total_RQ_row_buffer_miss 977378
DRAM_total_WQ_row_buffer_hit 38603
DRAM_total_WQ_row_buffer_miss 123182
DRAM_total_WQ_full 79
DRAM_total_dbus_congested 2459942
DRAM_avg_congested_cycle 13.0101

====== DRAM_RQ_TRAFFIC ========
DRAM_RQ_READ_TRAFFIC_BREAKDOWN:
data_demand_read.count = 989648
data_demand_read.share = 99.81%

inst_demand_read.count = 0
inst_demand_read.share = 0.00%

cache_inst_prefetch.count = 0
cache_inst_prefetch.share = 0.00%

cache_data_prefetch.count = 0
cache_data_prefetch.share = 0.00%

stlb_data_demand.count = 1857
stlb_data_demand.share = 0.19%

stlb_inst_demand.count = 0
stlb_inst_demand.share = 0.00%

stlb_l1i_pref.count = 0
stlb_l1i_pref.share = 0.00%

stlb_l1d_pref.count = 0
stlb_l1d_pref.share = 0.00%

DRAM_RQ_READ_TRAFFIC_SUMMARY:
cache_demand.count = 989648
cache_demand.share = 99.81%

cache_prefetch.count = 0
cache_prefetch.share = 0.00%

stlb_demand.count = 1857
stlb_demand.share = 0.19%

stlb_prefetch.count = 0
stlb_prefetch.share = 0.00%

DRAM_RQ_READ_TRAFFIC_DEBUG:
total_classified_read.count = 991505
unclassified_read.count = 0
total_read_with_other.count = 991505

classified_plus_unclassified_check.count = 991505
dram_rq_read_total_observed.count = 991505
dram_rq_read_total_observed.per_1K_instructions = 9.91505

STLB_MISS_PTW_DRAM_TOUCH_BREAKDOWN:
stlb_miss_total.count = 128941

stlb_miss_touch_dram.count = 1853
stlb_miss_touch_dram.share = 1.44%

stlb_miss_no_dram_touch.count = 127088
stlb_miss_no_dram_touch.share = 98.56%

STLB_MISS_PTW_DRAM_TOUCH_DEBUG:
stlb_miss_touch_plus_no_touch.count = 128941
stlb_miss_total_check.count = 128941

======STLB miss causes ========
Core_0_STLB_miss_cause_breakdown
Core_0_STLB_cause_Demand_Data_miss 128941
Core_0_STLB_cause_Demand_Data_miss_rate 0.141814
Core_0_STLB_cause_Demand_Instruction_miss 0
Core_0_STLB_cause_Demand_Instruction_miss_rate 0
Core_0_STLB_cause_L1D_Prefetch_miss 0
Core_0_STLB_cause_L1D_Prefetch_miss_rate 0
Core_0_STLB_cause_L1I_Prefetch_miss 0
Core_0_STLB_cause_L1I_Prefetch_miss_rate 0
Core_0_STLB_cause_Other_miss 0
Core_0_STLB_cause_Other_miss_rate 0
Core_0_STLB_Demand_miss 128941
Core_0_STLB_Demand_miss_rate 0.141814
Core_0_STLB_L1D_Prefetch_miss 0
Core_0_STLB_L1D_Prefetch_miss_rate 0
Core_0_STLB_Other_miss 0
Core_0_STLB_Other_miss_rate 0
