[VMEM] WARNING: physical memory size is smaller than virtual memory size.

*** ChampSim Multicore Out-of-Order Simulator ***
Warmup Instructions: 20000000
Simulation Instructions: 50000000
Number of CPUs: 1
Page size: 4096
STLB ideal mode: all
STLB ideal fill: on
Core 0: /data0/tzh/champsim_traces/SPEC06/433.milc-337B.champsimtrace.xz
VBerti Prefetcher
BERTI HASH ENTANGLING
BERTI IP MASK ffff
Off-chip DRAM Size: 16 GiB Channels: 1 Width: 64-bit Data Rate: 3205 MT/s
Warmup halting CPU 0 at instruction 20000002 cycle 4000024 for remainder of phase
Warmup finished CPU 0 instructions: 20000002 cycles: 4000024 cumulative IPC: 5 (Simulation time: 00 hr 00 min 55 sec)
Warmup complete CPU 0 instructions: 20000002 cycles: 4000024 cumulative IPC: 5 (Simulation time: 00 hr 00 min 55 sec)
Simulation finished CPU 0 instructions: 50000005 cycles: 31960417 cumulative IPC: 1.564 (Simulation time: 00 hr 06 min 41 sec)
Simulation complete CPU 0 instructions: 50000005 cycles: 31960417 cumulative IPC: 1.564 (Simulation time: 00 hr 06 min 41 sec)

ChampSim completed all CPUs

=== Simulation ===
CPU 0 runs /data0/tzh/champsim_traces/SPEC06/433.milc-337B.champsimtrace.xz

Region of Interest Statistics

CPU 0 cumulative IPC: 1.564 instructions: 50000005 cycles: 31960417
CPU 0 Branch Prediction Accuracy: 100% MPKI: 0.00042 Average ROB Occupancy at Mispredict: 50.1
Branch type MPKI
BRANCH_DIRECT_JUMP: 4e-05
BRANCH_INDIRECT: 0
BRANCH_CONDITIONAL: 0.00022
BRANCH_DIRECT_CALL: 8e-05
BRANCH_INDIRECT_CALL: 0
BRANCH_RETURN: 8e-05

cpu0->cpu0_STLB TOTAL        ACCESS:      79220 HIT:      79220 MISS:          0 MSHR_MERGE:          0
cpu0->cpu0_STLB LOAD         ACCESS:      79220 HIT:      79220 MISS:          0 MSHR_MERGE:          0
cpu0->cpu0_STLB RFO          ACCESS:          0 HIT:          0 MISS:          0 MSHR_MERGE:          0
cpu0->cpu0_STLB PREFETCH     ACCESS:          0 HIT:          0 MISS:          0 MSHR_MERGE:          0
cpu0->cpu0_STLB WRITE        ACCESS:          0 HIT:          0 MISS:          0 MSHR_MERGE:          0
cpu0->cpu0_STLB TRANSLATION  ACCESS:          0 HIT:          0 MISS:          0 MSHR_MERGE:          0
cpu0->cpu0_STLB PREFETCH REQUESTED:          0 ISSUED:          0 USEFUL:          0 USELESS:          0 LATE:          0
cpu0->cpu0_STLB AVERAGE MISS LATENCY: - cycles
cpu0->cpu0_L2C TOTAL        ACCESS:    2997251 HIT:    1027490 MISS:    1969761 MSHR_MERGE:     850702
cpu0->cpu0_L2C LOAD         ACCESS:     167181 HIT:     115672 MISS:      51509 MSHR_MERGE:      21706
cpu0->cpu0_L2C RFO          ACCESS:      24265 HIT:      21796 MISS:       2469 MSHR_MERGE:       1875
cpu0->cpu0_L2C PREFETCH     ACCESS:    2494464 HIT:     578682 MISS:    1915782 MSHR_MERGE:     827121
cpu0->cpu0_L2C WRITE        ACCESS:     311341 HIT:     311340 MISS:          1 MSHR_MERGE:          0
cpu0->cpu0_L2C TRANSLATION  ACCESS:          0 HIT:          0 MISS:          0 MSHR_MERGE:          0
cpu0->cpu0_L2C PREFETCH REQUESTED:     179734 ISSUED:     179722 USEFUL:      59591 USELESS:      11324 LATE:         58
cpu0->cpu0_L2C AVERAGE MISS LATENCY: 330.8 cycles
cpu0->cpu0_L1I TOTAL        ACCESS:    8083713 HIT:    8083699 MISS:         14 MSHR_MERGE:          2
cpu0->cpu0_L1I LOAD         ACCESS:    8083713 HIT:    8083699 MISS:         14 MSHR_MERGE:          2
cpu0->cpu0_L1I RFO          ACCESS:          0 HIT:          0 MISS:          0 MSHR_MERGE:          0
cpu0->cpu0_L1I PREFETCH     ACCESS:          0 HIT:          0 MISS:          0 MSHR_MERGE:          0
cpu0->cpu0_L1I WRITE        ACCESS:          0 HIT:          0 MISS:          0 MSHR_MERGE:          0
cpu0->cpu0_L1I TRANSLATION  ACCESS:          0 HIT:          0 MISS:          0 MSHR_MERGE:          0
cpu0->cpu0_L1I PREFETCH REQUESTED:          0 ISSUED:          0 USEFUL:          0 USELESS:          0 LATE:          0
cpu0->cpu0_L1I AVERAGE MISS LATENCY: 269.1 cycles
cpu0->cpu0_L1D TOTAL        ACCESS:   12712638 HIT:    9576760 MISS:    3135878 MSHR_MERGE:     577133
cpu0->cpu0_L1D LOAD         ACCESS:    5707820 HIT:    5044778 MISS:     663042 MSHR_MERGE:     495873
cpu0->cpu0_L1D RFO          ACCESS:          0 HIT:          0 MISS:          0 MSHR_MERGE:          0
cpu0->cpu0_L1D PREFETCH     ACCESS:    4805183 HIT:    2433966 MISS:    2371217 MSHR_MERGE:       3906
cpu0->cpu0_L1D WRITE        ACCESS:    2199635 HIT:    2098016 MISS:     101619 MSHR_MERGE:      77354
cpu0->cpu0_L1D TRANSLATION  ACCESS:          0 HIT:          0 MISS:          0 MSHR_MERGE:          0
cpu0->cpu0_L1D PREFETCH REQUESTED:   22985599 ISSUED:    4805183 USEFUL:     737766 USELESS:      30728 LATE:      54337
cpu0->cpu0_L1D AVERAGE MISS LATENCY: 145.4 cycles
cpu0->cpu0_ITLB TOTAL        ACCESS:    6790733 HIT:    6790732 MISS:          1 MSHR_MERGE:          0
cpu0->cpu0_ITLB LOAD         ACCESS:    6790733 HIT:    6790732 MISS:          1 MSHR_MERGE:          0
cpu0->cpu0_ITLB RFO          ACCESS:          0 HIT:          0 MISS:          0 MSHR_MERGE:          0
cpu0->cpu0_ITLB PREFETCH     ACCESS:          0 HIT:          0 MISS:          0 MSHR_MERGE:          0
cpu0->cpu0_ITLB WRITE        ACCESS:          0 HIT:          0 MISS:          0 MSHR_MERGE:          0
cpu0->cpu0_ITLB TRANSLATION  ACCESS:          0 HIT:          0 MISS:          0 MSHR_MERGE:          0
cpu0->cpu0_ITLB PREFETCH REQUESTED:          0 ISSUED:          0 USEFUL:          0 USELESS:          0 LATE:          0
cpu0->cpu0_ITLB AVERAGE MISS LATENCY: 5 cycles
cpu0->cpu0_DTLB TOTAL        ACCESS:   11110868 HIT:   11015012 MISS:      95856 MSHR_MERGE:      16637
cpu0->cpu0_DTLB LOAD         ACCESS:   11110868 HIT:   11015012 MISS:      95856 MSHR_MERGE:      16637
cpu0->cpu0_DTLB RFO          ACCESS:          0 HIT:          0 MISS:          0 MSHR_MERGE:          0
cpu0->cpu0_DTLB PREFETCH     ACCESS:          0 HIT:          0 MISS:          0 MSHR_MERGE:          0
cpu0->cpu0_DTLB WRITE        ACCESS:          0 HIT:          0 MISS:          0 MSHR_MERGE:          0
cpu0->cpu0_DTLB TRANSLATION  ACCESS:          0 HIT:          0 MISS:          0 MSHR_MERGE:          0
cpu0->cpu0_DTLB PREFETCH REQUESTED:          0 ISSUED:          0 USEFUL:          0 USELESS:          0 LATE:          0
cpu0->cpu0_DTLB AVERAGE MISS LATENCY: 5.003 cycles
cpu0->LLC TOTAL        ACCESS:    1425691 HIT:     232281 MISS:    1193410 MSHR_MERGE:      20396
cpu0->LLC LOAD         ACCESS:      29803 HIT:        153 MISS:      29650 MSHR_MERGE:          3
cpu0->LLC RFO          ACCESS:        594 HIT:          3 MISS:        591 MSHR_MERGE:          0
cpu0->LLC PREFETCH     ACCESS:    1088648 HIT:      18070 MISS:    1070578 MSHR_MERGE:      20393
cpu0->LLC WRITE        ACCESS:     306646 HIT:     214055 MISS:      92591 MSHR_MERGE:          0
cpu0->LLC TRANSLATION  ACCESS:          0 HIT:          0 MISS:          0 MSHR_MERGE:          0
cpu0->LLC PREFETCH REQUESTED:          0 ISSUED:          0 USEFUL:          0 USELESS:          0 LATE:          0
cpu0->LLC AVERAGE MISS LATENCY: 86.66 cycles

DRAM Statistics

Channel 0 RQ ROW_BUFFER_HIT:     239876
  ROW_BUFFER_MISS:     840547
  AVG DBUS CONGESTED CYCLE: 6.57
Channel 0 WQ ROW_BUFFER_HIT:      24668
  ROW_BUFFER_MISS:     257035
  FULL:          0
Channel 0 REFRESHES ISSUED:       2663

[ROI Statistics]
[System Configuration]
num_cpus 1
cpu_freq 4000
fetch_width 6
decode_width 6
dispatch_width 6
execute_width 6
lq_width 2
sq_width 2
retire_width 6
scheduler_size 128
branch_mispredict_penalty 15
rob_size 352
lq_size 128
sq_size 72
ifetch_buffer_size 64
decode_buffer_size 32
dispatch_buffer_size 32
register_file_size 288
decode_latency 1
dispatch_latency 1
schedule_latency 1
execute_latency 1
page_size 4096
block_size 64
core_0_itlb_set 16
core_0_itlb_way 4
core_0_itlb_rq_size 16
core_0_itlb_wq_size 16
core_0_itlb_pq_size 0
core_0_itlb_mshr_size 8
core_0_itlb_hit_latency 1
core_0_itlb_fill_latency 1
core_0_itlb_max_tag_check 2
core_0_itlb_max_fill 2
core_0_dtlb_set 16
core_0_dtlb_way 4
core_0_dtlb_rq_size 16
core_0_dtlb_wq_size 16
core_0_dtlb_pq_size 0
core_0_dtlb_mshr_size 8
core_0_dtlb_hit_latency 1
core_0_dtlb_fill_latency 1
core_0_dtlb_max_tag_check 2
core_0_dtlb_max_fill 2
core_0_stlb_set 128
core_0_stlb_way 12
core_0_stlb_rq_size 32
core_0_stlb_wq_size 32
core_0_stlb_pq_size 0
core_0_stlb_mshr_size 16
core_0_stlb_hit_latency 4
core_0_stlb_fill_latency 4
core_0_stlb_max_tag_check 1
core_0_stlb_max_fill 1
core_0_l1i_set 64
core_0_l1i_way 8
core_0_l1i_rq_size 64
core_0_l1i_wq_size 64
core_0_l1i_pq_size 32
core_0_l1i_mshr_size 8
core_0_l1i_hit_latency 2
core_0_l1i_fill_latency 2
core_0_l1i_max_tag_check 2
core_0_l1i_max_fill 2
core_0_l1d_set 64
core_0_l1d_way 12
core_0_l1d_rq_size 64
core_0_l1d_wq_size 64
core_0_l1d_pq_size 8
core_0_l1d_mshr_size 16
core_0_l1d_hit_latency 2
core_0_l1d_fill_latency 3
core_0_l1d_max_tag_check 2
core_0_l1d_max_fill 2
core_0_l2c_set 1024
core_0_l2c_way 8
core_0_l2c_rq_size 32
core_0_l2c_wq_size 32
core_0_l2c_pq_size 16
core_0_l2c_mshr_size 32
core_0_l2c_hit_latency 5
core_0_l2c_fill_latency 5
core_0_l2c_max_tag_check 1
core_0_l2c_max_fill 1
llc_set 2048
llc_way 16
llc_rq_size 32
llc_wq_size 32
llc_pq_size 32
llc_mshr_size 64
llc_hit_latency 10
llc_fill_latency 10
llc_max_tag_check 1
llc_max_fill 1
dram_channels 1
dram_ranks 1
dram_bankgroups 8
dram_banks 4
dram_rows 65536
dram_columns 1024
dram_channel_width 8
dram_rq_size 64
dram_wq_size 64
dram_size 17179869184
core_0_itlb_prefetcher no
core_0_dtlb_prefetcher no
core_0_stlb_prefetcher no
core_0_l1i_prefetcher next_line
core_0_l1d_prefetcher vberti
core_0_l2c_prefetcher ip_stride
llc_prefetcher no
llc_replacement drrip

Core_0_instructions 50000005
Core_0_cycles 31960417
Core_0_IPC 1.56444
Core_0_branch_prediction_accuracy 99.9988
Core_0_branch_MPKI 0.00042
Core_0_average_ROB_occupancy_at_mispredict 50.0952

Core_0_ITLB_total_access 6790733
Core_0_ITLB_total_hit 6790732
Core_0_ITLB_total_miss 1
Core_0_ITLB_total_MPKI 2e-05
Core_0_ITLB_total_miss_rate 1.4726e-07
Core_0_ITLB_demand_access 6790733
Core_0_ITLB_demand_hit 6790732
Core_0_ITLB_demand_miss 1
Core_0_ITLB_demand_MPKI 2e-05
Core_0_ITLB_demand_miss_rate 1.4726e-07
Core_0_ITLB_load_access 6790733
Core_0_ITLB_load_hit 6790732
Core_0_ITLB_load_miss 1
Core_0_ITLB_load_MPKI 2e-05
Core_0_ITLB_load_miss_rate 1.4726e-07
Core_0_ITLB_rfo_access 0
Core_0_ITLB_rfo_hit 0
Core_0_ITLB_rfo_miss 0
Core_0_ITLB_rfo_MPKI 0
Core_0_ITLB_rfo_miss_rate 0
Core_0_ITLB_prefetch_access 0
Core_0_ITLB_prefetch_hit 0
Core_0_ITLB_prefetch_miss 0
Core_0_ITLB_prefetch_MPKI 0
Core_0_ITLB_prefetch_miss_rate 0
Core_0_ITLB_writeback_access 0
Core_0_ITLB_writeback_hit 0
Core_0_ITLB_writeback_miss 0
Core_0_ITLB_writeback_MPKI 0
Core_0_ITLB_writeback_miss_rate 0
Core_0_ITLB_prefetch_requested 0
Core_0_ITLB_prefetch_issued 0
Core_0_ITLB_prefetch_useful 0
Core_0_ITLB_prefetch_useless 0
Core_0_ITLB_prefetch_late 0
Core_0_ITLB_prefetch_accuracy 0
Core_0_ITLB_prefetch_coverage 0
Core_0_ITLB_total_eviction 0

Core_0_DTLB_total_access 11110868
Core_0_DTLB_total_hit 11015012
Core_0_DTLB_total_miss 95856
Core_0_DTLB_total_MPKI 1.91712
Core_0_DTLB_total_miss_rate 0.00862723
Core_0_DTLB_demand_access 11110868
Core_0_DTLB_demand_hit 11015012
Core_0_DTLB_demand_miss 95856
Core_0_DTLB_demand_MPKI 1.91712
Core_0_DTLB_demand_miss_rate 0.00862723
Core_0_DTLB_load_access 11110868
Core_0_DTLB_load_hit 11015012
Core_0_DTLB_load_miss 95856
Core_0_DTLB_load_MPKI 1.91712
Core_0_DTLB_load_miss_rate 0.00862723
Core_0_DTLB_rfo_access 0
Core_0_DTLB_rfo_hit 0
Core_0_DTLB_rfo_miss 0
Core_0_DTLB_rfo_MPKI 0
Core_0_DTLB_rfo_miss_rate 0
Core_0_DTLB_prefetch_access 0
Core_0_DTLB_prefetch_hit 0
Core_0_DTLB_prefetch_miss 0
Core_0_DTLB_prefetch_MPKI 0
Core_0_DTLB_prefetch_miss_rate 0
Core_0_DTLB_writeback_access 0
Core_0_DTLB_writeback_hit 0
Core_0_DTLB_writeback_miss 0
Core_0_DTLB_writeback_MPKI 0
Core_0_DTLB_writeback_miss_rate 0
Core_0_DTLB_prefetch_requested 0
Core_0_DTLB_prefetch_issued 0
Core_0_DTLB_prefetch_useful 0
Core_0_DTLB_prefetch_useless 0
Core_0_DTLB_prefetch_late 0
Core_0_DTLB_prefetch_accuracy 0
Core_0_DTLB_prefetch_coverage 0
Core_0_DTLB_total_eviction 79219

Core_0_STLB_total_access 79220
Core_0_STLB_total_hit 79220
Core_0_STLB_total_miss 0
Core_0_STLB_total_MPKI 0
Core_0_STLB_total_miss_rate 0
Core_0_STLB_demand_access 79220
Core_0_STLB_demand_hit 79220
Core_0_STLB_demand_miss 0
Core_0_STLB_demand_MPKI 0
Core_0_STLB_demand_miss_rate 0
Core_0_STLB_load_access 79220
Core_0_STLB_load_hit 79220
Core_0_STLB_load_miss 0
Core_0_STLB_load_MPKI 0
Core_0_STLB_load_miss_rate 0
Core_0_STLB_rfo_access 0
Core_0_STLB_rfo_hit 0
Core_0_STLB_rfo_miss 0
Core_0_STLB_rfo_MPKI 0
Core_0_STLB_rfo_miss_rate 0
Core_0_STLB_prefetch_access 0
Core_0_STLB_prefetch_hit 0
Core_0_STLB_prefetch_miss 0
Core_0_STLB_prefetch_MPKI 0
Core_0_STLB_prefetch_miss_rate 0
Core_0_STLB_writeback_access 0
Core_0_STLB_writeback_hit 0
Core_0_STLB_writeback_miss 0
Core_0_STLB_writeback_MPKI 0
Core_0_STLB_writeback_miss_rate 0
Core_0_STLB_prefetch_requested 0
Core_0_STLB_prefetch_issued 0
Core_0_STLB_prefetch_useful 0
Core_0_STLB_prefetch_useless 0
Core_0_STLB_prefetch_late 0
Core_0_STLB_prefetch_accuracy 0
Core_0_STLB_prefetch_coverage 0
Core_0_STLB_total_eviction 78333

Core_0_L1I_total_access 8083713
Core_0_L1I_total_hit 8083699
Core_0_L1I_total_miss 14
Core_0_L1I_total_MPKI 0.00028
Core_0_L1I_total_miss_rate 1.73188e-06
Core_0_L1I_demand_access 8083713
Core_0_L1I_demand_hit 8083699
Core_0_L1I_demand_miss 14
Core_0_L1I_demand_MPKI 0.00028
Core_0_L1I_demand_miss_rate 1.73188e-06
Core_0_L1I_load_access 8083713
Core_0_L1I_load_hit 8083699
Core_0_L1I_load_miss 14
Core_0_L1I_load_MPKI 0.00028
Core_0_L1I_load_miss_rate 1.73188e-06
Core_0_L1I_rfo_access 0
Core_0_L1I_rfo_hit 0
Core_0_L1I_rfo_miss 0
Core_0_L1I_rfo_MPKI 0
Core_0_L1I_rfo_miss_rate 0
Core_0_L1I_prefetch_access 0
Core_0_L1I_prefetch_hit 0
Core_0_L1I_prefetch_miss 0
Core_0_L1I_prefetch_MPKI 0
Core_0_L1I_prefetch_miss_rate 0
Core_0_L1I_writeback_access 0
Core_0_L1I_writeback_hit 0
Core_0_L1I_writeback_miss 0
Core_0_L1I_writeback_MPKI 0
Core_0_L1I_writeback_miss_rate 0
Core_0_L1I_prefetch_requested 0
Core_0_L1I_prefetch_issued 0
Core_0_L1I_prefetch_useful 0
Core_0_L1I_prefetch_useless 0
Core_0_L1I_prefetch_late 0
Core_0_L1I_prefetch_accuracy 0
Core_0_L1I_prefetch_coverage 0
Core_0_L1I_total_eviction 0

Core_0_L1D_total_access 12712638
Core_0_L1D_total_hit 9576760
Core_0_L1D_total_miss 3135878
Core_0_L1D_total_MPKI 62.7176
Core_0_L1D_total_miss_rate 0.246674
Core_0_L1D_demand_access 5707820
Core_0_L1D_demand_hit 5044778
Core_0_L1D_demand_miss 663042
Core_0_L1D_demand_MPKI 13.2608
Core_0_L1D_demand_miss_rate 0.116164
Core_0_L1D_load_access 5707820
Core_0_L1D_load_hit 5044778
Core_0_L1D_load_miss 663042
Core_0_L1D_load_MPKI 13.2608
Core_0_L1D_load_miss_rate 0.116164
Core_0_L1D_rfo_access 0
Core_0_L1D_rfo_hit 0
Core_0_L1D_rfo_miss 0
Core_0_L1D_rfo_MPKI 0
Core_0_L1D_rfo_miss_rate 0
Core_0_L1D_prefetch_access 4805183
Core_0_L1D_prefetch_hit 2433966
Core_0_L1D_prefetch_miss 2371217
Core_0_L1D_prefetch_MPKI 47.4243
Core_0_L1D_prefetch_miss_rate 0.493471
Core_0_L1D_writeback_access 2199635
Core_0_L1D_writeback_hit 2098016
Core_0_L1D_writeback_miss 101619
Core_0_L1D_writeback_MPKI 2.03238
Core_0_L1D_writeback_miss_rate 0.0461981
Core_0_L1D_prefetch_requested 22985599
Core_0_L1D_prefetch_issued 4805183
Core_0_L1D_prefetch_useful 737766
Core_0_L1D_prefetch_useless 30728
Core_0_L1D_prefetch_late 54337
Core_0_L1D_prefetch_accuracy 0.153535
Core_0_L1D_prefetch_coverage 0.526672
Core_0_L1D_total_eviction 959913

Core_0_L2C_total_access 2997251
Core_0_L2C_total_hit 1027490
Core_0_L2C_total_miss 1969761
Core_0_L2C_total_MPKI 39.3952
Core_0_L2C_total_miss_rate 0.657189
Core_0_L2C_demand_access 191446
Core_0_L2C_demand_hit 137468
Core_0_L2C_demand_miss 53978
Core_0_L2C_demand_MPKI 1.07956
Core_0_L2C_demand_miss_rate 0.281949
Core_0_L2C_load_access 167181
Core_0_L2C_load_hit 115672
Core_0_L2C_load_miss 51509
Core_0_L2C_load_MPKI 1.03018
Core_0_L2C_load_miss_rate 0.308103
Core_0_L2C_rfo_access 24265
Core_0_L2C_rfo_hit 21796
Core_0_L2C_rfo_miss 2469
Core_0_L2C_rfo_MPKI 0.04938
Core_0_L2C_rfo_miss_rate 0.101751
Core_0_L2C_prefetch_access 2494464
Core_0_L2C_prefetch_hit 578682
Core_0_L2C_prefetch_miss 1915782
Core_0_L2C_prefetch_MPKI 38.3156
Core_0_L2C_prefetch_miss_rate 0.768013
Core_0_L2C_writeback_access 311341
Core_0_L2C_writeback_hit 311340
Core_0_L2C_writeback_miss 1
Core_0_L2C_writeback_MPKI 2e-05
Core_0_L2C_writeback_miss_rate 3.21191e-06
Core_0_L2C_prefetch_requested 179734
Core_0_L2C_prefetch_issued 179722
Core_0_L2C_prefetch_useful 59591
Core_0_L2C_prefetch_useless 11324
Core_0_L2C_prefetch_late 58
Core_0_L2C_prefetch_accuracy 0.331573
Core_0_L2C_prefetch_coverage 0.524712
Core_0_L2C_total_eviction 1070316

Core_0_LLC_total_access 1425691
Core_0_LLC_total_hit 232281
Core_0_LLC_total_miss 1193410
Core_0_LLC_total_MPKI 23.8682
Core_0_LLC_total_miss_rate 0.837075
Core_0_LLC_demand_access 30397
Core_0_LLC_demand_hit 156
Core_0_LLC_demand_miss 30241
Core_0_LLC_demand_MPKI 0.60482
Core_0_LLC_demand_miss_rate 0.994868
Core_0_LLC_load_access 29803
Core_0_LLC_load_hit 153
Core_0_LLC_load_miss 29650
Core_0_LLC_load_MPKI 0.593
Core_0_LLC_load_miss_rate 0.994866
Core_0_LLC_rfo_access 594
Core_0_LLC_rfo_hit 3
Core_0_LLC_rfo_miss 591
Core_0_LLC_rfo_MPKI 0.01182
Core_0_LLC_rfo_miss_rate 0.994949
Core_0_LLC_prefetch_access 1088648
Core_0_LLC_prefetch_hit 18070
Core_0_LLC_prefetch_miss 1070578
Core_0_LLC_prefetch_MPKI 21.4116
Core_0_LLC_prefetch_miss_rate 0.983401
Core_0_LLC_writeback_access 306646
Core_0_LLC_writeback_hit 214055
Core_0_LLC_writeback_miss 92591
Core_0_LLC_writeback_MPKI 1.85182
Core_0_LLC_writeback_miss_rate 0.301948
Core_0_LLC_prefetch_requested 0
Core_0_LLC_prefetch_issued 0
Core_0_LLC_prefetch_useful 0
Core_0_LLC_prefetch_useless 0
Core_0_LLC_prefetch_late 0
Core_0_LLC_prefetch_accuracy 0
Core_0_LLC_prefetch_coverage 0
Core_0_LLC_total_eviction 1173015

[DRAM Statistics]
Channel_0_RQ_row_buffer_hit 239876
Channel_0_RQ_row_buffer_miss 840547
Channel_0_WQ_row_buffer_hit 24668
Channel_0_WQ_row_buffer_miss 257035
Channel_0_WQ_full 0
Channel_0_dbus_congested 3892118
DRAM_total_RQ_row_buffer_hit 239876
DRAM_total_RQ_row_buffer_miss 840547
DRAM_total_WQ_row_buffer_hit 24668
DRAM_total_WQ_row_buffer_miss 257035
DRAM_total_WQ_full 0
DRAM_total_dbus_congested 3892118
DRAM_avg_congested_cycle 6.56952

======STLB miss causes ========
Core_0_STLB_miss_cause_breakdown
Core_0_STLB_cause_Demand_Data_miss 0
Core_0_STLB_cause_Demand_Data_miss_rate 0
Core_0_STLB_cause_Demand_Instruction_miss 0
Core_0_STLB_cause_Demand_Instruction_miss_rate 0
Core_0_STLB_cause_L1D_Prefetch_miss 0
Core_0_STLB_cause_L1D_Prefetch_miss_rate 0
Core_0_STLB_cause_L1I_Prefetch_miss 0
Core_0_STLB_cause_L1I_Prefetch_miss_rate 0
Core_0_STLB_cause_Other_miss 0
Core_0_STLB_cause_Other_miss_rate 0
Core_0_STLB_Demand_miss 0
Core_0_STLB_Demand_miss_rate 0
Core_0_STLB_L1D_Prefetch_miss 0
Core_0_STLB_L1D_Prefetch_miss_rate 0
Core_0_STLB_Other_miss 0
Core_0_STLB_Other_miss_rate 0
BERTI TO_L1: 20839701 TO_L2: 19412655 TO_L2_BC_MSHR: 1298550
BERTI AVG_LAT: 199.417 NUM_TRACK_LATENCY: 1357323 NUM_CANT_TRACK_LATENCY: 2
BERTI CROSS_PAGE 26101642 NO_CROSS_PAGE: 14150714
BERTI FOUND_BERTI: 10315248 NO_FOUND_BERTI: 1209694
BERTI AVERAGE_ISSUED: 1.83681
