[VMEM] WARNING: physical memory size is smaller than virtual memory size.

*** ChampSim Multicore Out-of-Order Simulator ***
Warmup Instructions: 20000000
Simulation Instructions: 50000000
Number of CPUs: 1
Page size: 4096
STLB ideal mode: all
STLB ideal fill: on
Core 0: /data0/tzh/champsim_traces/SPEC06/436.cactusADM-1804B.champsimtrace.xz
VBerti Prefetcher
BERTI HASH ENTANGLING
BERTI IP MASK ffff
Off-chip DRAM Size: 16 GiB Channels: 1 Width: 64-bit Data Rate: 3205 MT/s
Warmup halting CPU 0 at instruction 20000005 cycle 5579276 for remainder of phase
Warmup finished CPU 0 instructions: 20000005 cycles: 5579276 cumulative IPC: 3.585 (Simulation time: 00 hr 01 min 41 sec)
Warmup complete CPU 0 instructions: 20000005 cycles: 5579276 cumulative IPC: 3.585 (Simulation time: 00 hr 01 min 41 sec)
Simulation finished CPU 0 instructions: 50000002 cycles: 25034479 cumulative IPC: 1.997 (Simulation time: 00 hr 06 min 55 sec)
Simulation complete CPU 0 instructions: 50000002 cycles: 25034479 cumulative IPC: 1.997 (Simulation time: 00 hr 06 min 55 sec)

ChampSim completed all CPUs

=== Simulation ===
CPU 0 runs /data0/tzh/champsim_traces/SPEC06/436.cactusADM-1804B.champsimtrace.xz

Region of Interest Statistics

CPU 0 cumulative IPC: 1.997 instructions: 50000002 cycles: 25034479
CPU 0 Branch Prediction Accuracy: 99.99% MPKI: 0.00016 Average ROB Occupancy at Mispredict: 268.5
Branch type MPKI
BRANCH_DIRECT_JUMP: 0
BRANCH_INDIRECT: 0
BRANCH_CONDITIONAL: 0.00016
BRANCH_DIRECT_CALL: 0
BRANCH_INDIRECT_CALL: 0
BRANCH_RETURN: 0

cpu0->cpu0_STLB TOTAL        ACCESS:    1463300 HIT:    1463300 MISS:          0 MSHR_MERGE:          0
cpu0->cpu0_STLB LOAD         ACCESS:    1463300 HIT:    1463300 MISS:          0 MSHR_MERGE:          0
cpu0->cpu0_STLB RFO          ACCESS:          0 HIT:          0 MISS:          0 MSHR_MERGE:          0
cpu0->cpu0_STLB PREFETCH     ACCESS:          0 HIT:          0 MISS:          0 MSHR_MERGE:          0
cpu0->cpu0_STLB WRITE        ACCESS:          0 HIT:          0 MISS:          0 MSHR_MERGE:          0
cpu0->cpu0_STLB TRANSLATION  ACCESS:          0 HIT:          0 MISS:          0 MSHR_MERGE:          0
cpu0->cpu0_STLB PREFETCH REQUESTED:          0 ISSUED:          0 USEFUL:          0 USELESS:          0 LATE:          0
cpu0->cpu0_STLB AVERAGE MISS LATENCY: - cycles
cpu0->cpu0_L2C TOTAL        ACCESS:    1146350 HIT:     854672 MISS:     291678 MSHR_MERGE:      27454
cpu0->cpu0_L2C LOAD         ACCESS:     253196 HIT:     242900 MISS:      10296 MSHR_MERGE:        444
cpu0->cpu0_L2C RFO          ACCESS:      33882 HIT:       3457 MISS:      30425 MSHR_MERGE:        578
cpu0->cpu0_L2C PREFETCH     ACCESS:     785437 HIT:     534568 MISS:     250869 MSHR_MERGE:      26432
cpu0->cpu0_L2C WRITE        ACCESS:      73835 HIT:      73747 MISS:         88 MSHR_MERGE:          0
cpu0->cpu0_L2C TRANSLATION  ACCESS:          0 HIT:          0 MISS:          0 MSHR_MERGE:          0
cpu0->cpu0_L2C PREFETCH REQUESTED:     634598 ISSUED:     634576 USEFUL:     133474 USELESS:        366 LATE:         10
cpu0->cpu0_L2C AVERAGE MISS LATENCY: 258.1 cycles
cpu0->cpu0_L1I TOTAL        ACCESS:    9714335 HIT:    9714335 MISS:          0 MSHR_MERGE:          0
cpu0->cpu0_L1I LOAD         ACCESS:    9714335 HIT:    9714335 MISS:          0 MSHR_MERGE:          0
cpu0->cpu0_L1I RFO          ACCESS:          0 HIT:          0 MISS:          0 MSHR_MERGE:          0
cpu0->cpu0_L1I PREFETCH     ACCESS:          0 HIT:          0 MISS:          0 MSHR_MERGE:          0
cpu0->cpu0_L1I WRITE        ACCESS:          0 HIT:          0 MISS:          0 MSHR_MERGE:          0
cpu0->cpu0_L1I TRANSLATION  ACCESS:          0 HIT:          0 MISS:          0 MSHR_MERGE:          0
cpu0->cpu0_L1I PREFETCH REQUESTED:          0 ISSUED:          0 USEFUL:          0 USELESS:          0 LATE:          0
cpu0->cpu0_L1I AVERAGE MISS LATENCY: - cycles
cpu0->cpu0_L1D TOTAL        ACCESS:   20756140 HIT:   20281770 MISS:     474370 MSHR_MERGE:      36072
cpu0->cpu0_L1D LOAD         ACCESS:   12266647 HIT:   12010462 MISS:     256185 MSHR_MERGE:       2989
cpu0->cpu0_L1D RFO          ACCESS:          0 HIT:          0 MISS:          0 MSHR_MERGE:          0
cpu0->cpu0_L1D PREFETCH     ACCESS:     549658 HIT:     398428 MISS:     151230 MSHR_MERGE:         25
cpu0->cpu0_L1D WRITE        ACCESS:    7939835 HIT:    7872880 MISS:      66955 MSHR_MERGE:      33058
cpu0->cpu0_L1D TRANSLATION  ACCESS:          0 HIT:          0 MISS:          0 MSHR_MERGE:          0
cpu0->cpu0_L1D PREFETCH REQUESTED:    2665108 ISSUED:     549658 USEFUL:      79626 USELESS:         98 LATE:       3950
cpu0->cpu0_L1D AVERAGE MISS LATENCY: 49.16 cycles
cpu0->cpu0_ITLB TOTAL        ACCESS:    7133825 HIT:    7133825 MISS:          0 MSHR_MERGE:          0
cpu0->cpu0_ITLB LOAD         ACCESS:    7133825 HIT:    7133825 MISS:          0 MSHR_MERGE:          0
cpu0->cpu0_ITLB RFO          ACCESS:          0 HIT:          0 MISS:          0 MSHR_MERGE:          0
cpu0->cpu0_ITLB PREFETCH     ACCESS:          0 HIT:          0 MISS:          0 MSHR_MERGE:          0
cpu0->cpu0_ITLB WRITE        ACCESS:          0 HIT:          0 MISS:          0 MSHR_MERGE:          0
cpu0->cpu0_ITLB TRANSLATION  ACCESS:          0 HIT:          0 MISS:          0 MSHR_MERGE:          0
cpu0->cpu0_ITLB PREFETCH REQUESTED:          0 ISSUED:          0 USEFUL:          0 USELESS:          0 LATE:          0
cpu0->cpu0_ITLB AVERAGE MISS LATENCY: - cycles
cpu0->cpu0_DTLB TOTAL        ACCESS:   18668111 HIT:   17102966 MISS:    1565145 MSHR_MERGE:     101845
cpu0->cpu0_DTLB LOAD         ACCESS:   18668111 HIT:   17102966 MISS:    1565145 MSHR_MERGE:     101845
cpu0->cpu0_DTLB RFO          ACCESS:          0 HIT:          0 MISS:          0 MSHR_MERGE:          0
cpu0->cpu0_DTLB PREFETCH     ACCESS:          0 HIT:          0 MISS:          0 MSHR_MERGE:          0
cpu0->cpu0_DTLB WRITE        ACCESS:          0 HIT:          0 MISS:          0 MSHR_MERGE:          0
cpu0->cpu0_DTLB TRANSLATION  ACCESS:          0 HIT:          0 MISS:          0 MSHR_MERGE:          0
cpu0->cpu0_DTLB PREFETCH REQUESTED:          0 ISSUED:          0 USEFUL:          0 USELESS:          0 LATE:          0
cpu0->cpu0_DTLB AVERAGE MISS LATENCY: 5.023 cycles
cpu0->LLC TOTAL        ACCESS:     336102 HIT:      58017 MISS:     278085 MSHR_MERGE:       2186
cpu0->LLC LOAD         ACCESS:       9852 HIT:       2118 MISS:       7734 MSHR_MERGE:         12
cpu0->LLC RFO          ACCESS:      29847 HIT:        747 MISS:      29100 MSHR_MERGE:          0
cpu0->LLC PREFETCH     ACCESS:     224432 HIT:      38504 MISS:     185928 MSHR_MERGE:       2174
cpu0->LLC WRITE        ACCESS:      71971 HIT:      16648 MISS:      55323 MSHR_MERGE:          0
cpu0->LLC TRANSLATION  ACCESS:          0 HIT:          0 MISS:          0 MSHR_MERGE:          0
cpu0->LLC PREFETCH REQUESTED:          0 ISSUED:          0 USEFUL:          0 USELESS:          0 LATE:          0
cpu0->LLC AVERAGE MISS LATENCY: 107.5 cycles

DRAM Statistics

Channel 0 RQ ROW_BUFFER_HIT:       3530
  ROW_BUFFER_MISS:     217046
  AVG DBUS CONGESTED CYCLE: 8.519
Channel 0 WQ ROW_BUFFER_HIT:      10001
  ROW_BUFFER_MISS:      60565
  FULL:          0
Channel 0 REFRESHES ISSUED:       2087

[ROI Statistics]
[System Configuration]
num_cpus 1
cpu_freq 4000
fetch_width 6
decode_width 6
dispatch_width 6
execute_width 6
lq_width 2
sq_width 2
retire_width 6
scheduler_size 128
branch_mispredict_penalty 15
rob_size 352
lq_size 128
sq_size 72
ifetch_buffer_size 64
decode_buffer_size 32
dispatch_buffer_size 32
register_file_size 288
decode_latency 1
dispatch_latency 1
schedule_latency 1
execute_latency 1
page_size 4096
block_size 64
core_0_itlb_set 16
core_0_itlb_way 4
core_0_itlb_rq_size 16
core_0_itlb_wq_size 16
core_0_itlb_pq_size 0
core_0_itlb_mshr_size 8
core_0_itlb_hit_latency 1
core_0_itlb_fill_latency 1
core_0_itlb_max_tag_check 2
core_0_itlb_max_fill 2
core_0_dtlb_set 16
core_0_dtlb_way 4
core_0_dtlb_rq_size 16
core_0_dtlb_wq_size 16
core_0_dtlb_pq_size 0
core_0_dtlb_mshr_size 8
core_0_dtlb_hit_latency 1
core_0_dtlb_fill_latency 1
core_0_dtlb_max_tag_check 2
core_0_dtlb_max_fill 2
core_0_stlb_set 128
core_0_stlb_way 12
core_0_stlb_rq_size 32
core_0_stlb_wq_size 32
core_0_stlb_pq_size 0
core_0_stlb_mshr_size 16
core_0_stlb_hit_latency 4
core_0_stlb_fill_latency 4
core_0_stlb_max_tag_check 1
core_0_stlb_max_fill 1
core_0_l1i_set 64
core_0_l1i_way 8
core_0_l1i_rq_size 64
core_0_l1i_wq_size 64
core_0_l1i_pq_size 32
core_0_l1i_mshr_size 8
core_0_l1i_hit_latency 2
core_0_l1i_fill_latency 2
core_0_l1i_max_tag_check 2
core_0_l1i_max_fill 2
core_0_l1d_set 64
core_0_l1d_way 12
core_0_l1d_rq_size 64
core_0_l1d_wq_size 64
core_0_l1d_pq_size 8
core_0_l1d_mshr_size 16
core_0_l1d_hit_latency 2
core_0_l1d_fill_latency 3
core_0_l1d_max_tag_check 2
core_0_l1d_max_fill 2
core_0_l2c_set 1024
core_0_l2c_way 8
core_0_l2c_rq_size 32
core_0_l2c_wq_size 32
core_0_l2c_pq_size 16
core_0_l2c_mshr_size 32
core_0_l2c_hit_latency 5
core_0_l2c_fill_latency 5
core_0_l2c_max_tag_check 1
core_0_l2c_max_fill 1
llc_set 2048
llc_way 16
llc_rq_size 32
llc_wq_size 32
llc_pq_size 32
llc_mshr_size 64
llc_hit_latency 10
llc_fill_latency 10
llc_max_tag_check 1
llc_max_fill 1
dram_channels 1
dram_ranks 1
dram_bankgroups 8
dram_banks 4
dram_rows 65536
dram_columns 1024
dram_channel_width 8
dram_rq_size 64
dram_wq_size 64
dram_size 17179869184
core_0_itlb_prefetcher no
core_0_dtlb_prefetcher no
core_0_stlb_prefetcher no
core_0_l1i_prefetcher next_line
core_0_l1d_prefetcher vberti
core_0_l2c_prefetcher ip_stride
llc_prefetcher no
llc_replacement drrip

Core_0_instructions 50000002
Core_0_cycles 25034479
Core_0_IPC 1.99725
Core_0_branch_prediction_accuracy 99.987
Core_0_branch_MPKI 0.00016
Core_0_average_ROB_occupancy_at_mispredict 268.5

Core_0_ITLB_total_access 7133825
Core_0_ITLB_total_hit 7133825
Core_0_ITLB_total_miss 0
Core_0_ITLB_total_MPKI 0
Core_0_ITLB_total_miss_rate 0
Core_0_ITLB_demand_access 7133825
Core_0_ITLB_demand_hit 7133825
Core_0_ITLB_demand_miss 0
Core_0_ITLB_demand_MPKI 0
Core_0_ITLB_demand_miss_rate 0
Core_0_ITLB_load_access 7133825
Core_0_ITLB_load_hit 7133825
Core_0_ITLB_load_miss 0
Core_0_ITLB_load_MPKI 0
Core_0_ITLB_load_miss_rate 0
Core_0_ITLB_rfo_access 0
Core_0_ITLB_rfo_hit 0
Core_0_ITLB_rfo_miss 0
Core_0_ITLB_rfo_MPKI 0
Core_0_ITLB_rfo_miss_rate 0
Core_0_ITLB_prefetch_access 0
Core_0_ITLB_prefetch_hit 0
Core_0_ITLB_prefetch_miss 0
Core_0_ITLB_prefetch_MPKI 0
Core_0_ITLB_prefetch_miss_rate 0
Core_0_ITLB_writeback_access 0
Core_0_ITLB_writeback_hit 0
Core_0_ITLB_writeback_miss 0
Core_0_ITLB_writeback_MPKI 0
Core_0_ITLB_writeback_miss_rate 0
Core_0_ITLB_prefetch_requested 0
Core_0_ITLB_prefetch_issued 0
Core_0_ITLB_prefetch_useful 0
Core_0_ITLB_prefetch_useless 0
Core_0_ITLB_prefetch_late 0
Core_0_ITLB_prefetch_accuracy 0
Core_0_ITLB_prefetch_coverage 0
Core_0_ITLB_total_eviction 0

Core_0_DTLB_total_access 18668111
Core_0_DTLB_total_hit 17102966
Core_0_DTLB_total_miss 1565145
Core_0_DTLB_total_MPKI 31.3029
Core_0_DTLB_total_miss_rate 0.0838406
Core_0_DTLB_demand_access 18668111
Core_0_DTLB_demand_hit 17102966
Core_0_DTLB_demand_miss 1565145
Core_0_DTLB_demand_MPKI 31.3029
Core_0_DTLB_demand_miss_rate 0.0838406
Core_0_DTLB_load_access 18668111
Core_0_DTLB_load_hit 17102966
Core_0_DTLB_load_miss 1565145
Core_0_DTLB_load_MPKI 31.3029
Core_0_DTLB_load_miss_rate 0.0838406
Core_0_DTLB_rfo_access 0
Core_0_DTLB_rfo_hit 0
Core_0_DTLB_rfo_miss 0
Core_0_DTLB_rfo_MPKI 0
Core_0_DTLB_rfo_miss_rate 0
Core_0_DTLB_prefetch_access 0
Core_0_DTLB_prefetch_hit 0
Core_0_DTLB_prefetch_miss 0
Core_0_DTLB_prefetch_MPKI 0
Core_0_DTLB_prefetch_miss_rate 0
Core_0_DTLB_writeback_access 0
Core_0_DTLB_writeback_hit 0
Core_0_DTLB_writeback_miss 0
Core_0_DTLB_writeback_MPKI 0
Core_0_DTLB_writeback_miss_rate 0
Core_0_DTLB_prefetch_requested 0
Core_0_DTLB_prefetch_issued 0
Core_0_DTLB_prefetch_useful 0
Core_0_DTLB_prefetch_useless 0
Core_0_DTLB_prefetch_late 0
Core_0_DTLB_prefetch_accuracy 0
Core_0_DTLB_prefetch_coverage 0
Core_0_DTLB_total_eviction 1463300

Core_0_STLB_total_access 1463300
Core_0_STLB_total_hit 1463300
Core_0_STLB_total_miss 0
Core_0_STLB_total_MPKI 0
Core_0_STLB_total_miss_rate 0
Core_0_STLB_demand_access 1463300
Core_0_STLB_demand_hit 1463300
Core_0_STLB_demand_miss 0
Core_0_STLB_demand_MPKI 0
Core_0_STLB_demand_miss_rate 0
Core_0_STLB_load_access 1463300
Core_0_STLB_load_hit 1463300
Core_0_STLB_load_miss 0
Core_0_STLB_load_MPKI 0
Core_0_STLB_load_miss_rate 0
Core_0_STLB_rfo_access 0
Core_0_STLB_rfo_hit 0
Core_0_STLB_rfo_miss 0
Core_0_STLB_rfo_MPKI 0
Core_0_STLB_rfo_miss_rate 0
Core_0_STLB_prefetch_access 0
Core_0_STLB_prefetch_hit 0
Core_0_STLB_prefetch_miss 0
Core_0_STLB_prefetch_MPKI 0
Core_0_STLB_prefetch_miss_rate 0
Core_0_STLB_writeback_access 0
Core_0_STLB_writeback_hit 0
Core_0_STLB_writeback_miss 0
Core_0_STLB_writeback_MPKI 0
Core_0_STLB_writeback_miss_rate 0
Core_0_STLB_prefetch_requested 0
Core_0_STLB_prefetch_issued 0
Core_0_STLB_prefetch_useful 0
Core_0_STLB_prefetch_useless 0
Core_0_STLB_prefetch_late 0
Core_0_STLB_prefetch_accuracy 0
Core_0_STLB_prefetch_coverage 0
Core_0_STLB_total_eviction 614157

Core_0_L1I_total_access 9714335
Core_0_L1I_total_hit 9714335
Core_0_L1I_total_miss 0
Core_0_L1I_total_MPKI 0
Core_0_L1I_total_miss_rate 0
Core_0_L1I_demand_access 9714335
Core_0_L1I_demand_hit 9714335
Core_0_L1I_demand_miss 0
Core_0_L1I_demand_MPKI 0
Core_0_L1I_demand_miss_rate 0
Core_0_L1I_load_access 9714335
Core_0_L1I_load_hit 9714335
Core_0_L1I_load_miss 0
Core_0_L1I_load_MPKI 0
Core_0_L1I_load_miss_rate 0
Core_0_L1I_rfo_access 0
Core_0_L1I_rfo_hit 0
Core_0_L1I_rfo_miss 0
Core_0_L1I_rfo_MPKI 0
Core_0_L1I_rfo_miss_rate 0
Core_0_L1I_prefetch_access 0
Core_0_L1I_prefetch_hit 0
Core_0_L1I_prefetch_miss 0
Core_0_L1I_prefetch_MPKI 0
Core_0_L1I_prefetch_miss_rate 0
Core_0_L1I_writeback_access 0
Core_0_L1I_writeback_hit 0
Core_0_L1I_writeback_miss 0
Core_0_L1I_writeback_MPKI 0
Core_0_L1I_writeback_miss_rate 0
Core_0_L1I_prefetch_requested 0
Core_0_L1I_prefetch_issued 0
Core_0_L1I_prefetch_useful 0
Core_0_L1I_prefetch_useless 0
Core_0_L1I_prefetch_late 0
Core_0_L1I_prefetch_accuracy 0
Core_0_L1I_prefetch_coverage 0
Core_0_L1I_total_eviction 0

Core_0_L1D_total_access 20756140
Core_0_L1D_total_hit 20281770
Core_0_L1D_total_miss 474370
Core_0_L1D_total_MPKI 9.4874
Core_0_L1D_total_miss_rate 0.0228544
Core_0_L1D_demand_access 12266647
Core_0_L1D_demand_hit 12010462
Core_0_L1D_demand_miss 256185
Core_0_L1D_demand_MPKI 5.1237
Core_0_L1D_demand_miss_rate 0.0208847
Core_0_L1D_load_access 12266647
Core_0_L1D_load_hit 12010462
Core_0_L1D_load_miss 256185
Core_0_L1D_load_MPKI 5.1237
Core_0_L1D_load_miss_rate 0.0208847
Core_0_L1D_rfo_access 0
Core_0_L1D_rfo_hit 0
Core_0_L1D_rfo_miss 0
Core_0_L1D_rfo_MPKI 0
Core_0_L1D_rfo_miss_rate 0
Core_0_L1D_prefetch_access 549658
Core_0_L1D_prefetch_hit 398428
Core_0_L1D_prefetch_miss 151230
Core_0_L1D_prefetch_MPKI 3.0246
Core_0_L1D_prefetch_miss_rate 0.275135
Core_0_L1D_writeback_access 7939835
Core_0_L1D_writeback_hit 7872880
Core_0_L1D_writeback_miss 66955
Core_0_L1D_writeback_MPKI 1.3391
Core_0_L1D_writeback_miss_rate 0.00843279
Core_0_L1D_prefetch_requested 2665108
Core_0_L1D_prefetch_issued 549658
Core_0_L1D_prefetch_useful 79626
Core_0_L1D_prefetch_useless 98
Core_0_L1D_prefetch_late 3950
Core_0_L1D_prefetch_accuracy 0.144865
Core_0_L1D_prefetch_coverage 0.237116
Core_0_L1D_total_eviction 366817

Core_0_L2C_total_access 1146350
Core_0_L2C_total_hit 854672
Core_0_L2C_total_miss 291678
Core_0_L2C_total_MPKI 5.83356
Core_0_L2C_total_miss_rate 0.254441
Core_0_L2C_demand_access 287078
Core_0_L2C_demand_hit 246357
Core_0_L2C_demand_miss 40721
Core_0_L2C_demand_MPKI 0.81442
Core_0_L2C_demand_miss_rate 0.141846
Core_0_L2C_load_access 253196
Core_0_L2C_load_hit 242900
Core_0_L2C_load_miss 10296
Core_0_L2C_load_MPKI 0.20592
Core_0_L2C_load_miss_rate 0.0406641
Core_0_L2C_rfo_access 33882
Core_0_L2C_rfo_hit 3457
Core_0_L2C_rfo_miss 30425
Core_0_L2C_rfo_MPKI 0.6085
Core_0_L2C_rfo_miss_rate 0.897969
Core_0_L2C_prefetch_access 785437
Core_0_L2C_prefetch_hit 534568
Core_0_L2C_prefetch_miss 250869
Core_0_L2C_prefetch_MPKI 5.01738
Core_0_L2C_prefetch_miss_rate 0.319401
Core_0_L2C_writeback_access 73835
Core_0_L2C_writeback_hit 73747
Core_0_L2C_writeback_miss 88
Core_0_L2C_writeback_MPKI 0.00176
Core_0_L2C_writeback_miss_rate 0.00119185
Core_0_L2C_prefetch_requested 634598
Core_0_L2C_prefetch_issued 634576
Core_0_L2C_prefetch_useful 133474
Core_0_L2C_prefetch_useless 366
Core_0_L2C_prefetch_late 10
Core_0_L2C_prefetch_accuracy 0.210336
Core_0_L2C_prefetch_coverage 0.766233
Core_0_L2C_total_eviction 249846

Core_0_LLC_total_access 336102
Core_0_LLC_total_hit 58017
Core_0_LLC_total_miss 278085
Core_0_LLC_total_MPKI 5.5617
Core_0_LLC_total_miss_rate 0.827383
Core_0_LLC_demand_access 39699
Core_0_LLC_demand_hit 2865
Core_0_LLC_demand_miss 36834
Core_0_LLC_demand_MPKI 0.73668
Core_0_LLC_demand_miss_rate 0.927832
Core_0_LLC_load_access 9852
Core_0_LLC_load_hit 2118
Core_0_LLC_load_miss 7734
Core_0_LLC_load_MPKI 0.15468
Core_0_LLC_load_miss_rate 0.785018
Core_0_LLC_rfo_access 29847
Core_0_LLC_rfo_hit 747
Core_0_LLC_rfo_miss 29100
Core_0_LLC_rfo_MPKI 0.582
Core_0_LLC_rfo_miss_rate 0.974972
Core_0_LLC_prefetch_access 224432
Core_0_LLC_prefetch_hit 38504
Core_0_LLC_prefetch_miss 185928
Core_0_LLC_prefetch_MPKI 3.71856
Core_0_LLC_prefetch_miss_rate 0.828438
Core_0_LLC_writeback_access 71971
Core_0_LLC_writeback_hit 16648
Core_0_LLC_writeback_miss 55323
Core_0_LLC_writeback_MPKI 1.10646
Core_0_LLC_writeback_miss_rate 0.768685
Core_0_LLC_prefetch_requested 0
Core_0_LLC_prefetch_issued 0
Core_0_LLC_prefetch_useful 0
Core_0_LLC_prefetch_useless 0
Core_0_LLC_prefetch_late 0
Core_0_LLC_prefetch_accuracy 0
Core_0_LLC_prefetch_coverage 0
Core_0_LLC_total_eviction 275899

[DRAM Statistics]
Channel_0_RQ_row_buffer_hit 3530
Channel_0_RQ_row_buffer_miss 217046
Channel_0_WQ_row_buffer_hit 10001
Channel_0_WQ_row_buffer_miss 60565
Channel_0_WQ_full 0
Channel_0_dbus_congested 676049
DRAM_total_RQ_row_buffer_hit 3530
DRAM_total_RQ_row_buffer_miss 217046
DRAM_total_WQ_row_buffer_hit 10001
DRAM_total_WQ_row_buffer_miss 60565
DRAM_total_WQ_full 0
DRAM_total_dbus_congested 676049
DRAM_avg_congested_cycle 8.51932

======STLB miss causes ========
Core_0_STLB_miss_cause_breakdown
Core_0_STLB_cause_Demand_Data_miss 0
Core_0_STLB_cause_Demand_Data_miss_rate 0
Core_0_STLB_cause_Demand_Instruction_miss 0
Core_0_STLB_cause_Demand_Instruction_miss_rate 0
Core_0_STLB_cause_L1D_Prefetch_miss 0
Core_0_STLB_cause_L1D_Prefetch_miss_rate 0
Core_0_STLB_cause_L1I_Prefetch_miss 0
Core_0_STLB_cause_L1I_Prefetch_miss_rate 0
Core_0_STLB_cause_Other_miss 0
Core_0_STLB_cause_Other_miss_rate 0
Core_0_STLB_Demand_miss 0
Core_0_STLB_Demand_miss_rate 0
Core_0_STLB_L1D_Prefetch_miss 0
Core_0_STLB_L1D_Prefetch_miss_rate 0
Core_0_STLB_Other_miss 0
Core_0_STLB_Other_miss_rate 0
BERTI TO_L1: 2729446 TO_L2: 978612 TO_L2_BC_MSHR: 719516
BERTI AVG_LAT: 73.8585 NUM_TRACK_LATENCY: 525749 NUM_CANT_TRACK_LATENCY: 2
BERTI CROSS_PAGE 183191 NO_CROSS_PAGE: 3524867
BERTI FOUND_BERTI: 3665812 NO_FOUND_BERTI: 22021030
BERTI AVERAGE_ISSUED: 1.85071
