[VMEM] WARNING: physical memory size is smaller than virtual memory size.

*** ChampSim Multicore Out-of-Order Simulator ***
Warmup Instructions: 20000000
Simulation Instructions: 50000000
Number of CPUs: 1
Page size: 4096
STLB ideal mode: all
STLB ideal fill: on
Core 0: /data0/tzh/champsim_traces/SPEC06/473.astar-359B.champsimtrace.xz
VBerti Prefetcher
BERTI HASH ENTANGLING
BERTI IP MASK ffff
Off-chip DRAM Size: 16 GiB Channels: 1 Width: 64-bit Data Rate: 3205 MT/s
Warmup halting CPU 0 at instruction 20000005 cycle 4880618 for remainder of phase
Warmup finished CPU 0 instructions: 20000005 cycles: 4880618 cumulative IPC: 4.098 (Simulation time: 00 hr 01 min 20 sec)
Warmup complete CPU 0 instructions: 20000005 cycles: 4880618 cumulative IPC: 4.098 (Simulation time: 00 hr 01 min 20 sec)
Simulation finished CPU 0 instructions: 50000002 cycles: 238824993 cumulative IPC: 0.2094 (Simulation time: 00 hr 21 min 35 sec)
Simulation complete CPU 0 instructions: 50000002 cycles: 238824993 cumulative IPC: 0.2094 (Simulation time: 00 hr 21 min 35 sec)

ChampSim completed all CPUs

=== Simulation ===
CPU 0 runs /data0/tzh/champsim_traces/SPEC06/473.astar-359B.champsimtrace.xz

Region of Interest Statistics

CPU 0 cumulative IPC: 0.2094 instructions: 50000002 cycles: 238824993
CPU 0 Branch Prediction Accuracy: 93.2% MPKI: 13.43 Average ROB Occupancy at Mispredict: 45.04
Branch type MPKI
BRANCH_DIRECT_JUMP: 0
BRANCH_INDIRECT: 0
BRANCH_CONDITIONAL: 13.42
BRANCH_DIRECT_CALL: 0
BRANCH_INDIRECT_CALL: 0.00054
BRANCH_RETURN: 0

cpu0->cpu0_STLB TOTAL        ACCESS:    1635881 HIT:    1635881 MISS:          0 MSHR_MERGE:          0
cpu0->cpu0_STLB LOAD         ACCESS:    1635881 HIT:    1635881 MISS:          0 MSHR_MERGE:          0
cpu0->cpu0_STLB RFO          ACCESS:          0 HIT:          0 MISS:          0 MSHR_MERGE:          0
cpu0->cpu0_STLB PREFETCH     ACCESS:          0 HIT:          0 MISS:          0 MSHR_MERGE:          0
cpu0->cpu0_STLB WRITE        ACCESS:          0 HIT:          0 MISS:          0 MSHR_MERGE:          0
cpu0->cpu0_STLB TRANSLATION  ACCESS:          0 HIT:          0 MISS:          0 MSHR_MERGE:          0
cpu0->cpu0_STLB PREFETCH REQUESTED:          0 ISSUED:          0 USEFUL:          0 USELESS:          0 LATE:          0
cpu0->cpu0_STLB AVERAGE MISS LATENCY: - cycles
cpu0->cpu0_L2C TOTAL        ACCESS:    5687379 HIT:    3772742 MISS:    1914637 MSHR_MERGE:     106996
cpu0->cpu0_L2C LOAD         ACCESS:    1616301 HIT:     655713 MISS:     960588 MSHR_MERGE:      18288
cpu0->cpu0_L2C RFO          ACCESS:     724842 HIT:      11624 MISS:     713218 MSHR_MERGE:       1041
cpu0->cpu0_L2C PREFETCH     ACCESS:    2186940 HIT:    1946247 MISS:     240693 MSHR_MERGE:      87667
cpu0->cpu0_L2C WRITE        ACCESS:    1159296 HIT:    1159158 MISS:        138 MSHR_MERGE:          0
cpu0->cpu0_L2C TRANSLATION  ACCESS:          0 HIT:          0 MISS:          0 MSHR_MERGE:          0
cpu0->cpu0_L2C PREFETCH REQUESTED:     685013 ISSUED:     684910 USEFUL:      49355 USELESS:       8859 LATE:      16135
cpu0->cpu0_L2C AVERAGE MISS LATENCY: 349.4 cycles
cpu0->cpu0_L1I TOTAL        ACCESS:     720448 HIT:     720441 MISS:          7 MSHR_MERGE:          0
cpu0->cpu0_L1I LOAD         ACCESS:     720448 HIT:     720441 MISS:          7 MSHR_MERGE:          0
cpu0->cpu0_L1I RFO          ACCESS:          0 HIT:          0 MISS:          0 MSHR_MERGE:          0
cpu0->cpu0_L1I PREFETCH     ACCESS:          0 HIT:          0 MISS:          0 MSHR_MERGE:          0
cpu0->cpu0_L1I WRITE        ACCESS:          0 HIT:          0 MISS:          0 MSHR_MERGE:          0
cpu0->cpu0_L1I TRANSLATION  ACCESS:          0 HIT:          0 MISS:          0 MSHR_MERGE:          0
cpu0->cpu0_L1I PREFETCH REQUESTED:          0 ISSUED:          0 USEFUL:          0 USELESS:          0 LATE:          0
cpu0->cpu0_L1I AVERAGE MISS LATENCY: 203.4 cycles
cpu0->cpu0_L1D TOTAL        ACCESS:   24479098 HIT:   19986931 MISS:    4492167 MSHR_MERGE:     625529
cpu0->cpu0_L1D LOAD         ACCESS:   13709826 HIT:   11499790 MISS:    2210036 MSHR_MERGE:     593741
cpu0->cpu0_L1D RFO          ACCESS:          0 HIT:          0 MISS:          0 MSHR_MERGE:          0
cpu0->cpu0_L1D PREFETCH     ACCESS:    4454003 HIT:    2896785 MISS:    1557218 MSHR_MERGE:      31717
cpu0->cpu0_L1D WRITE        ACCESS:    6315269 HIT:    5590356 MISS:     724913 MSHR_MERGE:         71
cpu0->cpu0_L1D TRANSLATION  ACCESS:          0 HIT:          0 MISS:          0 MSHR_MERGE:          0
cpu0->cpu0_L1D PREFETCH REQUESTED:  130850159 ISSUED:    4454006 USEFUL:      80080 USELESS:      12342 LATE:       7075
cpu0->cpu0_L1D AVERAGE MISS LATENCY: 258.9 cycles
cpu0->cpu0_ITLB TOTAL        ACCESS:     720352 HIT:     720352 MISS:          0 MSHR_MERGE:          0
cpu0->cpu0_ITLB LOAD         ACCESS:     720352 HIT:     720352 MISS:          0 MSHR_MERGE:          0
cpu0->cpu0_ITLB RFO          ACCESS:          0 HIT:          0 MISS:          0 MSHR_MERGE:          0
cpu0->cpu0_ITLB PREFETCH     ACCESS:          0 HIT:          0 MISS:          0 MSHR_MERGE:          0
cpu0->cpu0_ITLB WRITE        ACCESS:          0 HIT:          0 MISS:          0 MSHR_MERGE:          0
cpu0->cpu0_ITLB TRANSLATION  ACCESS:          0 HIT:          0 MISS:          0 MSHR_MERGE:          0
cpu0->cpu0_ITLB PREFETCH REQUESTED:          0 ISSUED:          0 USEFUL:          0 USELESS:          0 LATE:          0
cpu0->cpu0_ITLB AVERAGE MISS LATENCY: - cycles
cpu0->cpu0_DTLB TOTAL        ACCESS:   22484024 HIT:   20278908 MISS:    2205116 MSHR_MERGE:     569235
cpu0->cpu0_DTLB LOAD         ACCESS:   22484024 HIT:   20278908 MISS:    2205116 MSHR_MERGE:     569235
cpu0->cpu0_DTLB RFO          ACCESS:          0 HIT:          0 MISS:          0 MSHR_MERGE:          0
cpu0->cpu0_DTLB PREFETCH     ACCESS:          0 HIT:          0 MISS:          0 MSHR_MERGE:          0
cpu0->cpu0_DTLB WRITE        ACCESS:          0 HIT:          0 MISS:          0 MSHR_MERGE:          0
cpu0->cpu0_DTLB TRANSLATION  ACCESS:          0 HIT:          0 MISS:          0 MSHR_MERGE:          0
cpu0->cpu0_DTLB PREFETCH REQUESTED:          0 ISSUED:          0 USEFUL:          0 USELESS:          0 LATE:          0
cpu0->cpu0_DTLB AVERAGE MISS LATENCY: 5.003 cycles
cpu0->LLC TOTAL        ACCESS:    2920644 HIT:     552144 MISS:    2368500 MSHR_MERGE:      22656
cpu0->LLC LOAD         ACCESS:     942300 HIT:      59025 MISS:     883275 MSHR_MERGE:       1800
cpu0->LLC RFO          ACCESS:     712174 HIT:     133936 MISS:     578238 MSHR_MERGE:          0
cpu0->LLC PREFETCH     ACCESS:     152993 HIT:      20951 MISS:     132042 MSHR_MERGE:      20856
cpu0->LLC WRITE        ACCESS:    1113177 HIT:     338232 MISS:     774945 MSHR_MERGE:          0
cpu0->LLC TRANSLATION  ACCESS:          0 HIT:          0 MISS:          0 MSHR_MERGE:          0
cpu0->LLC PREFETCH REQUESTED:          0 ISSUED:          0 USEFUL:          0 USELESS:          0 LATE:          0
cpu0->LLC AVERAGE MISS LATENCY: 249.1 cycles

DRAM Statistics

Channel 0 RQ ROW_BUFFER_HIT:      61593
  ROW_BUFFER_MISS:    1508842
  AVG DBUS CONGESTED CYCLE: 17.09
Channel 0 WQ ROW_BUFFER_HIT:     233584
  ROW_BUFFER_MISS:     698803
  FULL:       5912
Channel 0 REFRESHES ISSUED:      19902

[ROI Statistics]
[System Configuration]
num_cpus 1
cpu_freq 4000
fetch_width 6
decode_width 6
dispatch_width 6
execute_width 6
lq_width 2
sq_width 2
retire_width 6
scheduler_size 128
branch_mispredict_penalty 15
rob_size 352
lq_size 128
sq_size 72
ifetch_buffer_size 64
decode_buffer_size 32
dispatch_buffer_size 32
register_file_size 288
decode_latency 1
dispatch_latency 1
schedule_latency 1
execute_latency 1
page_size 4096
block_size 64
core_0_itlb_set 16
core_0_itlb_way 4
core_0_itlb_rq_size 16
core_0_itlb_wq_size 16
core_0_itlb_pq_size 0
core_0_itlb_mshr_size 8
core_0_itlb_hit_latency 1
core_0_itlb_fill_latency 1
core_0_itlb_max_tag_check 2
core_0_itlb_max_fill 2
core_0_dtlb_set 16
core_0_dtlb_way 4
core_0_dtlb_rq_size 16
core_0_dtlb_wq_size 16
core_0_dtlb_pq_size 0
core_0_dtlb_mshr_size 8
core_0_dtlb_hit_latency 1
core_0_dtlb_fill_latency 1
core_0_dtlb_max_tag_check 2
core_0_dtlb_max_fill 2
core_0_stlb_set 128
core_0_stlb_way 12
core_0_stlb_rq_size 32
core_0_stlb_wq_size 32
core_0_stlb_pq_size 0
core_0_stlb_mshr_size 16
core_0_stlb_hit_latency 4
core_0_stlb_fill_latency 4
core_0_stlb_max_tag_check 1
core_0_stlb_max_fill 1
core_0_l1i_set 64
core_0_l1i_way 8
core_0_l1i_rq_size 64
core_0_l1i_wq_size 64
core_0_l1i_pq_size 32
core_0_l1i_mshr_size 8
core_0_l1i_hit_latency 2
core_0_l1i_fill_latency 2
core_0_l1i_max_tag_check 2
core_0_l1i_max_fill 2
core_0_l1d_set 64
core_0_l1d_way 12
core_0_l1d_rq_size 64
core_0_l1d_wq_size 64
core_0_l1d_pq_size 8
core_0_l1d_mshr_size 16
core_0_l1d_hit_latency 2
core_0_l1d_fill_latency 3
core_0_l1d_max_tag_check 2
core_0_l1d_max_fill 2
core_0_l2c_set 1024
core_0_l2c_way 8
core_0_l2c_rq_size 32
core_0_l2c_wq_size 32
core_0_l2c_pq_size 16
core_0_l2c_mshr_size 32
core_0_l2c_hit_latency 5
core_0_l2c_fill_latency 5
core_0_l2c_max_tag_check 1
core_0_l2c_max_fill 1
llc_set 2048
llc_way 16
llc_rq_size 32
llc_wq_size 32
llc_pq_size 32
llc_mshr_size 64
llc_hit_latency 10
llc_fill_latency 10
llc_max_tag_check 1
llc_max_fill 1
dram_channels 1
dram_ranks 1
dram_bankgroups 8
dram_banks 4
dram_rows 65536
dram_columns 1024
dram_channel_width 8
dram_rq_size 64
dram_wq_size 64
dram_size 17179869184
core_0_itlb_prefetcher no
core_0_dtlb_prefetcher no
core_0_stlb_prefetcher no
core_0_l1i_prefetcher next_line
core_0_l1d_prefetcher vberti
core_0_l2c_prefetcher ip_stride
llc_prefetcher no
llc_replacement drrip

Core_0_instructions 50000002
Core_0_cycles 238824993
Core_0_IPC 0.209358
Core_0_branch_prediction_accuracy 93.1958
Core_0_branch_MPKI 13.4253
Core_0_average_ROB_occupancy_at_mispredict 45.0361

Core_0_ITLB_total_access 720352
Core_0_ITLB_total_hit 720352
Core_0_ITLB_total_miss 0
Core_0_ITLB_total_MPKI 0
Core_0_ITLB_total_miss_rate 0
Core_0_ITLB_demand_access 720352
Core_0_ITLB_demand_hit 720352
Core_0_ITLB_demand_miss 0
Core_0_ITLB_demand_MPKI 0
Core_0_ITLB_demand_miss_rate 0
Core_0_ITLB_load_access 720352
Core_0_ITLB_load_hit 720352
Core_0_ITLB_load_miss 0
Core_0_ITLB_load_MPKI 0
Core_0_ITLB_load_miss_rate 0
Core_0_ITLB_rfo_access 0
Core_0_ITLB_rfo_hit 0
Core_0_ITLB_rfo_miss 0
Core_0_ITLB_rfo_MPKI 0
Core_0_ITLB_rfo_miss_rate 0
Core_0_ITLB_prefetch_access 0
Core_0_ITLB_prefetch_hit 0
Core_0_ITLB_prefetch_miss 0
Core_0_ITLB_prefetch_MPKI 0
Core_0_ITLB_prefetch_miss_rate 0
Core_0_ITLB_writeback_access 0
Core_0_ITLB_writeback_hit 0
Core_0_ITLB_writeback_miss 0
Core_0_ITLB_writeback_MPKI 0
Core_0_ITLB_writeback_miss_rate 0
Core_0_ITLB_prefetch_requested 0
Core_0_ITLB_prefetch_issued 0
Core_0_ITLB_prefetch_useful 0
Core_0_ITLB_prefetch_useless 0
Core_0_ITLB_prefetch_late 0
Core_0_ITLB_prefetch_accuracy 0
Core_0_ITLB_prefetch_coverage 0
Core_0_ITLB_total_eviction 0

Core_0_DTLB_total_access 22484024
Core_0_DTLB_total_hit 20278908
Core_0_DTLB_total_miss 2205116
Core_0_DTLB_total_MPKI 44.1023
Core_0_DTLB_total_miss_rate 0.0980748
Core_0_DTLB_demand_access 22484024
Core_0_DTLB_demand_hit 20278908
Core_0_DTLB_demand_miss 2205116
Core_0_DTLB_demand_MPKI 44.1023
Core_0_DTLB_demand_miss_rate 0.0980748
Core_0_DTLB_load_access 22484024
Core_0_DTLB_load_hit 20278908
Core_0_DTLB_load_miss 2205116
Core_0_DTLB_load_MPKI 44.1023
Core_0_DTLB_load_miss_rate 0.0980748
Core_0_DTLB_rfo_access 0
Core_0_DTLB_rfo_hit 0
Core_0_DTLB_rfo_miss 0
Core_0_DTLB_rfo_MPKI 0
Core_0_DTLB_rfo_miss_rate 0
Core_0_DTLB_prefetch_access 0
Core_0_DTLB_prefetch_hit 0
Core_0_DTLB_prefetch_miss 0
Core_0_DTLB_prefetch_MPKI 0
Core_0_DTLB_prefetch_miss_rate 0
Core_0_DTLB_writeback_access 0
Core_0_DTLB_writeback_hit 0
Core_0_DTLB_writeback_miss 0
Core_0_DTLB_writeback_MPKI 0
Core_0_DTLB_writeback_miss_rate 0
Core_0_DTLB_prefetch_requested 0
Core_0_DTLB_prefetch_issued 0
Core_0_DTLB_prefetch_useful 0
Core_0_DTLB_prefetch_useless 0
Core_0_DTLB_prefetch_late 0
Core_0_DTLB_prefetch_accuracy 0
Core_0_DTLB_prefetch_coverage 0
Core_0_DTLB_total_eviction 1635881

Core_0_STLB_total_access 1635881
Core_0_STLB_total_hit 1635881
Core_0_STLB_total_miss 0
Core_0_STLB_total_MPKI 0
Core_0_STLB_total_miss_rate 0
Core_0_STLB_demand_access 1635881
Core_0_STLB_demand_hit 1635881
Core_0_STLB_demand_miss 0
Core_0_STLB_demand_MPKI 0
Core_0_STLB_demand_miss_rate 0
Core_0_STLB_load_access 1635881
Core_0_STLB_load_hit 1635881
Core_0_STLB_load_miss 0
Core_0_STLB_load_MPKI 0
Core_0_STLB_load_miss_rate 0
Core_0_STLB_rfo_access 0
Core_0_STLB_rfo_hit 0
Core_0_STLB_rfo_miss 0
Core_0_STLB_rfo_MPKI 0
Core_0_STLB_rfo_miss_rate 0
Core_0_STLB_prefetch_access 0
Core_0_STLB_prefetch_hit 0
Core_0_STLB_prefetch_miss 0
Core_0_STLB_prefetch_MPKI 0
Core_0_STLB_prefetch_miss_rate 0
Core_0_STLB_writeback_access 0
Core_0_STLB_writeback_hit 0
Core_0_STLB_writeback_miss 0
Core_0_STLB_writeback_MPKI 0
Core_0_STLB_writeback_miss_rate 0
Core_0_STLB_prefetch_requested 0
Core_0_STLB_prefetch_issued 0
Core_0_STLB_prefetch_useful 0
Core_0_STLB_prefetch_useless 0
Core_0_STLB_prefetch_late 0
Core_0_STLB_prefetch_accuracy 0
Core_0_STLB_prefetch_coverage 0
Core_0_STLB_total_eviction 808361

Core_0_L1I_total_access 720448
Core_0_L1I_total_hit 720441
Core_0_L1I_total_miss 7
Core_0_L1I_total_MPKI 0.00014
Core_0_L1I_total_miss_rate 9.71618e-06
Core_0_L1I_demand_access 720448
Core_0_L1I_demand_hit 720441
Core_0_L1I_demand_miss 7
Core_0_L1I_demand_MPKI 0.00014
Core_0_L1I_demand_miss_rate 9.71618e-06
Core_0_L1I_load_access 720448
Core_0_L1I_load_hit 720441
Core_0_L1I_load_miss 7
Core_0_L1I_load_MPKI 0.00014
Core_0_L1I_load_miss_rate 9.71618e-06
Core_0_L1I_rfo_access 0
Core_0_L1I_rfo_hit 0
Core_0_L1I_rfo_miss 0
Core_0_L1I_rfo_MPKI 0
Core_0_L1I_rfo_miss_rate 0
Core_0_L1I_prefetch_access 0
Core_0_L1I_prefetch_hit 0
Core_0_L1I_prefetch_miss 0
Core_0_L1I_prefetch_MPKI 0
Core_0_L1I_prefetch_miss_rate 0
Core_0_L1I_writeback_access 0
Core_0_L1I_writeback_hit 0
Core_0_L1I_writeback_miss 0
Core_0_L1I_writeback_MPKI 0
Core_0_L1I_writeback_miss_rate 0
Core_0_L1I_prefetch_requested 0
Core_0_L1I_prefetch_issued 0
Core_0_L1I_prefetch_useful 0
Core_0_L1I_prefetch_useless 0
Core_0_L1I_prefetch_late 0
Core_0_L1I_prefetch_accuracy 0
Core_0_L1I_prefetch_coverage 0
Core_0_L1I_total_eviction 0

Core_0_L1D_total_access 24479098
Core_0_L1D_total_hit 19986931
Core_0_L1D_total_miss 4492167
Core_0_L1D_total_MPKI 89.8433
Core_0_L1D_total_miss_rate 0.18351
Core_0_L1D_demand_access 13709826
Core_0_L1D_demand_hit 11499790
Core_0_L1D_demand_miss 2210036
Core_0_L1D_demand_MPKI 44.2007
Core_0_L1D_demand_miss_rate 0.161201
Core_0_L1D_load_access 13709826
Core_0_L1D_load_hit 11499790
Core_0_L1D_load_miss 2210036
Core_0_L1D_load_MPKI 44.2007
Core_0_L1D_load_miss_rate 0.161201
Core_0_L1D_rfo_access 0
Core_0_L1D_rfo_hit 0
Core_0_L1D_rfo_miss 0
Core_0_L1D_rfo_MPKI 0
Core_0_L1D_rfo_miss_rate 0
Core_0_L1D_prefetch_access 4454003
Core_0_L1D_prefetch_hit 2896785
Core_0_L1D_prefetch_miss 1557218
Core_0_L1D_prefetch_MPKI 31.1444
Core_0_L1D_prefetch_miss_rate 0.349622
Core_0_L1D_writeback_access 6315269
Core_0_L1D_writeback_hit 5590356
Core_0_L1D_writeback_miss 724913
Core_0_L1D_writeback_MPKI 14.4983
Core_0_L1D_writeback_miss_rate 0.114787
Core_0_L1D_prefetch_requested 130850159
Core_0_L1D_prefetch_issued 4454006
Core_0_L1D_prefetch_useful 80080
Core_0_L1D_prefetch_useless 12342
Core_0_L1D_prefetch_late 7075
Core_0_L1D_prefetch_accuracy 0.0179793
Core_0_L1D_prefetch_coverage 0.0349677
Core_0_L1D_total_eviction 2433543

Core_0_L2C_total_access 5687379
Core_0_L2C_total_hit 3772742
Core_0_L2C_total_miss 1914637
Core_0_L2C_total_MPKI 38.2927
Core_0_L2C_total_miss_rate 0.336647
Core_0_L2C_demand_access 2341143
Core_0_L2C_demand_hit 667337
Core_0_L2C_demand_miss 1673806
Core_0_L2C_demand_MPKI 33.4761
Core_0_L2C_demand_miss_rate 0.714952
Core_0_L2C_load_access 1616301
Core_0_L2C_load_hit 655713
Core_0_L2C_load_miss 960588
Core_0_L2C_load_MPKI 19.2118
Core_0_L2C_load_miss_rate 0.594313
Core_0_L2C_rfo_access 724842
Core_0_L2C_rfo_hit 11624
Core_0_L2C_rfo_miss 713218
Core_0_L2C_rfo_MPKI 14.2644
Core_0_L2C_rfo_miss_rate 0.983963
Core_0_L2C_prefetch_access 2186940
Core_0_L2C_prefetch_hit 1946247
Core_0_L2C_prefetch_miss 240693
Core_0_L2C_prefetch_MPKI 4.81386
Core_0_L2C_prefetch_miss_rate 0.110059
Core_0_L2C_writeback_access 1159296
Core_0_L2C_writeback_hit 1159158
Core_0_L2C_writeback_miss 138
Core_0_L2C_writeback_MPKI 0.00276
Core_0_L2C_writeback_miss_rate 0.000119038
Core_0_L2C_prefetch_requested 685013
Core_0_L2C_prefetch_issued 684910
Core_0_L2C_prefetch_useful 49355
Core_0_L2C_prefetch_useless 8859
Core_0_L2C_prefetch_late 16135
Core_0_L2C_prefetch_accuracy 0.0720606
Core_0_L2C_prefetch_coverage 0.0286421
Core_0_L2C_total_eviction 1765987

Core_0_LLC_total_access 2920644
Core_0_LLC_total_hit 552144
Core_0_LLC_total_miss 2368500
Core_0_LLC_total_MPKI 47.37
Core_0_LLC_total_miss_rate 0.810951
Core_0_LLC_demand_access 1654474
Core_0_LLC_demand_hit 192961
Core_0_LLC_demand_miss 1461513
Core_0_LLC_demand_MPKI 29.2303
Core_0_LLC_demand_miss_rate 0.88337
Core_0_LLC_load_access 942300
Core_0_LLC_load_hit 59025
Core_0_LLC_load_miss 883275
Core_0_LLC_load_MPKI 17.6655
Core_0_LLC_load_miss_rate 0.937361
Core_0_LLC_rfo_access 712174
Core_0_LLC_rfo_hit 133936
Core_0_LLC_rfo_miss 578238
Core_0_LLC_rfo_MPKI 11.5648
Core_0_LLC_rfo_miss_rate 0.811934
Core_0_LLC_prefetch_access 152993
Core_0_LLC_prefetch_hit 20951
Core_0_LLC_prefetch_miss 132042
Core_0_LLC_prefetch_MPKI 2.64084
Core_0_LLC_prefetch_miss_rate 0.863059
Core_0_LLC_writeback_access 1113177
Core_0_LLC_writeback_hit 338232
Core_0_LLC_writeback_miss 774945
Core_0_LLC_writeback_MPKI 15.4989
Core_0_LLC_writeback_miss_rate 0.696156
Core_0_LLC_prefetch_requested 0
Core_0_LLC_prefetch_issued 0
Core_0_LLC_prefetch_useful 0
Core_0_LLC_prefetch_useless 0
Core_0_LLC_prefetch_late 0
Core_0_LLC_prefetch_accuracy 0
Core_0_LLC_prefetch_coverage 0
Core_0_LLC_total_eviction 2345828

[DRAM Statistics]
Channel_0_RQ_row_buffer_hit 61593
Channel_0_RQ_row_buffer_miss 1508842
Channel_0_WQ_row_buffer_hit 233584
Channel_0_WQ_row_buffer_miss 698803
Channel_0_WQ_full 5912
Channel_0_dbus_congested 11696382
DRAM_total_RQ_row_buffer_hit 61593
DRAM_total_RQ_row_buffer_miss 1508842
DRAM_total_WQ_row_buffer_hit 233584
DRAM_total_WQ_row_buffer_miss 698803
DRAM_total_WQ_full 5912
DRAM_total_dbus_congested 11696382
DRAM_avg_congested_cycle 17.0907

======STLB miss causes ========
Core_0_STLB_miss_cause_breakdown
Core_0_STLB_cause_Demand_Data_miss 0
Core_0_STLB_cause_Demand_Data_miss_rate 0
Core_0_STLB_cause_Demand_Instruction_miss 0
Core_0_STLB_cause_Demand_Instruction_miss_rate 0
Core_0_STLB_cause_L1D_Prefetch_miss 0
Core_0_STLB_cause_L1D_Prefetch_miss_rate 0
Core_0_STLB_cause_L1I_Prefetch_miss 0
Core_0_STLB_cause_L1I_Prefetch_miss_rate 0
Core_0_STLB_cause_Other_miss 0
Core_0_STLB_cause_Other_miss_rate 0
Core_0_STLB_Demand_miss 0
Core_0_STLB_Demand_miss_rate 0
Core_0_STLB_L1D_Prefetch_miss 0
Core_0_STLB_L1D_Prefetch_miss_rate 0
Core_0_STLB_Other_miss 0
Core_0_STLB_Other_miss_rate 0
BERTI TO_L1: 3961741 TO_L2: 131651054 TO_L2_BC_MSHR: 72205447
BERTI AVG_LAT: 204.616 NUM_TRACK_LATENCY: 3470263 NUM_CANT_TRACK_LATENCY: 391
BERTI CROSS_PAGE 92037993 NO_CROSS_PAGE: 43574802
BERTI FOUND_BERTI: 55286054 NO_FOUND_BERTI: 16586291
BERTI AVERAGE_ISSUED: 4.4071
