[VMEM] WARNING: physical memory size is smaller than virtual memory size.

*** ChampSim Multicore Out-of-Order Simulator ***
Warmup Instructions: 20000000
Simulation Instructions: 50000000
Number of CPUs: 1
Page size: 4096
STLB ideal mode: all
STLB ideal fill: on
Core 0: /data0/tzh/champsim_traces/SPEC17/623.xalancbmk_s-10B.champsimtrace.xz
VBerti Prefetcher
BERTI HASH ENTANGLING
BERTI IP MASK ffff
Off-chip DRAM Size: 16 GiB Channels: 1 Width: 64-bit Data Rate: 3205 MT/s
Warmup halting CPU 0 at instruction 20000004 cycle 4571772 for remainder of phase
Warmup finished CPU 0 instructions: 20000004 cycles: 4571772 cumulative IPC: 4.375 (Simulation time: 00 hr 00 min 56 sec)
Warmup complete CPU 0 instructions: 20000004 cycles: 4571772 cumulative IPC: 4.375 (Simulation time: 00 hr 00 min 56 sec)
Simulation finished CPU 0 instructions: 50000003 cycles: 68411000 cumulative IPC: 0.7309 (Simulation time: 00 hr 08 min 45 sec)
Simulation complete CPU 0 instructions: 50000003 cycles: 68411000 cumulative IPC: 0.7309 (Simulation time: 00 hr 08 min 45 sec)

ChampSim completed all CPUs

=== Simulation ===
CPU 0 runs /data0/tzh/champsim_traces/SPEC17/623.xalancbmk_s-10B.champsimtrace.xz

Region of Interest Statistics

CPU 0 cumulative IPC: 0.7309 instructions: 50000003 cycles: 68411000
CPU 0 Branch Prediction Accuracy: 99.32% MPKI: 1.761 Average ROB Occupancy at Mispredict: 95.76
Branch type MPKI
BRANCH_DIRECT_JUMP: 0.09068
BRANCH_INDIRECT: 0.01906
BRANCH_CONDITIONAL: 1.151
BRANCH_DIRECT_CALL: 4e-05
BRANCH_INDIRECT_CALL: 0.1207
BRANCH_RETURN: 0.3802

cpu0->cpu0_STLB TOTAL        ACCESS:     375729 HIT:     375729 MISS:          0 MSHR_MERGE:          0
cpu0->cpu0_STLB LOAD         ACCESS:     375729 HIT:     375729 MISS:          0 MSHR_MERGE:          0
cpu0->cpu0_STLB RFO          ACCESS:          0 HIT:          0 MISS:          0 MSHR_MERGE:          0
cpu0->cpu0_STLB PREFETCH     ACCESS:          0 HIT:          0 MISS:          0 MSHR_MERGE:          0
cpu0->cpu0_STLB WRITE        ACCESS:          0 HIT:          0 MISS:          0 MSHR_MERGE:          0
cpu0->cpu0_STLB TRANSLATION  ACCESS:          0 HIT:          0 MISS:          0 MSHR_MERGE:          0
cpu0->cpu0_STLB PREFETCH REQUESTED:          0 ISSUED:          0 USEFUL:          0 USELESS:          0 LATE:          0
cpu0->cpu0_STLB AVERAGE MISS LATENCY: - cycles
cpu0->cpu0_L2C TOTAL        ACCESS:    1733831 HIT:     417553 MISS:    1316278 MSHR_MERGE:      17015
cpu0->cpu0_L2C LOAD         ACCESS:    1491612 HIT:     279872 MISS:    1211740 MSHR_MERGE:        944
cpu0->cpu0_L2C RFO          ACCESS:      17973 HIT:       6762 MISS:      11211 MSHR_MERGE:         50
cpu0->cpu0_L2C PREFETCH     ACCESS:     186072 HIT:      92919 MISS:      93153 MSHR_MERGE:      16021
cpu0->cpu0_L2C WRITE        ACCESS:      38174 HIT:      38000 MISS:        174 MSHR_MERGE:          0
cpu0->cpu0_L2C TRANSLATION  ACCESS:          0 HIT:          0 MISS:          0 MSHR_MERGE:          0
cpu0->cpu0_L2C PREFETCH REQUESTED:     107634 ISSUED:     107103 USEFUL:      31033 USELESS:      10427 LATE:        384
cpu0->cpu0_L2C AVERAGE MISS LATENCY: 114.1 cycles
cpu0->cpu0_L1I TOTAL        ACCESS:    7556704 HIT:    7299352 MISS:     257352 MSHR_MERGE:      81654
cpu0->cpu0_L1I LOAD         ACCESS:    7556704 HIT:    7299352 MISS:     257352 MSHR_MERGE:      81654
cpu0->cpu0_L1I RFO          ACCESS:          0 HIT:          0 MISS:          0 MSHR_MERGE:          0
cpu0->cpu0_L1I PREFETCH     ACCESS:          0 HIT:          0 MISS:          0 MSHR_MERGE:          0
cpu0->cpu0_L1I WRITE        ACCESS:          0 HIT:          0 MISS:          0 MSHR_MERGE:          0
cpu0->cpu0_L1I TRANSLATION  ACCESS:          0 HIT:          0 MISS:          0 MSHR_MERGE:          0
cpu0->cpu0_L1I PREFETCH REQUESTED:          0 ISSUED:          0 USEFUL:          0 USELESS:          0 LATE:          0
cpu0->cpu0_L1I AVERAGE MISS LATENCY: 12.06 cycles
cpu0->cpu0_L1D TOTAL        ACCESS:   13256744 HIT:   10482274 MISS:    2774470 MSHR_MERGE:    1361000
cpu0->cpu0_L1D LOAD         ACCESS:   10479809 HIT:    7866811 MISS:    2612998 MSHR_MERGE:    1297084
cpu0->cpu0_L1D RFO          ACCESS:          0 HIT:          0 MISS:          0 MSHR_MERGE:          0
cpu0->cpu0_L1D PREFETCH     ACCESS:     378899 HIT:     298997 MISS:      79902 MSHR_MERGE:        319
cpu0->cpu0_L1D WRITE        ACCESS:    2398036 HIT:    2316466 MISS:      81570 MSHR_MERGE:      63597
cpu0->cpu0_L1D TRANSLATION  ACCESS:          0 HIT:          0 MISS:          0 MSHR_MERGE:          0
cpu0->cpu0_L1D PREFETCH REQUESTED:    2156003 ISSUED:     378899 USEFUL:      28844 USELESS:       2196 LATE:        226
cpu0->cpu0_L1D AVERAGE MISS LATENCY: 113 cycles
cpu0->cpu0_ITLB TOTAL        ACCESS:    6828330 HIT:    6751245 MISS:      77085 MSHR_MERGE:      45391
cpu0->cpu0_ITLB LOAD         ACCESS:    6828330 HIT:    6751245 MISS:      77085 MSHR_MERGE:      45391
cpu0->cpu0_ITLB RFO          ACCESS:          0 HIT:          0 MISS:          0 MSHR_MERGE:          0
cpu0->cpu0_ITLB PREFETCH     ACCESS:          0 HIT:          0 MISS:          0 MSHR_MERGE:          0
cpu0->cpu0_ITLB WRITE        ACCESS:          0 HIT:          0 MISS:          0 MSHR_MERGE:          0
cpu0->cpu0_ITLB TRANSLATION  ACCESS:          0 HIT:          0 MISS:          0 MSHR_MERGE:          0
cpu0->cpu0_ITLB PREFETCH REQUESTED:          0 ISSUED:          0 USEFUL:          0 USELESS:          0 LATE:          0
cpu0->cpu0_ITLB AVERAGE MISS LATENCY: 5.005 cycles
cpu0->cpu0_DTLB TOTAL        ACCESS:   12840168 HIT:   12186319 MISS:     653849 MSHR_MERGE:     309814
cpu0->cpu0_DTLB LOAD         ACCESS:   12840168 HIT:   12186319 MISS:     653849 MSHR_MERGE:     309814
cpu0->cpu0_DTLB RFO          ACCESS:          0 HIT:          0 MISS:          0 MSHR_MERGE:          0
cpu0->cpu0_DTLB PREFETCH     ACCESS:          0 HIT:          0 MISS:          0 MSHR_MERGE:          0
cpu0->cpu0_DTLB WRITE        ACCESS:          0 HIT:          0 MISS:          0 MSHR_MERGE:          0
cpu0->cpu0_DTLB TRANSLATION  ACCESS:          0 HIT:          0 MISS:          0 MSHR_MERGE:          0
cpu0->cpu0_DTLB PREFETCH REQUESTED:          0 ISSUED:          0 USEFUL:          0 USELESS:          0 LATE:          0
cpu0->cpu0_DTLB AVERAGE MISS LATENCY: 5.001 cycles
cpu0->LLC TOTAL        ACCESS:    1320134 HIT:     673489 MISS:     646645 MSHR_MERGE:        585
cpu0->LLC LOAD         ACCESS:    1210796 HIT:     627344 MISS:     583452 MSHR_MERGE:         78
cpu0->LLC RFO          ACCESS:      11161 HIT:       3836 MISS:       7325 MSHR_MERGE:         22
cpu0->LLC PREFETCH     ACCESS:      77132 HIT:      26644 MISS:      50488 MSHR_MERGE:        485
cpu0->LLC WRITE        ACCESS:      21045 HIT:      15665 MISS:       5380 MSHR_MERGE:          0
cpu0->LLC TRANSLATION  ACCESS:          0 HIT:          0 MISS:          0 MSHR_MERGE:          0
cpu0->LLC PREFETCH REQUESTED:          0 ISSUED:          0 USEFUL:          0 USELESS:          0 LATE:          0
cpu0->LLC AVERAGE MISS LATENCY: 202.3 cycles

DRAM Statistics

Channel 0 RQ ROW_BUFFER_HIT:       8372
  ROW_BUFFER_MISS:     632301
  AVG DBUS CONGESTED CYCLE: 8.339
Channel 0 WQ ROW_BUFFER_HIT:       4348
  ROW_BUFFER_MISS:       6451
  FULL:          0
Channel 0 REFRESHES ISSUED:       5701

[ROI Statistics]
[System Configuration]
num_cpus 1
cpu_freq 4000
fetch_width 6
decode_width 6
dispatch_width 6
execute_width 6
lq_width 2
sq_width 2
retire_width 6
scheduler_size 128
branch_mispredict_penalty 15
rob_size 352
lq_size 128
sq_size 72
ifetch_buffer_size 64
decode_buffer_size 32
dispatch_buffer_size 32
register_file_size 288
decode_latency 1
dispatch_latency 1
schedule_latency 1
execute_latency 1
page_size 4096
block_size 64
core_0_itlb_set 16
core_0_itlb_way 4
core_0_itlb_rq_size 16
core_0_itlb_wq_size 16
core_0_itlb_pq_size 0
core_0_itlb_mshr_size 8
core_0_itlb_hit_latency 1
core_0_itlb_fill_latency 1
core_0_itlb_max_tag_check 2
core_0_itlb_max_fill 2
core_0_dtlb_set 16
core_0_dtlb_way 4
core_0_dtlb_rq_size 16
core_0_dtlb_wq_size 16
core_0_dtlb_pq_size 0
core_0_dtlb_mshr_size 8
core_0_dtlb_hit_latency 1
core_0_dtlb_fill_latency 1
core_0_dtlb_max_tag_check 2
core_0_dtlb_max_fill 2
core_0_stlb_set 128
core_0_stlb_way 12
core_0_stlb_rq_size 32
core_0_stlb_wq_size 32
core_0_stlb_pq_size 0
core_0_stlb_mshr_size 16
core_0_stlb_hit_latency 4
core_0_stlb_fill_latency 4
core_0_stlb_max_tag_check 1
core_0_stlb_max_fill 1
core_0_l1i_set 64
core_0_l1i_way 8
core_0_l1i_rq_size 64
core_0_l1i_wq_size 64
core_0_l1i_pq_size 32
core_0_l1i_mshr_size 8
core_0_l1i_hit_latency 2
core_0_l1i_fill_latency 2
core_0_l1i_max_tag_check 2
core_0_l1i_max_fill 2
core_0_l1d_set 64
core_0_l1d_way 12
core_0_l1d_rq_size 64
core_0_l1d_wq_size 64
core_0_l1d_pq_size 8
core_0_l1d_mshr_size 16
core_0_l1d_hit_latency 2
core_0_l1d_fill_latency 3
core_0_l1d_max_tag_check 2
core_0_l1d_max_fill 2
core_0_l2c_set 1024
core_0_l2c_way 8
core_0_l2c_rq_size 32
core_0_l2c_wq_size 32
core_0_l2c_pq_size 16
core_0_l2c_mshr_size 32
core_0_l2c_hit_latency 5
core_0_l2c_fill_latency 5
core_0_l2c_max_tag_check 1
core_0_l2c_max_fill 1
llc_set 2048
llc_way 16
llc_rq_size 32
llc_wq_size 32
llc_pq_size 32
llc_mshr_size 64
llc_hit_latency 10
llc_fill_latency 10
llc_max_tag_check 1
llc_max_fill 1
dram_channels 1
dram_ranks 1
dram_bankgroups 8
dram_banks 4
dram_rows 65536
dram_columns 1024
dram_channel_width 8
dram_rq_size 64
dram_wq_size 64
dram_size 17179869184
core_0_itlb_prefetcher no
core_0_dtlb_prefetcher no
core_0_stlb_prefetcher no
core_0_l1i_prefetcher next_line
core_0_l1d_prefetcher vberti
core_0_l2c_prefetcher ip_stride
llc_prefetcher no
llc_replacement drrip

Core_0_instructions 50000003
Core_0_cycles 68411000
Core_0_IPC 0.730877
Core_0_branch_prediction_accuracy 99.3209
Core_0_branch_MPKI 1.76126
Core_0_average_ROB_occupancy_at_mispredict 95.765

Core_0_ITLB_total_access 6828330
Core_0_ITLB_total_hit 6751245
Core_0_ITLB_total_miss 77085
Core_0_ITLB_total_MPKI 1.5417
Core_0_ITLB_total_miss_rate 0.011289
Core_0_ITLB_demand_access 6828330
Core_0_ITLB_demand_hit 6751245
Core_0_ITLB_demand_miss 77085
Core_0_ITLB_demand_MPKI 1.5417
Core_0_ITLB_demand_miss_rate 0.011289
Core_0_ITLB_load_access 6828330
Core_0_ITLB_load_hit 6751245
Core_0_ITLB_load_miss 77085
Core_0_ITLB_load_MPKI 1.5417
Core_0_ITLB_load_miss_rate 0.011289
Core_0_ITLB_rfo_access 0
Core_0_ITLB_rfo_hit 0
Core_0_ITLB_rfo_miss 0
Core_0_ITLB_rfo_MPKI 0
Core_0_ITLB_rfo_miss_rate 0
Core_0_ITLB_prefetch_access 0
Core_0_ITLB_prefetch_hit 0
Core_0_ITLB_prefetch_miss 0
Core_0_ITLB_prefetch_MPKI 0
Core_0_ITLB_prefetch_miss_rate 0
Core_0_ITLB_writeback_access 0
Core_0_ITLB_writeback_hit 0
Core_0_ITLB_writeback_miss 0
Core_0_ITLB_writeback_MPKI 0
Core_0_ITLB_writeback_miss_rate 0
Core_0_ITLB_prefetch_requested 0
Core_0_ITLB_prefetch_issued 0
Core_0_ITLB_prefetch_useful 0
Core_0_ITLB_prefetch_useless 0
Core_0_ITLB_prefetch_late 0
Core_0_ITLB_prefetch_accuracy 0
Core_0_ITLB_prefetch_coverage 0
Core_0_ITLB_total_eviction 31694

Core_0_DTLB_total_access 12840168
Core_0_DTLB_total_hit 12186319
Core_0_DTLB_total_miss 653849
Core_0_DTLB_total_MPKI 13.077
Core_0_DTLB_total_miss_rate 0.0509222
Core_0_DTLB_demand_access 12840168
Core_0_DTLB_demand_hit 12186319
Core_0_DTLB_demand_miss 653849
Core_0_DTLB_demand_MPKI 13.077
Core_0_DTLB_demand_miss_rate 0.0509222
Core_0_DTLB_load_access 12840168
Core_0_DTLB_load_hit 12186319
Core_0_DTLB_load_miss 653849
Core_0_DTLB_load_MPKI 13.077
Core_0_DTLB_load_miss_rate 0.0509222
Core_0_DTLB_rfo_access 0
Core_0_DTLB_rfo_hit 0
Core_0_DTLB_rfo_miss 0
Core_0_DTLB_rfo_MPKI 0
Core_0_DTLB_rfo_miss_rate 0
Core_0_DTLB_prefetch_access 0
Core_0_DTLB_prefetch_hit 0
Core_0_DTLB_prefetch_miss 0
Core_0_DTLB_prefetch_MPKI 0
Core_0_DTLB_prefetch_miss_rate 0
Core_0_DTLB_writeback_access 0
Core_0_DTLB_writeback_hit 0
Core_0_DTLB_writeback_miss 0
Core_0_DTLB_writeback_MPKI 0
Core_0_DTLB_writeback_miss_rate 0
Core_0_DTLB_prefetch_requested 0
Core_0_DTLB_prefetch_issued 0
Core_0_DTLB_prefetch_useful 0
Core_0_DTLB_prefetch_useless 0
Core_0_DTLB_prefetch_late 0
Core_0_DTLB_prefetch_accuracy 0
Core_0_DTLB_prefetch_coverage 0
Core_0_DTLB_total_eviction 344035

Core_0_STLB_total_access 375729
Core_0_STLB_total_hit 375729
Core_0_STLB_total_miss 0
Core_0_STLB_total_MPKI 0
Core_0_STLB_total_miss_rate 0
Core_0_STLB_demand_access 375729
Core_0_STLB_demand_hit 375729
Core_0_STLB_demand_miss 0
Core_0_STLB_demand_MPKI 0
Core_0_STLB_demand_miss_rate 0
Core_0_STLB_load_access 375729
Core_0_STLB_load_hit 375729
Core_0_STLB_load_miss 0
Core_0_STLB_load_MPKI 0
Core_0_STLB_load_miss_rate 0
Core_0_STLB_rfo_access 0
Core_0_STLB_rfo_hit 0
Core_0_STLB_rfo_miss 0
Core_0_STLB_rfo_MPKI 0
Core_0_STLB_rfo_miss_rate 0
Core_0_STLB_prefetch_access 0
Core_0_STLB_prefetch_hit 0
Core_0_STLB_prefetch_miss 0
Core_0_STLB_prefetch_MPKI 0
Core_0_STLB_prefetch_miss_rate 0
Core_0_STLB_writeback_access 0
Core_0_STLB_writeback_hit 0
Core_0_STLB_writeback_miss 0
Core_0_STLB_writeback_MPKI 0
Core_0_STLB_writeback_miss_rate 0
Core_0_STLB_prefetch_requested 0
Core_0_STLB_prefetch_issued 0
Core_0_STLB_prefetch_useful 0
Core_0_STLB_prefetch_useless 0
Core_0_STLB_prefetch_late 0
Core_0_STLB_prefetch_accuracy 0
Core_0_STLB_prefetch_coverage 0
Core_0_STLB_total_eviction 262206

Core_0_L1I_total_access 7556704
Core_0_L1I_total_hit 7299352
Core_0_L1I_total_miss 257352
Core_0_L1I_total_MPKI 5.14704
Core_0_L1I_total_miss_rate 0.0340561
Core_0_L1I_demand_access 7556704
Core_0_L1I_demand_hit 7299352
Core_0_L1I_demand_miss 257352
Core_0_L1I_demand_MPKI 5.14704
Core_0_L1I_demand_miss_rate 0.0340561
Core_0_L1I_load_access 7556704
Core_0_L1I_load_hit 7299352
Core_0_L1I_load_miss 257352
Core_0_L1I_load_MPKI 5.14704
Core_0_L1I_load_miss_rate 0.0340561
Core_0_L1I_rfo_access 0
Core_0_L1I_rfo_hit 0
Core_0_L1I_rfo_miss 0
Core_0_L1I_rfo_MPKI 0
Core_0_L1I_rfo_miss_rate 0
Core_0_L1I_prefetch_access 0
Core_0_L1I_prefetch_hit 0
Core_0_L1I_prefetch_miss 0
Core_0_L1I_prefetch_MPKI 0
Core_0_L1I_prefetch_miss_rate 0
Core_0_L1I_writeback_access 0
Core_0_L1I_writeback_hit 0
Core_0_L1I_writeback_miss 0
Core_0_L1I_writeback_MPKI 0
Core_0_L1I_writeback_miss_rate 0
Core_0_L1I_prefetch_requested 0
Core_0_L1I_prefetch_issued 0
Core_0_L1I_prefetch_useful 0
Core_0_L1I_prefetch_useless 0
Core_0_L1I_prefetch_late 0
Core_0_L1I_prefetch_accuracy 0
Core_0_L1I_prefetch_coverage 0
Core_0_L1I_total_eviction 175698

Core_0_L1D_total_access 13256744
Core_0_L1D_total_hit 10482274
Core_0_L1D_total_miss 2774470
Core_0_L1D_total_MPKI 55.4894
Core_0_L1D_total_miss_rate 0.209287
Core_0_L1D_demand_access 10479809
Core_0_L1D_demand_hit 7866811
Core_0_L1D_demand_miss 2612998
Core_0_L1D_demand_MPKI 52.26
Core_0_L1D_demand_miss_rate 0.249336
Core_0_L1D_load_access 10479809
Core_0_L1D_load_hit 7866811
Core_0_L1D_load_miss 2612998
Core_0_L1D_load_MPKI 52.26
Core_0_L1D_load_miss_rate 0.249336
Core_0_L1D_rfo_access 0
Core_0_L1D_rfo_hit 0
Core_0_L1D_rfo_miss 0
Core_0_L1D_rfo_MPKI 0
Core_0_L1D_rfo_miss_rate 0
Core_0_L1D_prefetch_access 378899
Core_0_L1D_prefetch_hit 298997
Core_0_L1D_prefetch_miss 79902
Core_0_L1D_prefetch_MPKI 1.59804
Core_0_L1D_prefetch_miss_rate 0.210879
Core_0_L1D_writeback_access 2398036
Core_0_L1D_writeback_hit 2316466
Core_0_L1D_writeback_miss 81570
Core_0_L1D_writeback_MPKI 1.6314
Core_0_L1D_writeback_miss_rate 0.0340153
Core_0_L1D_prefetch_requested 2156003
Core_0_L1D_prefetch_issued 378899
Core_0_L1D_prefetch_useful 28844
Core_0_L1D_prefetch_useless 2196
Core_0_L1D_prefetch_late 226
Core_0_L1D_prefetch_accuracy 0.0761258
Core_0_L1D_prefetch_coverage 0.0109181
Core_0_L1D_total_eviction 1364925

Core_0_L2C_total_access 1733831
Core_0_L2C_total_hit 417553
Core_0_L2C_total_miss 1316278
Core_0_L2C_total_MPKI 26.3256
Core_0_L2C_total_miss_rate 0.759173
Core_0_L2C_demand_access 1509585
Core_0_L2C_demand_hit 286634
Core_0_L2C_demand_miss 1222951
Core_0_L2C_demand_MPKI 24.459
Core_0_L2C_demand_miss_rate 0.810124
Core_0_L2C_load_access 1491612
Core_0_L2C_load_hit 279872
Core_0_L2C_load_miss 1211740
Core_0_L2C_load_MPKI 24.2348
Core_0_L2C_load_miss_rate 0.812369
Core_0_L2C_rfo_access 17973
Core_0_L2C_rfo_hit 6762
Core_0_L2C_rfo_miss 11211
Core_0_L2C_rfo_MPKI 0.22422
Core_0_L2C_rfo_miss_rate 0.623769
Core_0_L2C_prefetch_access 186072
Core_0_L2C_prefetch_hit 92919
Core_0_L2C_prefetch_miss 93153
Core_0_L2C_prefetch_MPKI 1.86306
Core_0_L2C_prefetch_miss_rate 0.500629
Core_0_L2C_writeback_access 38174
Core_0_L2C_writeback_hit 38000
Core_0_L2C_writeback_miss 174
Core_0_L2C_writeback_MPKI 0.00348
Core_0_L2C_writeback_miss_rate 0.00455808
Core_0_L2C_prefetch_requested 107634
Core_0_L2C_prefetch_issued 107103
Core_0_L2C_prefetch_useful 31033
Core_0_L2C_prefetch_useless 10427
Core_0_L2C_prefetch_late 384
Core_0_L2C_prefetch_accuracy 0.289749
Core_0_L2C_prefetch_coverage 0.0247475
Core_0_L2C_total_eviction 1298492

Core_0_LLC_total_access 1320134
Core_0_LLC_total_hit 673489
Core_0_LLC_total_miss 646645
Core_0_LLC_total_MPKI 12.9329
Core_0_LLC_total_miss_rate 0.489833
Core_0_LLC_demand_access 1221957
Core_0_LLC_demand_hit 631180
Core_0_LLC_demand_miss 590777
Core_0_LLC_demand_MPKI 11.8155
Core_0_LLC_demand_miss_rate 0.483468
Core_0_LLC_load_access 1210796
Core_0_LLC_load_hit 627344
Core_0_LLC_load_miss 583452
Core_0_LLC_load_MPKI 11.669
Core_0_LLC_load_miss_rate 0.481875
Core_0_LLC_rfo_access 11161
Core_0_LLC_rfo_hit 3836
Core_0_LLC_rfo_miss 7325
Core_0_LLC_rfo_MPKI 0.1465
Core_0_LLC_rfo_miss_rate 0.656303
Core_0_LLC_prefetch_access 77132
Core_0_LLC_prefetch_hit 26644
Core_0_LLC_prefetch_miss 50488
Core_0_LLC_prefetch_MPKI 1.00976
Core_0_LLC_prefetch_miss_rate 0.654566
Core_0_LLC_writeback_access 21045
Core_0_LLC_writeback_hit 15665
Core_0_LLC_writeback_miss 5380
Core_0_LLC_writeback_MPKI 0.1076
Core_0_LLC_writeback_miss_rate 0.255643
Core_0_LLC_prefetch_requested 0
Core_0_LLC_prefetch_issued 0
Core_0_LLC_prefetch_useful 0
Core_0_LLC_prefetch_useless 0
Core_0_LLC_prefetch_late 0
Core_0_LLC_prefetch_accuracy 0
Core_0_LLC_prefetch_coverage 0
Core_0_LLC_total_eviction 646055

[DRAM Statistics]
Channel_0_RQ_row_buffer_hit 8372
Channel_0_RQ_row_buffer_miss 632301
Channel_0_WQ_row_buffer_hit 4348
Channel_0_WQ_row_buffer_miss 6451
Channel_0_WQ_full 0
Channel_0_dbus_congested 729338
DRAM_total_RQ_row_buffer_hit 8372
DRAM_total_RQ_row_buffer_miss 632301
DRAM_total_WQ_row_buffer_hit 4348
DRAM_total_WQ_row_buffer_miss 6451
DRAM_total_WQ_full 0
DRAM_total_dbus_congested 729338
DRAM_avg_congested_cycle 8.33886

======STLB miss causes ========
Core_0_STLB_miss_cause_breakdown
Core_0_STLB_cause_Demand_Data_miss 0
Core_0_STLB_cause_Demand_Data_miss_rate 0
Core_0_STLB_cause_Demand_Instruction_miss 0
Core_0_STLB_cause_Demand_Instruction_miss_rate 0
Core_0_STLB_cause_L1D_Prefetch_miss 0
Core_0_STLB_cause_L1D_Prefetch_miss_rate 0
Core_0_STLB_cause_L1I_Prefetch_miss 0
Core_0_STLB_cause_L1I_Prefetch_miss_rate 0
Core_0_STLB_cause_Other_miss 0
Core_0_STLB_cause_Other_miss_rate 0
Core_0_STLB_Demand_miss 0
Core_0_STLB_Demand_miss_rate 0
Core_0_STLB_L1D_Prefetch_miss 0
Core_0_STLB_L1D_Prefetch_miss_rate 0
Core_0_STLB_Other_miss 0
Core_0_STLB_Other_miss_rate 0
BERTI TO_L1: 2450023 TO_L2: 353217 TO_L2_BC_MSHR: 29170
BERTI AVG_LAT: 80.2725 NUM_TRACK_LATENCY: 1931686 NUM_CANT_TRACK_LATENCY: 0
BERTI CROSS_PAGE 360927 NO_CROSS_PAGE: 2442313
BERTI FOUND_BERTI: 4734166 NO_FOUND_BERTI: 12367614
BERTI AVERAGE_ISSUED: 1.31082
