[VMEM] WARNING: physical memory size is smaller than virtual memory size.

*** ChampSim Multicore Out-of-Order Simulator ***
Warmup Instructions: 20000000
Simulation Instructions: 50000000
Number of CPUs: 1
Page size: 4096
STLB ideal mode: all
STLB ideal fill: on
Core 0: /data2/zcq/gap_dpc/bc-3.trace.gz
VBerti Prefetcher
BERTI HASH ENTANGLING
BERTI IP MASK ffff
Off-chip DRAM Size: 16 GiB Channels: 1 Width: 64-bit Data Rate: 3205 MT/s
Warmup halting CPU 0 at instruction 20000005 cycle 4936827 for remainder of phase
Warmup finished CPU 0 instructions: 20000005 cycles: 4936827 cumulative IPC: 4.051 (Simulation time: 00 hr 01 min 12 sec)
Warmup complete CPU 0 instructions: 20000005 cycles: 4936827 cumulative IPC: 4.051 (Simulation time: 00 hr 01 min 12 sec)
Simulation finished CPU 0 instructions: 50000004 cycles: 220874805 cumulative IPC: 0.2264 (Simulation time: 00 hr 18 min 49 sec)
Simulation complete CPU 0 instructions: 50000004 cycles: 220874805 cumulative IPC: 0.2264 (Simulation time: 00 hr 18 min 49 sec)

ChampSim completed all CPUs

=== Simulation ===
CPU 0 runs /data2/zcq/gap_dpc/bc-3.trace.gz

Region of Interest Statistics

CPU 0 cumulative IPC: 0.2264 instructions: 50000004 cycles: 220874805
CPU 0 Branch Prediction Accuracy: 92.7% MPKI: 15.55 Average ROB Occupancy at Mispredict: 55.71
Branch type MPKI
BRANCH_DIRECT_JUMP: 0
BRANCH_INDIRECT: 0
BRANCH_CONDITIONAL: 15.55
BRANCH_DIRECT_CALL: 0
BRANCH_INDIRECT_CALL: 0
BRANCH_RETURN: 0

cpu0->cpu0_STLB TOTAL        ACCESS:    1895748 HIT:    1895748 MISS:          0 MSHR_MERGE:          0
cpu0->cpu0_STLB LOAD         ACCESS:    1895748 HIT:    1895748 MISS:          0 MSHR_MERGE:          0
cpu0->cpu0_STLB RFO          ACCESS:          0 HIT:          0 MISS:          0 MSHR_MERGE:          0
cpu0->cpu0_STLB PREFETCH     ACCESS:          0 HIT:          0 MISS:          0 MSHR_MERGE:          0
cpu0->cpu0_STLB WRITE        ACCESS:          0 HIT:          0 MISS:          0 MSHR_MERGE:          0
cpu0->cpu0_STLB TRANSLATION  ACCESS:          0 HIT:          0 MISS:          0 MSHR_MERGE:          0
cpu0->cpu0_STLB PREFETCH REQUESTED:          0 ISSUED:          0 USEFUL:          0 USELESS:          0 LATE:          0
cpu0->cpu0_STLB AVERAGE MISS LATENCY: - cycles
cpu0->cpu0_L2C TOTAL        ACCESS:    6960448 HIT:    3040392 MISS:    3920056 MSHR_MERGE:      65261
cpu0->cpu0_L2C LOAD         ACCESS:    4104364 HIT:     724028 MISS:    3380336 MSHR_MERGE:      11001
cpu0->cpu0_L2C RFO          ACCESS:      13601 HIT:       3515 MISS:      10086 MSHR_MERGE:        338
cpu0->cpu0_L2C PREFETCH     ACCESS:    1877860 HIT:    1348491 MISS:     529369 MSHR_MERGE:      53922
cpu0->cpu0_L2C WRITE        ACCESS:     964623 HIT:     964358 MISS:        265 MSHR_MERGE:          0
cpu0->cpu0_L2C TRANSLATION  ACCESS:          0 HIT:          0 MISS:          0 MSHR_MERGE:          0
cpu0->cpu0_L2C PREFETCH REQUESTED:     407045 ISSUED:     406966 USEFUL:      88036 USELESS:     101005 LATE:       7544
cpu0->cpu0_L2C AVERAGE MISS LATENCY: 138.1 cycles
cpu0->cpu0_L1I TOTAL        ACCESS:      33908 HIT:      33908 MISS:          0 MSHR_MERGE:          0
cpu0->cpu0_L1I LOAD         ACCESS:      33908 HIT:      33908 MISS:          0 MSHR_MERGE:          0
cpu0->cpu0_L1I RFO          ACCESS:          0 HIT:          0 MISS:          0 MSHR_MERGE:          0
cpu0->cpu0_L1I PREFETCH     ACCESS:          0 HIT:          0 MISS:          0 MSHR_MERGE:          0
cpu0->cpu0_L1I WRITE        ACCESS:          0 HIT:          0 MISS:          0 MSHR_MERGE:          0
cpu0->cpu0_L1I TRANSLATION  ACCESS:          0 HIT:          0 MISS:          0 MSHR_MERGE:          0
cpu0->cpu0_L1I PREFETCH REQUESTED:          0 ISSUED:          0 USEFUL:          0 USELESS:          0 LATE:          0
cpu0->cpu0_L1I AVERAGE MISS LATENCY: - cycles
cpu0->cpu0_L1D TOTAL        ACCESS:   18323482 HIT:   12593796 MISS:    5729686 MSHR_MERGE:     115459
cpu0->cpu0_L1D LOAD         ACCESS:   11745885 HIT:    7560951 MISS:    4184934 MSHR_MERGE:      80569
cpu0->cpu0_L1D RFO          ACCESS:          0 HIT:          0 MISS:          0 MSHR_MERGE:          0
cpu0->cpu0_L1D PREFETCH     ACCESS:    4651206 HIT:    3150780 MISS:    1500426 MSHR_MERGE:       4165
cpu0->cpu0_L1D WRITE        ACCESS:    1926391 HIT:    1882065 MISS:      44326 MSHR_MERGE:      30725
cpu0->cpu0_L1D TRANSLATION  ACCESS:          0 HIT:          0 MISS:          0 MSHR_MERGE:          0
cpu0->cpu0_L1D PREFETCH REQUESTED:   12619428 ISSUED:    4651200 USEFUL:     222029 USELESS:      17454 LATE:       3492
cpu0->cpu0_L1D AVERAGE MISS LATENCY: 122.7 cycles
cpu0->cpu0_ITLB TOTAL        ACCESS:      23915 HIT:      23915 MISS:          0 MSHR_MERGE:          0
cpu0->cpu0_ITLB LOAD         ACCESS:      23915 HIT:      23915 MISS:          0 MSHR_MERGE:          0
cpu0->cpu0_ITLB RFO          ACCESS:          0 HIT:          0 MISS:          0 MSHR_MERGE:          0
cpu0->cpu0_ITLB PREFETCH     ACCESS:          0 HIT:          0 MISS:          0 MSHR_MERGE:          0
cpu0->cpu0_ITLB WRITE        ACCESS:          0 HIT:          0 MISS:          0 MSHR_MERGE:          0
cpu0->cpu0_ITLB TRANSLATION  ACCESS:          0 HIT:          0 MISS:          0 MSHR_MERGE:          0
cpu0->cpu0_ITLB PREFETCH REQUESTED:          0 ISSUED:          0 USEFUL:          0 USELESS:          0 LATE:          0
cpu0->cpu0_ITLB AVERAGE MISS LATENCY: - cycles
cpu0->cpu0_DTLB TOTAL        ACCESS:   16896848 HIT:   14433085 MISS:    2463763 MSHR_MERGE:     568015
cpu0->cpu0_DTLB LOAD         ACCESS:   16896848 HIT:   14433085 MISS:    2463763 MSHR_MERGE:     568015
cpu0->cpu0_DTLB RFO          ACCESS:          0 HIT:          0 MISS:          0 MSHR_MERGE:          0
cpu0->cpu0_DTLB PREFETCH     ACCESS:          0 HIT:          0 MISS:          0 MSHR_MERGE:          0
cpu0->cpu0_DTLB WRITE        ACCESS:          0 HIT:          0 MISS:          0 MSHR_MERGE:          0
cpu0->cpu0_DTLB TRANSLATION  ACCESS:          0 HIT:          0 MISS:          0 MSHR_MERGE:          0
cpu0->cpu0_DTLB PREFETCH REQUESTED:          0 ISSUED:          0 USEFUL:          0 USELESS:          0 LATE:          0
cpu0->cpu0_DTLB AVERAGE MISS LATENCY: 5.017 cycles
cpu0->LLC TOTAL        ACCESS:    4800172 HIT:    2061304 MISS:    2738868 MSHR_MERGE:       9987
cpu0->LLC LOAD         ACCESS:    3369330 HIT:    1629557 MISS:    1739773 MSHR_MERGE:       2023
cpu0->LLC RFO          ACCESS:       9748 HIT:         16 MISS:       9732 MSHR_MERGE:         44
cpu0->LLC PREFETCH     ACCESS:     475441 HIT:      61770 MISS:     413671 MSHR_MERGE:       7920
cpu0->LLC WRITE        ACCESS:     945653 HIT:     369961 MISS:     575692 MSHR_MERGE:          0
cpu0->LLC TRANSLATION  ACCESS:          0 HIT:          0 MISS:          0 MSHR_MERGE:          0
cpu0->LLC PREFETCH REQUESTED:          0 ISSUED:          0 USEFUL:          0 USELESS:          0 LATE:          0
cpu0->LLC AVERAGE MISS LATENCY: 179.8 cycles

DRAM Statistics

Channel 0 RQ ROW_BUFFER_HIT:      20681
  ROW_BUFFER_MISS:    2131587
  AVG DBUS CONGESTED CYCLE: 5.705
Channel 0 WQ ROW_BUFFER_HIT:     254399
  ROW_BUFFER_MISS:     483663
  FULL:          0
Channel 0 REFRESHES ISSUED:      18406

[ROI Statistics]
[System Configuration]
num_cpus 1
cpu_freq 4000
fetch_width 6
decode_width 6
dispatch_width 6
execute_width 6
lq_width 2
sq_width 2
retire_width 6
scheduler_size 128
branch_mispredict_penalty 15
rob_size 352
lq_size 128
sq_size 72
ifetch_buffer_size 64
decode_buffer_size 32
dispatch_buffer_size 32
register_file_size 288
decode_latency 1
dispatch_latency 1
schedule_latency 1
execute_latency 1
page_size 4096
block_size 64
core_0_itlb_set 16
core_0_itlb_way 4
core_0_itlb_rq_size 16
core_0_itlb_wq_size 16
core_0_itlb_pq_size 0
core_0_itlb_mshr_size 8
core_0_itlb_hit_latency 1
core_0_itlb_fill_latency 1
core_0_itlb_max_tag_check 2
core_0_itlb_max_fill 2
core_0_dtlb_set 16
core_0_dtlb_way 4
core_0_dtlb_rq_size 16
core_0_dtlb_wq_size 16
core_0_dtlb_pq_size 0
core_0_dtlb_mshr_size 8
core_0_dtlb_hit_latency 1
core_0_dtlb_fill_latency 1
core_0_dtlb_max_tag_check 2
core_0_dtlb_max_fill 2
core_0_stlb_set 128
core_0_stlb_way 12
core_0_stlb_rq_size 32
core_0_stlb_wq_size 32
core_0_stlb_pq_size 0
core_0_stlb_mshr_size 16
core_0_stlb_hit_latency 4
core_0_stlb_fill_latency 4
core_0_stlb_max_tag_check 1
core_0_stlb_max_fill 1
core_0_l1i_set 64
core_0_l1i_way 8
core_0_l1i_rq_size 64
core_0_l1i_wq_size 64
core_0_l1i_pq_size 32
core_0_l1i_mshr_size 8
core_0_l1i_hit_latency 2
core_0_l1i_fill_latency 2
core_0_l1i_max_tag_check 2
core_0_l1i_max_fill 2
core_0_l1d_set 64
core_0_l1d_way 12
core_0_l1d_rq_size 64
core_0_l1d_wq_size 64
core_0_l1d_pq_size 8
core_0_l1d_mshr_size 16
core_0_l1d_hit_latency 2
core_0_l1d_fill_latency 3
core_0_l1d_max_tag_check 2
core_0_l1d_max_fill 2
core_0_l2c_set 1024
core_0_l2c_way 8
core_0_l2c_rq_size 32
core_0_l2c_wq_size 32
core_0_l2c_pq_size 16
core_0_l2c_mshr_size 32
core_0_l2c_hit_latency 5
core_0_l2c_fill_latency 5
core_0_l2c_max_tag_check 1
core_0_l2c_max_fill 1
llc_set 2048
llc_way 16
llc_rq_size 32
llc_wq_size 32
llc_pq_size 32
llc_mshr_size 64
llc_hit_latency 10
llc_fill_latency 10
llc_max_tag_check 1
llc_max_fill 1
dram_channels 1
dram_ranks 1
dram_bankgroups 8
dram_banks 4
dram_rows 65536
dram_columns 1024
dram_channel_width 8
dram_rq_size 64
dram_wq_size 64
dram_size 17179869184
core_0_itlb_prefetcher no
core_0_dtlb_prefetcher no
core_0_stlb_prefetcher no
core_0_l1i_prefetcher next_line
core_0_l1d_prefetcher vberti
core_0_l2c_prefetcher ip_stride
llc_prefetcher no
llc_replacement drrip

Core_0_instructions 50000004
Core_0_cycles 220874805
Core_0_IPC 0.226373
Core_0_branch_prediction_accuracy 92.7003
Core_0_branch_MPKI 15.548
Core_0_average_ROB_occupancy_at_mispredict 55.7073

Core_0_ITLB_total_access 23915
Core_0_ITLB_total_hit 23915
Core_0_ITLB_total_miss 0
Core_0_ITLB_total_MPKI 0
Core_0_ITLB_total_miss_rate 0
Core_0_ITLB_demand_access 23915
Core_0_ITLB_demand_hit 23915
Core_0_ITLB_demand_miss 0
Core_0_ITLB_demand_MPKI 0
Core_0_ITLB_demand_miss_rate 0
Core_0_ITLB_load_access 23915
Core_0_ITLB_load_hit 23915
Core_0_ITLB_load_miss 0
Core_0_ITLB_load_MPKI 0
Core_0_ITLB_load_miss_rate 0
Core_0_ITLB_rfo_access 0
Core_0_ITLB_rfo_hit 0
Core_0_ITLB_rfo_miss 0
Core_0_ITLB_rfo_MPKI 0
Core_0_ITLB_rfo_miss_rate 0
Core_0_ITLB_prefetch_access 0
Core_0_ITLB_prefetch_hit 0
Core_0_ITLB_prefetch_miss 0
Core_0_ITLB_prefetch_MPKI 0
Core_0_ITLB_prefetch_miss_rate 0
Core_0_ITLB_writeback_access 0
Core_0_ITLB_writeback_hit 0
Core_0_ITLB_writeback_miss 0
Core_0_ITLB_writeback_MPKI 0
Core_0_ITLB_writeback_miss_rate 0
Core_0_ITLB_prefetch_requested 0
Core_0_ITLB_prefetch_issued 0
Core_0_ITLB_prefetch_useful 0
Core_0_ITLB_prefetch_useless 0
Core_0_ITLB_prefetch_late 0
Core_0_ITLB_prefetch_accuracy 0
Core_0_ITLB_prefetch_coverage 0
Core_0_ITLB_total_eviction 0

Core_0_DTLB_total_access 16896848
Core_0_DTLB_total_hit 14433085
Core_0_DTLB_total_miss 2463763
Core_0_DTLB_total_MPKI 49.2753
Core_0_DTLB_total_miss_rate 0.145812
Core_0_DTLB_demand_access 16896848
Core_0_DTLB_demand_hit 14433085
Core_0_DTLB_demand_miss 2463763
Core_0_DTLB_demand_MPKI 49.2753
Core_0_DTLB_demand_miss_rate 0.145812
Core_0_DTLB_load_access 16896848
Core_0_DTLB_load_hit 14433085
Core_0_DTLB_load_miss 2463763
Core_0_DTLB_load_MPKI 49.2753
Core_0_DTLB_load_miss_rate 0.145812
Core_0_DTLB_rfo_access 0
Core_0_DTLB_rfo_hit 0
Core_0_DTLB_rfo_miss 0
Core_0_DTLB_rfo_MPKI 0
Core_0_DTLB_rfo_miss_rate 0
Core_0_DTLB_prefetch_access 0
Core_0_DTLB_prefetch_hit 0
Core_0_DTLB_prefetch_miss 0
Core_0_DTLB_prefetch_MPKI 0
Core_0_DTLB_prefetch_miss_rate 0
Core_0_DTLB_writeback_access 0
Core_0_DTLB_writeback_hit 0
Core_0_DTLB_writeback_miss 0
Core_0_DTLB_writeback_MPKI 0
Core_0_DTLB_writeback_miss_rate 0
Core_0_DTLB_prefetch_requested 0
Core_0_DTLB_prefetch_issued 0
Core_0_DTLB_prefetch_useful 0
Core_0_DTLB_prefetch_useless 0
Core_0_DTLB_prefetch_late 0
Core_0_DTLB_prefetch_accuracy 0
Core_0_DTLB_prefetch_coverage 0
Core_0_DTLB_total_eviction 1895748

Core_0_STLB_total_access 1895748
Core_0_STLB_total_hit 1895748
Core_0_STLB_total_miss 0
Core_0_STLB_total_MPKI 0
Core_0_STLB_total_miss_rate 0
Core_0_STLB_demand_access 1895748
Core_0_STLB_demand_hit 1895748
Core_0_STLB_demand_miss 0
Core_0_STLB_demand_MPKI 0
Core_0_STLB_demand_miss_rate 0
Core_0_STLB_load_access 1895748
Core_0_STLB_load_hit 1895748
Core_0_STLB_load_miss 0
Core_0_STLB_load_MPKI 0
Core_0_STLB_load_miss_rate 0
Core_0_STLB_rfo_access 0
Core_0_STLB_rfo_hit 0
Core_0_STLB_rfo_miss 0
Core_0_STLB_rfo_MPKI 0
Core_0_STLB_rfo_miss_rate 0
Core_0_STLB_prefetch_access 0
Core_0_STLB_prefetch_hit 0
Core_0_STLB_prefetch_miss 0
Core_0_STLB_prefetch_MPKI 0
Core_0_STLB_prefetch_miss_rate 0
Core_0_STLB_writeback_access 0
Core_0_STLB_writeback_hit 0
Core_0_STLB_writeback_miss 0
Core_0_STLB_writeback_MPKI 0
Core_0_STLB_writeback_miss_rate 0
Core_0_STLB_prefetch_requested 0
Core_0_STLB_prefetch_issued 0
Core_0_STLB_prefetch_useful 0
Core_0_STLB_prefetch_useless 0
Core_0_STLB_prefetch_late 0
Core_0_STLB_prefetch_accuracy 0
Core_0_STLB_prefetch_coverage 0
Core_0_STLB_total_eviction 576329

Core_0_L1I_total_access 33908
Core_0_L1I_total_hit 33908
Core_0_L1I_total_miss 0
Core_0_L1I_total_MPKI 0
Core_0_L1I_total_miss_rate 0
Core_0_L1I_demand_access 33908
Core_0_L1I_demand_hit 33908
Core_0_L1I_demand_miss 0
Core_0_L1I_demand_MPKI 0
Core_0_L1I_demand_miss_rate 0
Core_0_L1I_load_access 33908
Core_0_L1I_load_hit 33908
Core_0_L1I_load_miss 0
Core_0_L1I_load_MPKI 0
Core_0_L1I_load_miss_rate 0
Core_0_L1I_rfo_access 0
Core_0_L1I_rfo_hit 0
Core_0_L1I_rfo_miss 0
Core_0_L1I_rfo_MPKI 0
Core_0_L1I_rfo_miss_rate 0
Core_0_L1I_prefetch_access 0
Core_0_L1I_prefetch_hit 0
Core_0_L1I_prefetch_miss 0
Core_0_L1I_prefetch_MPKI 0
Core_0_L1I_prefetch_miss_rate 0
Core_0_L1I_writeback_access 0
Core_0_L1I_writeback_hit 0
Core_0_L1I_writeback_miss 0
Core_0_L1I_writeback_MPKI 0
Core_0_L1I_writeback_miss_rate 0
Core_0_L1I_prefetch_requested 0
Core_0_L1I_prefetch_issued 0
Core_0_L1I_prefetch_useful 0
Core_0_L1I_prefetch_useless 0
Core_0_L1I_prefetch_late 0
Core_0_L1I_prefetch_accuracy 0
Core_0_L1I_prefetch_coverage 0
Core_0_L1I_total_eviction 0

Core_0_L1D_total_access 18323482
Core_0_L1D_total_hit 12593796
Core_0_L1D_total_miss 5729686
Core_0_L1D_total_MPKI 114.594
Core_0_L1D_total_miss_rate 0.312696
Core_0_L1D_demand_access 11745885
Core_0_L1D_demand_hit 7560951
Core_0_L1D_demand_miss 4184934
Core_0_L1D_demand_MPKI 83.6987
Core_0_L1D_demand_miss_rate 0.356289
Core_0_L1D_load_access 11745885
Core_0_L1D_load_hit 7560951
Core_0_L1D_load_miss 4184934
Core_0_L1D_load_MPKI 83.6987
Core_0_L1D_load_miss_rate 0.356289
Core_0_L1D_rfo_access 0
Core_0_L1D_rfo_hit 0
Core_0_L1D_rfo_miss 0
Core_0_L1D_rfo_MPKI 0
Core_0_L1D_rfo_miss_rate 0
Core_0_L1D_prefetch_access 4651206
Core_0_L1D_prefetch_hit 3150780
Core_0_L1D_prefetch_miss 1500426
Core_0_L1D_prefetch_MPKI 30.0085
Core_0_L1D_prefetch_miss_rate 0.322589
Core_0_L1D_writeback_access 1926391
Core_0_L1D_writeback_hit 1882065
Core_0_L1D_writeback_miss 44326
Core_0_L1D_writeback_MPKI 0.88652
Core_0_L1D_writeback_miss_rate 0.0230099
Core_0_L1D_prefetch_requested 12619428
Core_0_L1D_prefetch_issued 4651200
Core_0_L1D_prefetch_useful 222029
Core_0_L1D_prefetch_useless 17454
Core_0_L1D_prefetch_late 3492
Core_0_L1D_prefetch_accuracy 0.0477359
Core_0_L1D_prefetch_coverage 0.0503814
Core_0_L1D_total_eviction 4357434

Core_0_L2C_total_access 6960448
Core_0_L2C_total_hit 3040392
Core_0_L2C_total_miss 3920056
Core_0_L2C_total_MPKI 78.4011
Core_0_L2C_total_miss_rate 0.56319
Core_0_L2C_demand_access 4117965
Core_0_L2C_demand_hit 727543
Core_0_L2C_demand_miss 3390422
Core_0_L2C_demand_MPKI 67.8084
Core_0_L2C_demand_miss_rate 0.823325
Core_0_L2C_load_access 4104364
Core_0_L2C_load_hit 724028
Core_0_L2C_load_miss 3380336
Core_0_L2C_load_MPKI 67.6067
Core_0_L2C_load_miss_rate 0.823596
Core_0_L2C_rfo_access 13601
Core_0_L2C_rfo_hit 3515
Core_0_L2C_rfo_miss 10086
Core_0_L2C_rfo_MPKI 0.20172
Core_0_L2C_rfo_miss_rate 0.741563
Core_0_L2C_prefetch_access 1877860
Core_0_L2C_prefetch_hit 1348491
Core_0_L2C_prefetch_miss 529369
Core_0_L2C_prefetch_MPKI 10.5874
Core_0_L2C_prefetch_miss_rate 0.2819
Core_0_L2C_writeback_access 964623
Core_0_L2C_writeback_hit 964358
Core_0_L2C_writeback_miss 265
Core_0_L2C_writeback_MPKI 0.0053
Core_0_L2C_writeback_miss_rate 0.000274719
Core_0_L2C_prefetch_requested 407045
Core_0_L2C_prefetch_issued 406966
Core_0_L2C_prefetch_useful 88036
Core_0_L2C_prefetch_useless 101005
Core_0_L2C_prefetch_late 7544
Core_0_L2C_prefetch_accuracy 0.216323
Core_0_L2C_prefetch_coverage 0.0253089
Core_0_L2C_total_eviction 3841209

Core_0_LLC_total_access 4800172
Core_0_LLC_total_hit 2061304
Core_0_LLC_total_miss 2738868
Core_0_LLC_total_MPKI 54.7774
Core_0_LLC_total_miss_rate 0.570577
Core_0_LLC_demand_access 3379078
Core_0_LLC_demand_hit 1629573
Core_0_LLC_demand_miss 1749505
Core_0_LLC_demand_MPKI 34.9901
Core_0_LLC_demand_miss_rate 0.517746
Core_0_LLC_load_access 3369330
Core_0_LLC_load_hit 1629557
Core_0_LLC_load_miss 1739773
Core_0_LLC_load_MPKI 34.7955
Core_0_LLC_load_miss_rate 0.516356
Core_0_LLC_rfo_access 9748
Core_0_LLC_rfo_hit 16
Core_0_LLC_rfo_miss 9732
Core_0_LLC_rfo_MPKI 0.19464
Core_0_LLC_rfo_miss_rate 0.998359
Core_0_LLC_prefetch_access 475441
Core_0_LLC_prefetch_hit 61770
Core_0_LLC_prefetch_miss 413671
Core_0_LLC_prefetch_MPKI 8.27342
Core_0_LLC_prefetch_miss_rate 0.870079
Core_0_LLC_writeback_access 945653
Core_0_LLC_writeback_hit 369961
Core_0_LLC_writeback_miss 575692
Core_0_LLC_writeback_MPKI 11.5138
Core_0_LLC_writeback_miss_rate 0.608777
Core_0_LLC_prefetch_requested 0
Core_0_LLC_prefetch_issued 0
Core_0_LLC_prefetch_useful 0
Core_0_LLC_prefetch_useless 0
Core_0_LLC_prefetch_late 0
Core_0_LLC_prefetch_accuracy 0
Core_0_LLC_prefetch_coverage 0
Core_0_LLC_total_eviction 2728880

[DRAM Statistics]
Channel_0_RQ_row_buffer_hit 20681
Channel_0_RQ_row_buffer_miss 2131587
Channel_0_WQ_row_buffer_hit 254399
Channel_0_WQ_row_buffer_miss 483663
Channel_0_WQ_full 0
Channel_0_dbus_congested 8825632
DRAM_total_RQ_row_buffer_hit 20681
DRAM_total_RQ_row_buffer_miss 2131587
DRAM_total_WQ_row_buffer_hit 254399
DRAM_total_WQ_row_buffer_miss 483663
DRAM_total_WQ_full 0
DRAM_total_dbus_congested 8825632
DRAM_avg_congested_cycle 5.70523

======STLB miss causes ========
Core_0_STLB_miss_cause_breakdown
Core_0_STLB_cause_Demand_Data_miss 0
Core_0_STLB_cause_Demand_Data_miss_rate 0
Core_0_STLB_cause_Demand_Instruction_miss 0
Core_0_STLB_cause_Demand_Instruction_miss_rate 0
Core_0_STLB_cause_L1D_Prefetch_miss 0
Core_0_STLB_cause_L1D_Prefetch_miss_rate 0
Core_0_STLB_cause_L1I_Prefetch_miss 0
Core_0_STLB_cause_L1I_Prefetch_miss_rate 0
Core_0_STLB_cause_Other_miss 0
Core_0_STLB_cause_Other_miss_rate 0
Core_0_STLB_Demand_miss 0
Core_0_STLB_Demand_miss_rate 0
Core_0_STLB_L1D_Prefetch_miss 0
Core_0_STLB_L1D_Prefetch_miss_rate 0
Core_0_STLB_Other_miss 0
Core_0_STLB_Other_miss_rate 0
BERTI TO_L1: 15255264 TO_L2: 12215629 TO_L2_BC_MSHR: 5931805
BERTI AVG_LAT: 94.0784 NUM_TRACK_LATENCY: 5892251 NUM_CANT_TRACK_LATENCY: 38
BERTI CROSS_PAGE 3381722 NO_CROSS_PAGE: 24089171
BERTI FOUND_BERTI: 15549889 NO_FOUND_BERTI: 3631427
BERTI AVERAGE_ISSUED: 1.36809
