[VMEM] WARNING: physical memory size is smaller than virtual memory size.

*** ChampSim Multicore Out-of-Order Simulator ***
Warmup Instructions: 20000000
Simulation Instructions: 50000000
Number of CPUs: 1
Page size: 4096
STLB ideal mode: all
STLB ideal fill: on
Core 0: /data0/tzh/champsim_traces/QMM/compute_fp_7_new.xz
VBerti Prefetcher
BERTI HASH ENTANGLING
BERTI IP MASK ffff
Off-chip DRAM Size: 16 GiB Channels: 1 Width: 64-bit Data Rate: 3205 MT/s
Warmup halting CPU 0 at instruction 20000002 cycle 5296700 for remainder of phase
Warmup finished CPU 0 instructions: 20000002 cycles: 5296700 cumulative IPC: 3.776 (Simulation time: 00 hr 01 min 16 sec)
Warmup complete CPU 0 instructions: 20000002 cycles: 5296700 cumulative IPC: 3.776 (Simulation time: 00 hr 01 min 16 sec)
*** Reached end of trace: (0, "/data0/tzh/champsim_traces/QMM/compute_fp_7_new.xz")
[BTB] WARNING: target of return is a lower address than the corresponding call. This is usually a problem with your trace.
*** Reached end of trace: (0, "/data0/tzh/champsim_traces/QMM/compute_fp_7_new.xz")
[BTB] WARNING: target of return is a lower address than the corresponding call. This is usually a problem with your trace.
Simulation finished CPU 0 instructions: 50000005 cycles: 111286884 cumulative IPC: 0.4493 (Simulation time: 00 hr 13 min 05 sec)
Simulation complete CPU 0 instructions: 50000005 cycles: 111286884 cumulative IPC: 0.4493 (Simulation time: 00 hr 13 min 05 sec)

ChampSim completed all CPUs

=== Simulation ===
CPU 0 runs /data0/tzh/champsim_traces/QMM/compute_fp_7_new.xz

Region of Interest Statistics

CPU 0 cumulative IPC: 0.4493 instructions: 50000005 cycles: 111286884
CPU 0 Branch Prediction Accuracy: 93.74% MPKI: 10.24 Average ROB Occupancy at Mispredict: 70.19
Branch type MPKI
BRANCH_DIRECT_JUMP: 0.00058
BRANCH_INDIRECT: 0.00012
BRANCH_CONDITIONAL: 10.24
BRANCH_DIRECT_CALL: 0.00024
BRANCH_INDIRECT_CALL: 0.00016
BRANCH_RETURN: 0.00028

cpu0->cpu0_STLB TOTAL        ACCESS:     740183 HIT:     740183 MISS:          0 MSHR_MERGE:          0
cpu0->cpu0_STLB LOAD         ACCESS:     740183 HIT:     740183 MISS:          0 MSHR_MERGE:          0
cpu0->cpu0_STLB RFO          ACCESS:          0 HIT:          0 MISS:          0 MSHR_MERGE:          0
cpu0->cpu0_STLB PREFETCH     ACCESS:          0 HIT:          0 MISS:          0 MSHR_MERGE:          0
cpu0->cpu0_STLB WRITE        ACCESS:          0 HIT:          0 MISS:          0 MSHR_MERGE:          0
cpu0->cpu0_STLB TRANSLATION  ACCESS:          0 HIT:          0 MISS:          0 MSHR_MERGE:          0
cpu0->cpu0_STLB PREFETCH REQUESTED:          0 ISSUED:          0 USEFUL:          0 USELESS:          0 LATE:          0
cpu0->cpu0_STLB AVERAGE MISS LATENCY: - cycles
cpu0->cpu0_L2C TOTAL        ACCESS:    7969405 HIT:    4119422 MISS:    3849983 MSHR_MERGE:     741804
cpu0->cpu0_L2C LOAD         ACCESS:    2170474 HIT:     833697 MISS:    1336777 MSHR_MERGE:      64224
cpu0->cpu0_L2C RFO          ACCESS:     585690 HIT:     152936 MISS:     432754 MSHR_MERGE:      30197
cpu0->cpu0_L2C PREFETCH     ACCESS:    3596390 HIT:    1515989 MISS:    2080401 MSHR_MERGE:     647383
cpu0->cpu0_L2C WRITE        ACCESS:    1616851 HIT:    1616800 MISS:         51 MSHR_MERGE:          0
cpu0->cpu0_L2C TRANSLATION  ACCESS:          0 HIT:          0 MISS:          0 MSHR_MERGE:          0
cpu0->cpu0_L2C PREFETCH REQUESTED:    1261584 ISSUED:    1253189 USEFUL:     279097 USELESS:     107312 LATE:      47988
cpu0->cpu0_L2C AVERAGE MISS LATENCY: 206.3 cycles
cpu0->cpu0_L1I TOTAL        ACCESS:    2645519 HIT:    2642439 MISS:       3080 MSHR_MERGE:       1127
cpu0->cpu0_L1I LOAD         ACCESS:    2645519 HIT:    2642439 MISS:       3080 MSHR_MERGE:       1127
cpu0->cpu0_L1I RFO          ACCESS:          0 HIT:          0 MISS:          0 MSHR_MERGE:          0
cpu0->cpu0_L1I PREFETCH     ACCESS:          0 HIT:          0 MISS:          0 MSHR_MERGE:          0
cpu0->cpu0_L1I WRITE        ACCESS:          0 HIT:          0 MISS:          0 MSHR_MERGE:          0
cpu0->cpu0_L1I TRANSLATION  ACCESS:          0 HIT:          0 MISS:          0 MSHR_MERGE:          0
cpu0->cpu0_L1I PREFETCH REQUESTED:          0 ISSUED:          0 USEFUL:          0 USELESS:          0 LATE:          0
cpu0->cpu0_L1I AVERAGE MISS LATENCY: 285.4 cycles
cpu0->cpu0_L1D TOTAL        ACCESS:   23281667 HIT:   16234317 MISS:    7047350 MSHR_MERGE:    1921953
cpu0->cpu0_L1D LOAD         ACCESS:    9530530 HIT:    6491083 MISS:    3039447 MSHR_MERGE:     870852
cpu0->cpu0_L1D RFO          ACCESS:          0 HIT:          0 MISS:          0 MSHR_MERGE:          0
cpu0->cpu0_L1D PREFETCH     ACCESS:    8540107 HIT:    6102530 MISS:    2437577 MSHR_MERGE:      66526
cpu0->cpu0_L1D WRITE        ACCESS:    5211030 HIT:    3640704 MISS:    1570326 MSHR_MERGE:     984575
cpu0->cpu0_L1D TRANSLATION  ACCESS:          0 HIT:          0 MISS:          0 MSHR_MERGE:          0
cpu0->cpu0_L1D PREFETCH REQUESTED:   84581341 ISSUED:    8540103 USEFUL:     617406 USELESS:     142307 LATE:      39963
cpu0->cpu0_L1D AVERAGE MISS LATENCY: 141.8 cycles
cpu0->cpu0_ITLB TOTAL        ACCESS:    2385790 HIT:    2385454 MISS:        336 MSHR_MERGE:        196
cpu0->cpu0_ITLB LOAD         ACCESS:    2385790 HIT:    2385454 MISS:        336 MSHR_MERGE:        196
cpu0->cpu0_ITLB RFO          ACCESS:          0 HIT:          0 MISS:          0 MSHR_MERGE:          0
cpu0->cpu0_ITLB PREFETCH     ACCESS:          0 HIT:          0 MISS:          0 MSHR_MERGE:          0
cpu0->cpu0_ITLB WRITE        ACCESS:          0 HIT:          0 MISS:          0 MSHR_MERGE:          0
cpu0->cpu0_ITLB TRANSLATION  ACCESS:          0 HIT:          0 MISS:          0 MSHR_MERGE:          0
cpu0->cpu0_ITLB PREFETCH REQUESTED:          0 ISSUED:          0 USEFUL:          0 USELESS:          0 LATE:          0
cpu0->cpu0_ITLB AVERAGE MISS LATENCY: 5.007 cycles
cpu0->cpu0_DTLB TOTAL        ACCESS:   20305751 HIT:   19328500 MISS:     977251 MSHR_MERGE:     237208
cpu0->cpu0_DTLB LOAD         ACCESS:   20305751 HIT:   19328500 MISS:     977251 MSHR_MERGE:     237208
cpu0->cpu0_DTLB RFO          ACCESS:          0 HIT:          0 MISS:          0 MSHR_MERGE:          0
cpu0->cpu0_DTLB PREFETCH     ACCESS:          0 HIT:          0 MISS:          0 MSHR_MERGE:          0
cpu0->cpu0_DTLB WRITE        ACCESS:          0 HIT:          0 MISS:          0 MSHR_MERGE:          0
cpu0->cpu0_DTLB TRANSLATION  ACCESS:          0 HIT:          0 MISS:          0 MSHR_MERGE:          0
cpu0->cpu0_DTLB PREFETCH REQUESTED:          0 ISSUED:          0 USEFUL:          0 USELESS:          0 LATE:          0
cpu0->cpu0_DTLB AVERAGE MISS LATENCY: 5.009 cycles
cpu0->LLC TOTAL        ACCESS:    4251690 HIT:    1850341 MISS:    2401349 MSHR_MERGE:      51947
cpu0->LLC LOAD         ACCESS:    1272549 HIT:     495499 MISS:     777050 MSHR_MERGE:       5114
cpu0->LLC RFO          ACCESS:     402556 HIT:     124735 MISS:     277821 MSHR_MERGE:       1037
cpu0->LLC PREFETCH     ACCESS:    1432983 HIT:     351732 MISS:    1081251 MSHR_MERGE:      45796
cpu0->LLC WRITE        ACCESS:    1143602 HIT:     878375 MISS:     265227 MSHR_MERGE:          0
cpu0->LLC TRANSLATION  ACCESS:          0 HIT:          0 MISS:          0 MSHR_MERGE:          0
cpu0->LLC PREFETCH REQUESTED:          0 ISSUED:          0 USEFUL:          0 USELESS:          0 LATE:          0
cpu0->LLC AVERAGE MISS LATENCY: 239.7 cycles

DRAM Statistics

Channel 0 RQ ROW_BUFFER_HIT:      78056
  ROW_BUFFER_MISS:    2004053
  AVG DBUS CONGESTED CYCLE: 6.453
Channel 0 WQ ROW_BUFFER_HIT:     111030
  ROW_BUFFER_MISS:     518151
  FULL:        644
Channel 0 REFRESHES ISSUED:       9274

[ROI Statistics]
[System Configuration]
num_cpus 1
cpu_freq 4000
fetch_width 6
decode_width 6
dispatch_width 6
execute_width 6
lq_width 2
sq_width 2
retire_width 6
scheduler_size 128
branch_mispredict_penalty 15
rob_size 352
lq_size 128
sq_size 72
ifetch_buffer_size 64
decode_buffer_size 32
dispatch_buffer_size 32
register_file_size 288
decode_latency 1
dispatch_latency 1
schedule_latency 1
execute_latency 1
page_size 4096
block_size 64
core_0_itlb_set 16
core_0_itlb_way 4
core_0_itlb_rq_size 16
core_0_itlb_wq_size 16
core_0_itlb_pq_size 0
core_0_itlb_mshr_size 8
core_0_itlb_hit_latency 1
core_0_itlb_fill_latency 1
core_0_itlb_max_tag_check 2
core_0_itlb_max_fill 2
core_0_dtlb_set 16
core_0_dtlb_way 4
core_0_dtlb_rq_size 16
core_0_dtlb_wq_size 16
core_0_dtlb_pq_size 0
core_0_dtlb_mshr_size 8
core_0_dtlb_hit_latency 1
core_0_dtlb_fill_latency 1
core_0_dtlb_max_tag_check 2
core_0_dtlb_max_fill 2
core_0_stlb_set 128
core_0_stlb_way 12
core_0_stlb_rq_size 32
core_0_stlb_wq_size 32
core_0_stlb_pq_size 0
core_0_stlb_mshr_size 16
core_0_stlb_hit_latency 4
core_0_stlb_fill_latency 4
core_0_stlb_max_tag_check 1
core_0_stlb_max_fill 1
core_0_l1i_set 64
core_0_l1i_way 8
core_0_l1i_rq_size 64
core_0_l1i_wq_size 64
core_0_l1i_pq_size 32
core_0_l1i_mshr_size 8
core_0_l1i_hit_latency 2
core_0_l1i_fill_latency 2
core_0_l1i_max_tag_check 2
core_0_l1i_max_fill 2
core_0_l1d_set 64
core_0_l1d_way 12
core_0_l1d_rq_size 64
core_0_l1d_wq_size 64
core_0_l1d_pq_size 8
core_0_l1d_mshr_size 16
core_0_l1d_hit_latency 2
core_0_l1d_fill_latency 3
core_0_l1d_max_tag_check 2
core_0_l1d_max_fill 2
core_0_l2c_set 1024
core_0_l2c_way 8
core_0_l2c_rq_size 32
core_0_l2c_wq_size 32
core_0_l2c_pq_size 16
core_0_l2c_mshr_size 32
core_0_l2c_hit_latency 5
core_0_l2c_fill_latency 5
core_0_l2c_max_tag_check 1
core_0_l2c_max_fill 1
llc_set 2048
llc_way 16
llc_rq_size 32
llc_wq_size 32
llc_pq_size 32
llc_mshr_size 64
llc_hit_latency 10
llc_fill_latency 10
llc_max_tag_check 1
llc_max_fill 1
dram_channels 1
dram_ranks 1
dram_bankgroups 8
dram_banks 4
dram_rows 65536
dram_columns 1024
dram_channel_width 8
dram_rq_size 64
dram_wq_size 64
dram_size 17179869184
core_0_itlb_prefetcher no
core_0_dtlb_prefetcher no
core_0_stlb_prefetcher no
core_0_l1i_prefetcher next_line
core_0_l1d_prefetcher vberti
core_0_l2c_prefetcher ip_stride
llc_prefetcher no
llc_replacement drrip

Core_0_instructions 50000005
Core_0_cycles 111286884
Core_0_IPC 0.449289
Core_0_branch_prediction_accuracy 93.7416
Core_0_branch_MPKI 10.2378
Core_0_average_ROB_occupancy_at_mispredict 70.1894

Core_0_ITLB_total_access 2385790
Core_0_ITLB_total_hit 2385454
Core_0_ITLB_total_miss 336
Core_0_ITLB_total_MPKI 0.00672
Core_0_ITLB_total_miss_rate 0.000140834
Core_0_ITLB_demand_access 2385790
Core_0_ITLB_demand_hit 2385454
Core_0_ITLB_demand_miss 336
Core_0_ITLB_demand_MPKI 0.00672
Core_0_ITLB_demand_miss_rate 0.000140834
Core_0_ITLB_load_access 2385790
Core_0_ITLB_load_hit 2385454
Core_0_ITLB_load_miss 336
Core_0_ITLB_load_MPKI 0.00672
Core_0_ITLB_load_miss_rate 0.000140834
Core_0_ITLB_rfo_access 0
Core_0_ITLB_rfo_hit 0
Core_0_ITLB_rfo_miss 0
Core_0_ITLB_rfo_MPKI 0
Core_0_ITLB_rfo_miss_rate 0
Core_0_ITLB_prefetch_access 0
Core_0_ITLB_prefetch_hit 0
Core_0_ITLB_prefetch_miss 0
Core_0_ITLB_prefetch_MPKI 0
Core_0_ITLB_prefetch_miss_rate 0
Core_0_ITLB_writeback_access 0
Core_0_ITLB_writeback_hit 0
Core_0_ITLB_writeback_miss 0
Core_0_ITLB_writeback_MPKI 0
Core_0_ITLB_writeback_miss_rate 0
Core_0_ITLB_prefetch_requested 0
Core_0_ITLB_prefetch_issued 0
Core_0_ITLB_prefetch_useful 0
Core_0_ITLB_prefetch_useless 0
Core_0_ITLB_prefetch_late 0
Core_0_ITLB_prefetch_accuracy 0
Core_0_ITLB_prefetch_coverage 0
Core_0_ITLB_total_eviction 139

Core_0_DTLB_total_access 20305751
Core_0_DTLB_total_hit 19328500
Core_0_DTLB_total_miss 977251
Core_0_DTLB_total_MPKI 19.545
Core_0_DTLB_total_miss_rate 0.0481268
Core_0_DTLB_demand_access 20305751
Core_0_DTLB_demand_hit 19328500
Core_0_DTLB_demand_miss 977251
Core_0_DTLB_demand_MPKI 19.545
Core_0_DTLB_demand_miss_rate 0.0481268
Core_0_DTLB_load_access 20305751
Core_0_DTLB_load_hit 19328500
Core_0_DTLB_load_miss 977251
Core_0_DTLB_load_MPKI 19.545
Core_0_DTLB_load_miss_rate 0.0481268
Core_0_DTLB_rfo_access 0
Core_0_DTLB_rfo_hit 0
Core_0_DTLB_rfo_miss 0
Core_0_DTLB_rfo_MPKI 0
Core_0_DTLB_rfo_miss_rate 0
Core_0_DTLB_prefetch_access 0
Core_0_DTLB_prefetch_hit 0
Core_0_DTLB_prefetch_miss 0
Core_0_DTLB_prefetch_MPKI 0
Core_0_DTLB_prefetch_miss_rate 0
Core_0_DTLB_writeback_access 0
Core_0_DTLB_writeback_hit 0
Core_0_DTLB_writeback_miss 0
Core_0_DTLB_writeback_MPKI 0
Core_0_DTLB_writeback_miss_rate 0
Core_0_DTLB_prefetch_requested 0
Core_0_DTLB_prefetch_issued 0
Core_0_DTLB_prefetch_useful 0
Core_0_DTLB_prefetch_useless 0
Core_0_DTLB_prefetch_late 0
Core_0_DTLB_prefetch_accuracy 0
Core_0_DTLB_prefetch_coverage 0
Core_0_DTLB_total_eviction 740043

Core_0_STLB_total_access 740183
Core_0_STLB_total_hit 740183
Core_0_STLB_total_miss 0
Core_0_STLB_total_MPKI 0
Core_0_STLB_total_miss_rate 0
Core_0_STLB_demand_access 740183
Core_0_STLB_demand_hit 740183
Core_0_STLB_demand_miss 0
Core_0_STLB_demand_MPKI 0
Core_0_STLB_demand_miss_rate 0
Core_0_STLB_load_access 740183
Core_0_STLB_load_hit 740183
Core_0_STLB_load_miss 0
Core_0_STLB_load_MPKI 0
Core_0_STLB_load_miss_rate 0
Core_0_STLB_rfo_access 0
Core_0_STLB_rfo_hit 0
Core_0_STLB_rfo_miss 0
Core_0_STLB_rfo_MPKI 0
Core_0_STLB_rfo_miss_rate 0
Core_0_STLB_prefetch_access 0
Core_0_STLB_prefetch_hit 0
Core_0_STLB_prefetch_miss 0
Core_0_STLB_prefetch_MPKI 0
Core_0_STLB_prefetch_miss_rate 0
Core_0_STLB_writeback_access 0
Core_0_STLB_writeback_hit 0
Core_0_STLB_writeback_miss 0
Core_0_STLB_writeback_MPKI 0
Core_0_STLB_writeback_miss_rate 0
Core_0_STLB_prefetch_requested 0
Core_0_STLB_prefetch_issued 0
Core_0_STLB_prefetch_useful 0
Core_0_STLB_prefetch_useless 0
Core_0_STLB_prefetch_late 0
Core_0_STLB_prefetch_accuracy 0
Core_0_STLB_prefetch_coverage 0
Core_0_STLB_total_eviction 120621

Core_0_L1I_total_access 2645519
Core_0_L1I_total_hit 2642439
Core_0_L1I_total_miss 3080
Core_0_L1I_total_MPKI 0.0616
Core_0_L1I_total_miss_rate 0.00116423
Core_0_L1I_demand_access 2645519
Core_0_L1I_demand_hit 2642439
Core_0_L1I_demand_miss 3080
Core_0_L1I_demand_MPKI 0.0616
Core_0_L1I_demand_miss_rate 0.00116423
Core_0_L1I_load_access 2645519
Core_0_L1I_load_hit 2642439
Core_0_L1I_load_miss 3080
Core_0_L1I_load_MPKI 0.0616
Core_0_L1I_load_miss_rate 0.00116423
Core_0_L1I_rfo_access 0
Core_0_L1I_rfo_hit 0
Core_0_L1I_rfo_miss 0
Core_0_L1I_rfo_MPKI 0
Core_0_L1I_rfo_miss_rate 0
Core_0_L1I_prefetch_access 0
Core_0_L1I_prefetch_hit 0
Core_0_L1I_prefetch_miss 0
Core_0_L1I_prefetch_MPKI 0
Core_0_L1I_prefetch_miss_rate 0
Core_0_L1I_writeback_access 0
Core_0_L1I_writeback_hit 0
Core_0_L1I_writeback_miss 0
Core_0_L1I_writeback_MPKI 0
Core_0_L1I_writeback_miss_rate 0
Core_0_L1I_prefetch_requested 0
Core_0_L1I_prefetch_issued 0
Core_0_L1I_prefetch_useful 0
Core_0_L1I_prefetch_useless 0
Core_0_L1I_prefetch_late 0
Core_0_L1I_prefetch_accuracy 0
Core_0_L1I_prefetch_coverage 0
Core_0_L1I_total_eviction 1953

Core_0_L1D_total_access 23281667
Core_0_L1D_total_hit 16234317
Core_0_L1D_total_miss 7047350
Core_0_L1D_total_MPKI 140.947
Core_0_L1D_total_miss_rate 0.3027
Core_0_L1D_demand_access 9530530
Core_0_L1D_demand_hit 6491083
Core_0_L1D_demand_miss 3039447
Core_0_L1D_demand_MPKI 60.7889
Core_0_L1D_demand_miss_rate 0.318917
Core_0_L1D_load_access 9530530
Core_0_L1D_load_hit 6491083
Core_0_L1D_load_miss 3039447
Core_0_L1D_load_MPKI 60.7889
Core_0_L1D_load_miss_rate 0.318917
Core_0_L1D_rfo_access 0
Core_0_L1D_rfo_hit 0
Core_0_L1D_rfo_miss 0
Core_0_L1D_rfo_MPKI 0
Core_0_L1D_rfo_miss_rate 0
Core_0_L1D_prefetch_access 8540107
Core_0_L1D_prefetch_hit 6102530
Core_0_L1D_prefetch_miss 2437577
Core_0_L1D_prefetch_MPKI 48.7515
Core_0_L1D_prefetch_miss_rate 0.285427
Core_0_L1D_writeback_access 5211030
Core_0_L1D_writeback_hit 3640704
Core_0_L1D_writeback_miss 1570326
Core_0_L1D_writeback_MPKI 31.4065
Core_0_L1D_writeback_miss_rate 0.301347
Core_0_L1D_prefetch_requested 84581341
Core_0_L1D_prefetch_issued 8540103
Core_0_L1D_prefetch_useful 617406
Core_0_L1D_prefetch_useless 142307
Core_0_L1D_prefetch_late 39963
Core_0_L1D_prefetch_accuracy 0.0722949
Core_0_L1D_prefetch_coverage 0.168835
Core_0_L1D_total_eviction 3514070

Core_0_L2C_total_access 7969405
Core_0_L2C_total_hit 4119422
Core_0_L2C_total_miss 3849983
Core_0_L2C_total_MPKI 76.9997
Core_0_L2C_total_miss_rate 0.483095
Core_0_L2C_demand_access 2756164
Core_0_L2C_demand_hit 986633
Core_0_L2C_demand_miss 1769531
Core_0_L2C_demand_MPKI 35.3906
Core_0_L2C_demand_miss_rate 0.642027
Core_0_L2C_load_access 2170474
Core_0_L2C_load_hit 833697
Core_0_L2C_load_miss 1336777
Core_0_L2C_load_MPKI 26.7355
Core_0_L2C_load_miss_rate 0.615892
Core_0_L2C_rfo_access 585690
Core_0_L2C_rfo_hit 152936
Core_0_L2C_rfo_miss 432754
Core_0_L2C_rfo_MPKI 8.65508
Core_0_L2C_rfo_miss_rate 0.738879
Core_0_L2C_prefetch_access 3596390
Core_0_L2C_prefetch_hit 1515989
Core_0_L2C_prefetch_miss 2080401
Core_0_L2C_prefetch_MPKI 41.608
Core_0_L2C_prefetch_miss_rate 0.578469
Core_0_L2C_writeback_access 1616851
Core_0_L2C_writeback_hit 1616800
Core_0_L2C_writeback_miss 51
Core_0_L2C_writeback_MPKI 0.00102
Core_0_L2C_writeback_miss_rate 3.15428e-05
Core_0_L2C_prefetch_requested 1261584
Core_0_L2C_prefetch_issued 1253189
Core_0_L2C_prefetch_useful 279097
Core_0_L2C_prefetch_useless 107312
Core_0_L2C_prefetch_late 47988
Core_0_L2C_prefetch_accuracy 0.222709
Core_0_L2C_prefetch_coverage 0.136236
Core_0_L2C_total_eviction 3002998

Core_0_LLC_total_access 4251690
Core_0_LLC_total_hit 1850341
Core_0_LLC_total_miss 2401349
Core_0_LLC_total_MPKI 48.027
Core_0_LLC_total_miss_rate 0.564799
Core_0_LLC_demand_access 1675105
Core_0_LLC_demand_hit 620234
Core_0_LLC_demand_miss 1054871
Core_0_LLC_demand_MPKI 21.0974
Core_0_LLC_demand_miss_rate 0.629734
Core_0_LLC_load_access 1272549
Core_0_LLC_load_hit 495499
Core_0_LLC_load_miss 777050
Core_0_LLC_load_MPKI 15.541
Core_0_LLC_load_miss_rate 0.610625
Core_0_LLC_rfo_access 402556
Core_0_LLC_rfo_hit 124735
Core_0_LLC_rfo_miss 277821
Core_0_LLC_rfo_MPKI 5.55642
Core_0_LLC_rfo_miss_rate 0.690142
Core_0_LLC_prefetch_access 1432983
Core_0_LLC_prefetch_hit 351732
Core_0_LLC_prefetch_miss 1081251
Core_0_LLC_prefetch_MPKI 21.625
Core_0_LLC_prefetch_miss_rate 0.754546
Core_0_LLC_writeback_access 1143602
Core_0_LLC_writeback_hit 878375
Core_0_LLC_writeback_miss 265227
Core_0_LLC_writeback_MPKI 5.30454
Core_0_LLC_writeback_miss_rate 0.231922
Core_0_LLC_prefetch_requested 0
Core_0_LLC_prefetch_issued 0
Core_0_LLC_prefetch_useful 0
Core_0_LLC_prefetch_useless 0
Core_0_LLC_prefetch_late 0
Core_0_LLC_prefetch_accuracy 0
Core_0_LLC_prefetch_coverage 0
Core_0_LLC_total_eviction 2349402

[DRAM Statistics]
Channel_0_RQ_row_buffer_hit 78056
Channel_0_RQ_row_buffer_miss 2004053
Channel_0_WQ_row_buffer_hit 111030
Channel_0_WQ_row_buffer_miss 518151
Channel_0_WQ_full 644
Channel_0_dbus_congested 7343218
DRAM_total_RQ_row_buffer_hit 78056
DRAM_total_RQ_row_buffer_miss 2004053
DRAM_total_WQ_row_buffer_hit 111030
DRAM_total_WQ_row_buffer_miss 518151
DRAM_total_WQ_full 644
DRAM_total_dbus_congested 7343218
DRAM_avg_congested_cycle 6.4527

======STLB miss causes ========
Core_0_STLB_miss_cause_breakdown
Core_0_STLB_cause_Demand_Data_miss 0
Core_0_STLB_cause_Demand_Data_miss_rate 0
Core_0_STLB_cause_Demand_Instruction_miss 0
Core_0_STLB_cause_Demand_Instruction_miss_rate 0
Core_0_STLB_cause_L1D_Prefetch_miss 0
Core_0_STLB_cause_L1D_Prefetch_miss_rate 0
Core_0_STLB_cause_L1I_Prefetch_miss 0
Core_0_STLB_cause_L1I_Prefetch_miss_rate 0
Core_0_STLB_cause_Other_miss 0
Core_0_STLB_cause_Other_miss_rate 0
Core_0_STLB_Demand_miss 0
Core_0_STLB_Demand_miss_rate 0
Core_0_STLB_L1D_Prefetch_miss 0
Core_0_STLB_L1D_Prefetch_miss_rate 0
Core_0_STLB_Other_miss 0
Core_0_STLB_Other_miss_rate 0
BERTI TO_L1: 54328703 TO_L2: 52287687 TO_L2_BC_MSHR: 30712985
BERTI AVG_LAT: 111.168 NUM_TRACK_LATENCY: 4819563 NUM_CANT_TRACK_LATENCY: 12
BERTI CROSS_PAGE 14238881 NO_CROSS_PAGE: 92377509
BERTI FOUND_BERTI: 20702528 NO_FOUND_BERTI: 7733373
BERTI AVERAGE_ISSUED: 2.35127
