[VMEM] WARNING: physical memory size is smaller than virtual memory size.

*** ChampSim Multicore Out-of-Order Simulator ***
Warmup Instructions: 20000000
Simulation Instructions: 50000000
Number of CPUs: 1
Page size: 4096
STLB ideal mode: all
STLB ideal fill: on
Core 0: /data0/tzh/champsim_traces/Ligra/ligra_Radii.com-lj.ungraph.gcc_6.3.0_O3.drop_36000M.length_250M.champsimtrace.xz
VBerti Prefetcher
BERTI HASH ENTANGLING
BERTI IP MASK ffff
Off-chip DRAM Size: 16 GiB Channels: 1 Width: 64-bit Data Rate: 3205 MT/s
Warmup halting CPU 0 at instruction 20000002 cycle 4005201 for remainder of phase
Warmup finished CPU 0 instructions: 20000002 cycles: 4005201 cumulative IPC: 4.994 (Simulation time: 00 hr 01 min 04 sec)
Warmup complete CPU 0 instructions: 20000002 cycles: 4005201 cumulative IPC: 4.994 (Simulation time: 00 hr 01 min 04 sec)
Simulation finished CPU 0 instructions: 50000000 cycles: 184026478 cumulative IPC: 0.2717 (Simulation time: 00 hr 12 min 47 sec)
Simulation complete CPU 0 instructions: 50000000 cycles: 184026478 cumulative IPC: 0.2717 (Simulation time: 00 hr 12 min 47 sec)

ChampSim completed all CPUs

=== Simulation ===
CPU 0 runs /data0/tzh/champsim_traces/Ligra/ligra_Radii.com-lj.ungraph.gcc_6.3.0_O3.drop_36000M.length_250M.champsimtrace.xz

Region of Interest Statistics

CPU 0 cumulative IPC: 0.2717 instructions: 50000000 cycles: 184026478
CPU 0 Branch Prediction Accuracy: 88.74% MPKI: 29.7 Average ROB Occupancy at Mispredict: 14.27
Branch type MPKI
BRANCH_DIRECT_JUMP: 0
BRANCH_INDIRECT: 0
BRANCH_CONDITIONAL: 29.7
BRANCH_DIRECT_CALL: 0
BRANCH_INDIRECT_CALL: 0
BRANCH_RETURN: 0

cpu0->cpu0_STLB TOTAL        ACCESS:    1832579 HIT:    1832579 MISS:          0 MSHR_MERGE:          0
cpu0->cpu0_STLB LOAD         ACCESS:    1832579 HIT:    1832579 MISS:          0 MSHR_MERGE:          0
cpu0->cpu0_STLB RFO          ACCESS:          0 HIT:          0 MISS:          0 MSHR_MERGE:          0
cpu0->cpu0_STLB PREFETCH     ACCESS:          0 HIT:          0 MISS:          0 MSHR_MERGE:          0
cpu0->cpu0_STLB WRITE        ACCESS:          0 HIT:          0 MISS:          0 MSHR_MERGE:          0
cpu0->cpu0_STLB TRANSLATION  ACCESS:          0 HIT:          0 MISS:          0 MSHR_MERGE:          0
cpu0->cpu0_STLB PREFETCH REQUESTED:          0 ISSUED:          0 USEFUL:          0 USELESS:          0 LATE:          0
cpu0->cpu0_STLB AVERAGE MISS LATENCY: - cycles
cpu0->cpu0_L2C TOTAL        ACCESS:    6045887 HIT:    3384931 MISS:    2660956 MSHR_MERGE:     301426
cpu0->cpu0_L2C LOAD         ACCESS:    1888348 HIT:     317847 MISS:    1570501 MSHR_MERGE:        363
cpu0->cpu0_L2C RFO          ACCESS:        190 HIT:        190 MISS:          0 MSHR_MERGE:          0
cpu0->cpu0_L2C PREFETCH     ACCESS:    4042677 HIT:    2952353 MISS:    1090324 MSHR_MERGE:     301063
cpu0->cpu0_L2C WRITE        ACCESS:     114672 HIT:     114541 MISS:        131 MSHR_MERGE:          0
cpu0->cpu0_L2C TRANSLATION  ACCESS:          0 HIT:          0 MISS:          0 MSHR_MERGE:          0
cpu0->cpu0_L2C PREFETCH REQUESTED:     852564 ISSUED:     852399 USEFUL:     230369 USELESS:      32201 LATE:        214
cpu0->cpu0_L2C AVERAGE MISS LATENCY: 94.67 cycles
cpu0->cpu0_L1I TOTAL        ACCESS:     644107 HIT:     644107 MISS:          0 MSHR_MERGE:          0
cpu0->cpu0_L1I LOAD         ACCESS:     644107 HIT:     644107 MISS:          0 MSHR_MERGE:          0
cpu0->cpu0_L1I RFO          ACCESS:          0 HIT:          0 MISS:          0 MSHR_MERGE:          0
cpu0->cpu0_L1I PREFETCH     ACCESS:          0 HIT:          0 MISS:          0 MSHR_MERGE:          0
cpu0->cpu0_L1I WRITE        ACCESS:          0 HIT:          0 MISS:          0 MSHR_MERGE:          0
cpu0->cpu0_L1I TRANSLATION  ACCESS:          0 HIT:          0 MISS:          0 MSHR_MERGE:          0
cpu0->cpu0_L1I PREFETCH REQUESTED:          0 ISSUED:          0 USEFUL:          0 USELESS:          0 LATE:          0
cpu0->cpu0_L1I AVERAGE MISS LATENCY: - cycles
cpu0->cpu0_L1D TOTAL        ACCESS:   33548701 HIT:   28408223 MISS:    5140478 MSHR_MERGE:      54490
cpu0->cpu0_L1D LOAD         ACCESS:   13649230 HIT:   11707106 MISS:    1942124 MSHR_MERGE:      53776
cpu0->cpu0_L1D RFO          ACCESS:          0 HIT:          0 MISS:          0 MSHR_MERGE:          0
cpu0->cpu0_L1D PREFETCH     ACCESS:   17946939 HIT:   14748780 MISS:    3198159 MSHR_MERGE:        710
cpu0->cpu0_L1D WRITE        ACCESS:    1952532 HIT:    1952337 MISS:        195 MSHR_MERGE:          4
cpu0->cpu0_L1D TRANSLATION  ACCESS:          0 HIT:          0 MISS:          0 MSHR_MERGE:          0
cpu0->cpu0_L1D PREFETCH REQUESTED:   50914406 ISSUED:   17946934 USEFUL:     736226 USELESS:      41058 LATE:       3684
cpu0->cpu0_L1D AVERAGE MISS LATENCY: 87.58 cycles
cpu0->cpu0_ITLB TOTAL        ACCESS:     500070 HIT:     500070 MISS:          0 MSHR_MERGE:          0
cpu0->cpu0_ITLB LOAD         ACCESS:     500070 HIT:     500070 MISS:          0 MSHR_MERGE:          0
cpu0->cpu0_ITLB RFO          ACCESS:          0 HIT:          0 MISS:          0 MSHR_MERGE:          0
cpu0->cpu0_ITLB PREFETCH     ACCESS:          0 HIT:          0 MISS:          0 MSHR_MERGE:          0
cpu0->cpu0_ITLB WRITE        ACCESS:          0 HIT:          0 MISS:          0 MSHR_MERGE:          0
cpu0->cpu0_ITLB TRANSLATION  ACCESS:          0 HIT:          0 MISS:          0 MSHR_MERGE:          0
cpu0->cpu0_ITLB PREFETCH REQUESTED:          0 ISSUED:          0 USEFUL:          0 USELESS:          0 LATE:          0
cpu0->cpu0_ITLB AVERAGE MISS LATENCY: - cycles
cpu0->cpu0_DTLB TOTAL        ACCESS:   28059050 HIT:   26126229 MISS:    1932821 MSHR_MERGE:     100242
cpu0->cpu0_DTLB LOAD         ACCESS:   28059050 HIT:   26126229 MISS:    1932821 MSHR_MERGE:     100242
cpu0->cpu0_DTLB RFO          ACCESS:          0 HIT:          0 MISS:          0 MSHR_MERGE:          0
cpu0->cpu0_DTLB PREFETCH     ACCESS:          0 HIT:          0 MISS:          0 MSHR_MERGE:          0
cpu0->cpu0_DTLB WRITE        ACCESS:          0 HIT:          0 MISS:          0 MSHR_MERGE:          0
cpu0->cpu0_DTLB TRANSLATION  ACCESS:          0 HIT:          0 MISS:          0 MSHR_MERGE:          0
cpu0->cpu0_DTLB PREFETCH REQUESTED:          0 ISSUED:          0 USEFUL:          0 USELESS:          0 LATE:          0
cpu0->cpu0_DTLB AVERAGE MISS LATENCY: 5.005 cycles
cpu0->LLC TOTAL        ACCESS:    2473835 HIT:     976403 MISS:    1497432 MSHR_MERGE:       1376
cpu0->LLC LOAD         ACCESS:    1570138 HIT:     950471 MISS:     619667 MSHR_MERGE:         90
cpu0->LLC RFO          ACCESS:          0 HIT:          0 MISS:          0 MSHR_MERGE:          0
cpu0->LLC PREFETCH     ACCESS:     789260 HIT:       3190 MISS:     786070 MSHR_MERGE:       1286
cpu0->LLC WRITE        ACCESS:     114437 HIT:      22742 MISS:      91695 MSHR_MERGE:          0
cpu0->LLC TRANSLATION  ACCESS:          0 HIT:          0 MISS:          0 MSHR_MERGE:          0
cpu0->LLC PREFETCH REQUESTED:          0 ISSUED:          0 USEFUL:          0 USELESS:          0 LATE:          0
cpu0->LLC AVERAGE MISS LATENCY: 176.1 cycles

DRAM Statistics

Channel 0 RQ ROW_BUFFER_HIT:      13919
  ROW_BUFFER_MISS:    1390442
  AVG DBUS CONGESTED CYCLE: 15.42
Channel 0 WQ ROW_BUFFER_HIT:      24357
  ROW_BUFFER_MISS:      87906
  FULL:          0
Channel 0 REFRESHES ISSUED:      15336

[ROI Statistics]
[System Configuration]
num_cpus 1
cpu_freq 4000
fetch_width 6
decode_width 6
dispatch_width 6
execute_width 6
lq_width 2
sq_width 2
retire_width 6
scheduler_size 128
branch_mispredict_penalty 15
rob_size 352
lq_size 128
sq_size 72
ifetch_buffer_size 64
decode_buffer_size 32
dispatch_buffer_size 32
register_file_size 288
decode_latency 1
dispatch_latency 1
schedule_latency 1
execute_latency 1
page_size 4096
block_size 64
core_0_itlb_set 16
core_0_itlb_way 4
core_0_itlb_rq_size 16
core_0_itlb_wq_size 16
core_0_itlb_pq_size 0
core_0_itlb_mshr_size 8
core_0_itlb_hit_latency 1
core_0_itlb_fill_latency 1
core_0_itlb_max_tag_check 2
core_0_itlb_max_fill 2
core_0_dtlb_set 16
core_0_dtlb_way 4
core_0_dtlb_rq_size 16
core_0_dtlb_wq_size 16
core_0_dtlb_pq_size 0
core_0_dtlb_mshr_size 8
core_0_dtlb_hit_latency 1
core_0_dtlb_fill_latency 1
core_0_dtlb_max_tag_check 2
core_0_dtlb_max_fill 2
core_0_stlb_set 128
core_0_stlb_way 12
core_0_stlb_rq_size 32
core_0_stlb_wq_size 32
core_0_stlb_pq_size 0
core_0_stlb_mshr_size 16
core_0_stlb_hit_latency 4
core_0_stlb_fill_latency 4
core_0_stlb_max_tag_check 1
core_0_stlb_max_fill 1
core_0_l1i_set 64
core_0_l1i_way 8
core_0_l1i_rq_size 64
core_0_l1i_wq_size 64
core_0_l1i_pq_size 32
core_0_l1i_mshr_size 8
core_0_l1i_hit_latency 2
core_0_l1i_fill_latency 2
core_0_l1i_max_tag_check 2
core_0_l1i_max_fill 2
core_0_l1d_set 64
core_0_l1d_way 12
core_0_l1d_rq_size 64
core_0_l1d_wq_size 64
core_0_l1d_pq_size 8
core_0_l1d_mshr_size 16
core_0_l1d_hit_latency 2
core_0_l1d_fill_latency 3
core_0_l1d_max_tag_check 2
core_0_l1d_max_fill 2
core_0_l2c_set 1024
core_0_l2c_way 8
core_0_l2c_rq_size 32
core_0_l2c_wq_size 32
core_0_l2c_pq_size 16
core_0_l2c_mshr_size 32
core_0_l2c_hit_latency 5
core_0_l2c_fill_latency 5
core_0_l2c_max_tag_check 1
core_0_l2c_max_fill 1
llc_set 2048
llc_way 16
llc_rq_size 32
llc_wq_size 32
llc_pq_size 32
llc_mshr_size 64
llc_hit_latency 10
llc_fill_latency 10
llc_max_tag_check 1
llc_max_fill 1
dram_channels 1
dram_ranks 1
dram_bankgroups 8
dram_banks 4
dram_rows 65536
dram_columns 1024
dram_channel_width 8
dram_rq_size 64
dram_wq_size 64
dram_size 17179869184
core_0_itlb_prefetcher no
core_0_dtlb_prefetcher no
core_0_stlb_prefetcher no
core_0_l1i_prefetcher next_line
core_0_l1d_prefetcher vberti
core_0_l2c_prefetcher ip_stride
llc_prefetcher no
llc_replacement drrip

Core_0_instructions 50000000
Core_0_cycles 184026478
Core_0_IPC 0.2717
Core_0_branch_prediction_accuracy 88.737
Core_0_branch_MPKI 29.7027
Core_0_average_ROB_occupancy_at_mispredict 14.2708

Core_0_ITLB_total_access 500070
Core_0_ITLB_total_hit 500070
Core_0_ITLB_total_miss 0
Core_0_ITLB_total_MPKI 0
Core_0_ITLB_total_miss_rate 0
Core_0_ITLB_demand_access 500070
Core_0_ITLB_demand_hit 500070
Core_0_ITLB_demand_miss 0
Core_0_ITLB_demand_MPKI 0
Core_0_ITLB_demand_miss_rate 0
Core_0_ITLB_load_access 500070
Core_0_ITLB_load_hit 500070
Core_0_ITLB_load_miss 0
Core_0_ITLB_load_MPKI 0
Core_0_ITLB_load_miss_rate 0
Core_0_ITLB_rfo_access 0
Core_0_ITLB_rfo_hit 0
Core_0_ITLB_rfo_miss 0
Core_0_ITLB_rfo_MPKI 0
Core_0_ITLB_rfo_miss_rate 0
Core_0_ITLB_prefetch_access 0
Core_0_ITLB_prefetch_hit 0
Core_0_ITLB_prefetch_miss 0
Core_0_ITLB_prefetch_MPKI 0
Core_0_ITLB_prefetch_miss_rate 0
Core_0_ITLB_writeback_access 0
Core_0_ITLB_writeback_hit 0
Core_0_ITLB_writeback_miss 0
Core_0_ITLB_writeback_MPKI 0
Core_0_ITLB_writeback_miss_rate 0
Core_0_ITLB_prefetch_requested 0
Core_0_ITLB_prefetch_issued 0
Core_0_ITLB_prefetch_useful 0
Core_0_ITLB_prefetch_useless 0
Core_0_ITLB_prefetch_late 0
Core_0_ITLB_prefetch_accuracy 0
Core_0_ITLB_prefetch_coverage 0
Core_0_ITLB_total_eviction 0

Core_0_DTLB_total_access 28059050
Core_0_DTLB_total_hit 26126229
Core_0_DTLB_total_miss 1932821
Core_0_DTLB_total_MPKI 38.6564
Core_0_DTLB_total_miss_rate 0.068884
Core_0_DTLB_demand_access 28059050
Core_0_DTLB_demand_hit 26126229
Core_0_DTLB_demand_miss 1932821
Core_0_DTLB_demand_MPKI 38.6564
Core_0_DTLB_demand_miss_rate 0.068884
Core_0_DTLB_load_access 28059050
Core_0_DTLB_load_hit 26126229
Core_0_DTLB_load_miss 1932821
Core_0_DTLB_load_MPKI 38.6564
Core_0_DTLB_load_miss_rate 0.068884
Core_0_DTLB_rfo_access 0
Core_0_DTLB_rfo_hit 0
Core_0_DTLB_rfo_miss 0
Core_0_DTLB_rfo_MPKI 0
Core_0_DTLB_rfo_miss_rate 0
Core_0_DTLB_prefetch_access 0
Core_0_DTLB_prefetch_hit 0
Core_0_DTLB_prefetch_miss 0
Core_0_DTLB_prefetch_MPKI 0
Core_0_DTLB_prefetch_miss_rate 0
Core_0_DTLB_writeback_access 0
Core_0_DTLB_writeback_hit 0
Core_0_DTLB_writeback_miss 0
Core_0_DTLB_writeback_MPKI 0
Core_0_DTLB_writeback_miss_rate 0
Core_0_DTLB_prefetch_requested 0
Core_0_DTLB_prefetch_issued 0
Core_0_DTLB_prefetch_useful 0
Core_0_DTLB_prefetch_useless 0
Core_0_DTLB_prefetch_late 0
Core_0_DTLB_prefetch_accuracy 0
Core_0_DTLB_prefetch_coverage 0
Core_0_DTLB_total_eviction 1832579

Core_0_STLB_total_access 1832579
Core_0_STLB_total_hit 1832579
Core_0_STLB_total_miss 0
Core_0_STLB_total_MPKI 0
Core_0_STLB_total_miss_rate 0
Core_0_STLB_demand_access 1832579
Core_0_STLB_demand_hit 1832579
Core_0_STLB_demand_miss 0
Core_0_STLB_demand_MPKI 0
Core_0_STLB_demand_miss_rate 0
Core_0_STLB_load_access 1832579
Core_0_STLB_load_hit 1832579
Core_0_STLB_load_miss 0
Core_0_STLB_load_MPKI 0
Core_0_STLB_load_miss_rate 0
Core_0_STLB_rfo_access 0
Core_0_STLB_rfo_hit 0
Core_0_STLB_rfo_miss 0
Core_0_STLB_rfo_MPKI 0
Core_0_STLB_rfo_miss_rate 0
Core_0_STLB_prefetch_access 0
Core_0_STLB_prefetch_hit 0
Core_0_STLB_prefetch_miss 0
Core_0_STLB_prefetch_MPKI 0
Core_0_STLB_prefetch_miss_rate 0
Core_0_STLB_writeback_access 0
Core_0_STLB_writeback_hit 0
Core_0_STLB_writeback_miss 0
Core_0_STLB_writeback_MPKI 0
Core_0_STLB_writeback_miss_rate 0
Core_0_STLB_prefetch_requested 0
Core_0_STLB_prefetch_issued 0
Core_0_STLB_prefetch_useful 0
Core_0_STLB_prefetch_useless 0
Core_0_STLB_prefetch_late 0
Core_0_STLB_prefetch_accuracy 0
Core_0_STLB_prefetch_coverage 0
Core_0_STLB_total_eviction 154134

Core_0_L1I_total_access 644107
Core_0_L1I_total_hit 644107
Core_0_L1I_total_miss 0
Core_0_L1I_total_MPKI 0
Core_0_L1I_total_miss_rate 0
Core_0_L1I_demand_access 644107
Core_0_L1I_demand_hit 644107
Core_0_L1I_demand_miss 0
Core_0_L1I_demand_MPKI 0
Core_0_L1I_demand_miss_rate 0
Core_0_L1I_load_access 644107
Core_0_L1I_load_hit 644107
Core_0_L1I_load_miss 0
Core_0_L1I_load_MPKI 0
Core_0_L1I_load_miss_rate 0
Core_0_L1I_rfo_access 0
Core_0_L1I_rfo_hit 0
Core_0_L1I_rfo_miss 0
Core_0_L1I_rfo_MPKI 0
Core_0_L1I_rfo_miss_rate 0
Core_0_L1I_prefetch_access 0
Core_0_L1I_prefetch_hit 0
Core_0_L1I_prefetch_miss 0
Core_0_L1I_prefetch_MPKI 0
Core_0_L1I_prefetch_miss_rate 0
Core_0_L1I_writeback_access 0
Core_0_L1I_writeback_hit 0
Core_0_L1I_writeback_miss 0
Core_0_L1I_writeback_MPKI 0
Core_0_L1I_writeback_miss_rate 0
Core_0_L1I_prefetch_requested 0
Core_0_L1I_prefetch_issued 0
Core_0_L1I_prefetch_useful 0
Core_0_L1I_prefetch_useless 0
Core_0_L1I_prefetch_late 0
Core_0_L1I_prefetch_accuracy 0
Core_0_L1I_prefetch_coverage 0
Core_0_L1I_total_eviction 0

Core_0_L1D_total_access 33548701
Core_0_L1D_total_hit 28408223
Core_0_L1D_total_miss 5140478
Core_0_L1D_total_MPKI 102.81
Core_0_L1D_total_miss_rate 0.153224
Core_0_L1D_demand_access 13649230
Core_0_L1D_demand_hit 11707106
Core_0_L1D_demand_miss 1942124
Core_0_L1D_demand_MPKI 38.8425
Core_0_L1D_demand_miss_rate 0.142288
Core_0_L1D_load_access 13649230
Core_0_L1D_load_hit 11707106
Core_0_L1D_load_miss 1942124
Core_0_L1D_load_MPKI 38.8425
Core_0_L1D_load_miss_rate 0.142288
Core_0_L1D_rfo_access 0
Core_0_L1D_rfo_hit 0
Core_0_L1D_rfo_miss 0
Core_0_L1D_rfo_MPKI 0
Core_0_L1D_rfo_miss_rate 0
Core_0_L1D_prefetch_access 17946939
Core_0_L1D_prefetch_hit 14748780
Core_0_L1D_prefetch_miss 3198159
Core_0_L1D_prefetch_MPKI 63.9632
Core_0_L1D_prefetch_miss_rate 0.178201
Core_0_L1D_writeback_access 1952532
Core_0_L1D_writeback_hit 1952337
Core_0_L1D_writeback_miss 195
Core_0_L1D_writeback_MPKI 0.0039
Core_0_L1D_writeback_miss_rate 9.98703e-05
Core_0_L1D_prefetch_requested 50914406
Core_0_L1D_prefetch_issued 17946934
Core_0_L1D_prefetch_useful 736226
Core_0_L1D_prefetch_useless 41058
Core_0_L1D_prefetch_late 3684
Core_0_L1D_prefetch_accuracy 0.0410224
Core_0_L1D_prefetch_coverage 0.27488
Core_0_L1D_total_eviction 2665853

Core_0_L2C_total_access 6045887
Core_0_L2C_total_hit 3384931
Core_0_L2C_total_miss 2660956
Core_0_L2C_total_MPKI 53.2191
Core_0_L2C_total_miss_rate 0.440127
Core_0_L2C_demand_access 1888538
Core_0_L2C_demand_hit 318037
Core_0_L2C_demand_miss 1570501
Core_0_L2C_demand_MPKI 31.41
Core_0_L2C_demand_miss_rate 0.831596
Core_0_L2C_load_access 1888348
Core_0_L2C_load_hit 317847
Core_0_L2C_load_miss 1570501
Core_0_L2C_load_MPKI 31.41
Core_0_L2C_load_miss_rate 0.83168
Core_0_L2C_rfo_access 190
Core_0_L2C_rfo_hit 190
Core_0_L2C_rfo_miss 0
Core_0_L2C_rfo_MPKI 0
Core_0_L2C_rfo_miss_rate 0
Core_0_L2C_prefetch_access 4042677
Core_0_L2C_prefetch_hit 2952353
Core_0_L2C_prefetch_miss 1090324
Core_0_L2C_prefetch_MPKI 21.8065
Core_0_L2C_prefetch_miss_rate 0.269703
Core_0_L2C_writeback_access 114672
Core_0_L2C_writeback_hit 114541
Core_0_L2C_writeback_miss 131
Core_0_L2C_writeback_MPKI 0.00262
Core_0_L2C_writeback_miss_rate 0.00114239
Core_0_L2C_prefetch_requested 852564
Core_0_L2C_prefetch_issued 852399
Core_0_L2C_prefetch_useful 230369
Core_0_L2C_prefetch_useless 32201
Core_0_L2C_prefetch_late 214
Core_0_L2C_prefetch_accuracy 0.27026
Core_0_L2C_prefetch_coverage 0.127921
Core_0_L2C_total_eviction 2356830

Core_0_LLC_total_access 2473835
Core_0_LLC_total_hit 976403
Core_0_LLC_total_miss 1497432
Core_0_LLC_total_MPKI 29.9486
Core_0_LLC_total_miss_rate 0.605308
Core_0_LLC_demand_access 1570138
Core_0_LLC_demand_hit 950471
Core_0_LLC_demand_miss 619667
Core_0_LLC_demand_MPKI 12.3933
Core_0_LLC_demand_miss_rate 0.394658
Core_0_LLC_load_access 1570138
Core_0_LLC_load_hit 950471
Core_0_LLC_load_miss 619667
Core_0_LLC_load_MPKI 12.3933
Core_0_LLC_load_miss_rate 0.394658
Core_0_LLC_rfo_access 0
Core_0_LLC_rfo_hit 0
Core_0_LLC_rfo_miss 0
Core_0_LLC_rfo_MPKI 0
Core_0_LLC_rfo_miss_rate 0
Core_0_LLC_prefetch_access 789260
Core_0_LLC_prefetch_hit 3190
Core_0_LLC_prefetch_miss 786070
Core_0_LLC_prefetch_MPKI 15.7214
Core_0_LLC_prefetch_miss_rate 0.995958
Core_0_LLC_writeback_access 114437
Core_0_LLC_writeback_hit 22742
Core_0_LLC_writeback_miss 91695
Core_0_LLC_writeback_MPKI 1.8339
Core_0_LLC_writeback_miss_rate 0.801271
Core_0_LLC_prefetch_requested 0
Core_0_LLC_prefetch_issued 0
Core_0_LLC_prefetch_useful 0
Core_0_LLC_prefetch_useless 0
Core_0_LLC_prefetch_late 0
Core_0_LLC_prefetch_accuracy 0
Core_0_LLC_prefetch_coverage 0
Core_0_LLC_total_eviction 1496057

[DRAM Statistics]
Channel_0_RQ_row_buffer_hit 13919
Channel_0_RQ_row_buffer_miss 1390442
Channel_0_WQ_row_buffer_hit 24357
Channel_0_WQ_row_buffer_miss 87906
Channel_0_WQ_full 0
Channel_0_dbus_congested 2922945
DRAM_total_RQ_row_buffer_hit 13919
DRAM_total_RQ_row_buffer_miss 1390442
DRAM_total_WQ_row_buffer_hit 24357
DRAM_total_WQ_row_buffer_miss 87906
DRAM_total_WQ_full 0
DRAM_total_dbus_congested 2922945
DRAM_avg_congested_cycle 15.4242

======STLB miss causes ========
Core_0_STLB_miss_cause_breakdown
Core_0_STLB_cause_Demand_Data_miss 0
Core_0_STLB_cause_Demand_Data_miss_rate 0
Core_0_STLB_cause_Demand_Instruction_miss 0
Core_0_STLB_cause_Demand_Instruction_miss_rate 0
Core_0_STLB_cause_L1D_Prefetch_miss 0
Core_0_STLB_cause_L1D_Prefetch_miss_rate 0
Core_0_STLB_cause_L1I_Prefetch_miss 0
Core_0_STLB_cause_L1I_Prefetch_miss_rate 0
Core_0_STLB_cause_Other_miss 0
Core_0_STLB_cause_Other_miss_rate 0
Core_0_STLB_Demand_miss 0
Core_0_STLB_Demand_miss_rate 0
Core_0_STLB_L1D_Prefetch_miss 0
Core_0_STLB_L1D_Prefetch_miss_rate 0
Core_0_STLB_Other_miss 0
Core_0_STLB_Other_miss_rate 0
BERTI TO_L1: 46336707 TO_L2: 15345816 TO_L2_BC_MSHR: 136268
BERTI AVG_LAT: 69.2317 NUM_TRACK_LATENCY: 3841169 NUM_CANT_TRACK_LATENCY: 2
BERTI CROSS_PAGE 6947809 NO_CROSS_PAGE: 54734714
BERTI FOUND_BERTI: 12646460 NO_FOUND_BERTI: 6563898
BERTI AVERAGE_ISSUED: 3.83459
