[VMEM] WARNING: physical memory size is smaller than virtual memory size.

*** ChampSim Multicore Out-of-Order Simulator ***
Warmup Instructions: 20000000
Simulation Instructions: 50000000
Number of CPUs: 1
Page size: 4096
STLB ideal mode: all
STLB ideal fill: on
Core 0: /data0/tzh/champsim_traces/Ligra/ligra_Components.com-lj.ungraph.gcc_6.3.0_O3.drop_6250M.length_250M.champsimtrace.xz
VBerti Prefetcher
BERTI HASH ENTANGLING
BERTI IP MASK ffff
Off-chip DRAM Size: 16 GiB Channels: 1 Width: 64-bit Data Rate: 3205 MT/s
Warmup halting CPU 0 at instruction 20000004 cycle 5714299 for remainder of phase
Warmup finished CPU 0 instructions: 20000004 cycles: 5714299 cumulative IPC: 3.5 (Simulation time: 00 hr 01 min 13 sec)
Warmup complete CPU 0 instructions: 20000004 cycles: 5714299 cumulative IPC: 3.5 (Simulation time: 00 hr 01 min 13 sec)
Simulation finished CPU 0 instructions: 50000005 cycles: 114508441 cumulative IPC: 0.4366 (Simulation time: 00 hr 22 min 21 sec)
Simulation complete CPU 0 instructions: 50000005 cycles: 114508441 cumulative IPC: 0.4366 (Simulation time: 00 hr 22 min 21 sec)

ChampSim completed all CPUs

=== Simulation ===
CPU 0 runs /data0/tzh/champsim_traces/Ligra/ligra_Components.com-lj.ungraph.gcc_6.3.0_O3.drop_6250M.length_250M.champsimtrace.xz

Region of Interest Statistics

CPU 0 cumulative IPC: 0.4366 instructions: 50000005 cycles: 114508441
CPU 0 Branch Prediction Accuracy: 100% MPKI: 0 Average ROB Occupancy at Mispredict: -
Branch type MPKI
BRANCH_DIRECT_JUMP: 0
BRANCH_INDIRECT: 0
BRANCH_CONDITIONAL: 0
BRANCH_DIRECT_CALL: 0
BRANCH_INDIRECT_CALL: 0
BRANCH_RETURN: 0

cpu0->cpu0_STLB TOTAL        ACCESS:      55804 HIT:      55804 MISS:          0 MSHR_MERGE:          0
cpu0->cpu0_STLB LOAD         ACCESS:      55804 HIT:      55804 MISS:          0 MSHR_MERGE:          0
cpu0->cpu0_STLB RFO          ACCESS:          0 HIT:          0 MISS:          0 MSHR_MERGE:          0
cpu0->cpu0_STLB PREFETCH     ACCESS:          0 HIT:          0 MISS:          0 MSHR_MERGE:          0
cpu0->cpu0_STLB WRITE        ACCESS:          0 HIT:          0 MISS:          0 MSHR_MERGE:          0
cpu0->cpu0_STLB TRANSLATION  ACCESS:          0 HIT:          0 MISS:          0 MSHR_MERGE:          0
cpu0->cpu0_STLB PREFETCH REQUESTED:          0 ISSUED:          0 USEFUL:          0 USELESS:          0 LATE:          0
cpu0->cpu0_STLB AVERAGE MISS LATENCY: - cycles
cpu0->cpu0_L2C TOTAL        ACCESS:   11307826 HIT:    2466177 MISS:    8841649 MSHR_MERGE:    3863017
cpu0->cpu0_L2C LOAD         ACCESS:     870605 HIT:     124402 MISS:     746203 MSHR_MERGE:     518400
cpu0->cpu0_L2C RFO          ACCESS:    1449881 HIT:     220840 MISS:    1229041 MSHR_MERGE:     381672
cpu0->cpu0_L2C PREFETCH     ACCESS:    7201636 HIT:     335231 MISS:    6866405 MSHR_MERGE:    2962945
cpu0->cpu0_L2C WRITE        ACCESS:    1785704 HIT:    1785704 MISS:          0 MSHR_MERGE:          0
cpu0->cpu0_L2C TRANSLATION  ACCESS:          0 HIT:          0 MISS:          0 MSHR_MERGE:          0
cpu0->cpu0_L2C PREFETCH REQUESTED:    3888161 ISSUED:    3879642 USEFUL:     383816 USELESS:     111666 LATE:     280034
cpu0->cpu0_L2C AVERAGE MISS LATENCY: 466 cycles
cpu0->cpu0_L1I TOTAL        ACCESS:    5842902 HIT:    5842902 MISS:          0 MSHR_MERGE:          0
cpu0->cpu0_L1I LOAD         ACCESS:    5842902 HIT:    5842902 MISS:          0 MSHR_MERGE:          0
cpu0->cpu0_L1I RFO          ACCESS:          0 HIT:          0 MISS:          0 MSHR_MERGE:          0
cpu0->cpu0_L1I PREFETCH     ACCESS:          0 HIT:          0 MISS:          0 MSHR_MERGE:          0
cpu0->cpu0_L1I WRITE        ACCESS:          0 HIT:          0 MISS:          0 MSHR_MERGE:          0
cpu0->cpu0_L1I TRANSLATION  ACCESS:          0 HIT:          0 MISS:          0 MSHR_MERGE:          0
cpu0->cpu0_L1I PREFETCH REQUESTED:          0 ISSUED:          0 USEFUL:          0 USELESS:          0 LATE:          0
cpu0->cpu0_L1I AVERAGE MISS LATENCY: - cycles
cpu0->cpu0_L1D TOTAL        ACCESS:   16362371 HIT:    2151515 MISS:   14210856 MSHR_MERGE:    8083436
cpu0->cpu0_L1D LOAD         ACCESS:    4112099 HIT:     861938 MISS:    3250161 MSHR_MERGE:    2379556
cpu0->cpu0_L1D RFO          ACCESS:          0 HIT:          0 MISS:          0 MSHR_MERGE:          0
cpu0->cpu0_L1D PREFETCH     ACCESS:    5107432 HIT:     526056 MISS:    4581376 MSHR_MERGE:     774443
cpu0->cpu0_L1D WRITE        ACCESS:    7142840 HIT:     763521 MISS:    6379319 MSHR_MERGE:    4929437
cpu0->cpu0_L1D TRANSLATION  ACCESS:          0 HIT:          0 MISS:          0 MSHR_MERGE:          0
cpu0->cpu0_L1D PREFETCH REQUESTED:  820067818 ISSUED:    5107432 USEFUL:    1250944 USELESS:          9 LATE:     855073
cpu0->cpu0_L1D AVERAGE MISS LATENCY: 397.5 cycles
cpu0->cpu0_ITLB TOTAL        ACCESS:    5842902 HIT:    5842902 MISS:          0 MSHR_MERGE:          0
cpu0->cpu0_ITLB LOAD         ACCESS:    5842902 HIT:    5842902 MISS:          0 MSHR_MERGE:          0
cpu0->cpu0_ITLB RFO          ACCESS:          0 HIT:          0 MISS:          0 MSHR_MERGE:          0
cpu0->cpu0_ITLB PREFETCH     ACCESS:          0 HIT:          0 MISS:          0 MSHR_MERGE:          0
cpu0->cpu0_ITLB WRITE        ACCESS:          0 HIT:          0 MISS:          0 MSHR_MERGE:          0
cpu0->cpu0_ITLB TRANSLATION  ACCESS:          0 HIT:          0 MISS:          0 MSHR_MERGE:          0
cpu0->cpu0_ITLB PREFETCH REQUESTED:          0 ISSUED:          0 USEFUL:          0 USELESS:          0 LATE:          0
cpu0->cpu0_ITLB AVERAGE MISS LATENCY: - cycles
cpu0->cpu0_DTLB TOTAL        ACCESS:   13038546 HIT:   12895934 MISS:     142612 MSHR_MERGE:      86808
cpu0->cpu0_DTLB LOAD         ACCESS:   13038546 HIT:   12895934 MISS:     142612 MSHR_MERGE:      86808
cpu0->cpu0_DTLB RFO          ACCESS:          0 HIT:          0 MISS:          0 MSHR_MERGE:          0
cpu0->cpu0_DTLB PREFETCH     ACCESS:          0 HIT:          0 MISS:          0 MSHR_MERGE:          0
cpu0->cpu0_DTLB WRITE        ACCESS:          0 HIT:          0 MISS:          0 MSHR_MERGE:          0
cpu0->cpu0_DTLB TRANSLATION  ACCESS:          0 HIT:          0 MISS:          0 MSHR_MERGE:          0
cpu0->cpu0_DTLB PREFETCH REQUESTED:          0 ISSUED:          0 USEFUL:          0 USELESS:          0 LATE:          0
cpu0->cpu0_DTLB AVERAGE MISS LATENCY: 5 cycles
cpu0->LLC TOTAL        ACCESS:    6763558 HIT:    1599430 MISS:    5164128 MSHR_MERGE:    1172147
cpu0->LLC LOAD         ACCESS:     227803 HIT:      20413 MISS:     207390 MSHR_MERGE:      99335
cpu0->LLC RFO          ACCESS:     847369 HIT:      85130 MISS:     762239 MSHR_MERGE:      68392
cpu0->LLC PREFETCH     ACCESS:    3902661 HIT:     128700 MISS:    3773961 MSHR_MERGE:    1004420
cpu0->LLC WRITE        ACCESS:    1785725 HIT:    1365187 MISS:     420538 MSHR_MERGE:          0
cpu0->LLC TRANSLATION  ACCESS:          0 HIT:          0 MISS:          0 MSHR_MERGE:          0
cpu0->LLC PREFETCH REQUESTED:          0 ISSUED:          0 USEFUL:          0 USELESS:          0 LATE:          0
cpu0->LLC AVERAGE MISS LATENCY: 375.4 cycles

DRAM Statistics

Channel 0 RQ ROW_BUFFER_HIT:     253877
  ROW_BUFFER_MISS:    3317558
  AVG DBUS CONGESTED CYCLE: 6.504
Channel 0 WQ ROW_BUFFER_HIT:      99074
  ROW_BUFFER_MISS:    1698312
  FULL:          0
Channel 0 REFRESHES ISSUED:       9542

[ROI Statistics]
[System Configuration]
num_cpus 1
cpu_freq 4000
fetch_width 6
decode_width 6
dispatch_width 6
execute_width 6
lq_width 2
sq_width 2
retire_width 6
scheduler_size 128
branch_mispredict_penalty 15
rob_size 352
lq_size 128
sq_size 72
ifetch_buffer_size 64
decode_buffer_size 32
dispatch_buffer_size 32
register_file_size 288
decode_latency 1
dispatch_latency 1
schedule_latency 1
execute_latency 1
page_size 4096
block_size 64
core_0_itlb_set 16
core_0_itlb_way 4
core_0_itlb_rq_size 16
core_0_itlb_wq_size 16
core_0_itlb_pq_size 0
core_0_itlb_mshr_size 8
core_0_itlb_hit_latency 1
core_0_itlb_fill_latency 1
core_0_itlb_max_tag_check 2
core_0_itlb_max_fill 2
core_0_dtlb_set 16
core_0_dtlb_way 4
core_0_dtlb_rq_size 16
core_0_dtlb_wq_size 16
core_0_dtlb_pq_size 0
core_0_dtlb_mshr_size 8
core_0_dtlb_hit_latency 1
core_0_dtlb_fill_latency 1
core_0_dtlb_max_tag_check 2
core_0_dtlb_max_fill 2
core_0_stlb_set 128
core_0_stlb_way 12
core_0_stlb_rq_size 32
core_0_stlb_wq_size 32
core_0_stlb_pq_size 0
core_0_stlb_mshr_size 16
core_0_stlb_hit_latency 4
core_0_stlb_fill_latency 4
core_0_stlb_max_tag_check 1
core_0_stlb_max_fill 1
core_0_l1i_set 64
core_0_l1i_way 8
core_0_l1i_rq_size 64
core_0_l1i_wq_size 64
core_0_l1i_pq_size 32
core_0_l1i_mshr_size 8
core_0_l1i_hit_latency 2
core_0_l1i_fill_latency 2
core_0_l1i_max_tag_check 2
core_0_l1i_max_fill 2
core_0_l1d_set 64
core_0_l1d_way 12
core_0_l1d_rq_size 64
core_0_l1d_wq_size 64
core_0_l1d_pq_size 8
core_0_l1d_mshr_size 16
core_0_l1d_hit_latency 2
core_0_l1d_fill_latency 3
core_0_l1d_max_tag_check 2
core_0_l1d_max_fill 2
core_0_l2c_set 1024
core_0_l2c_way 8
core_0_l2c_rq_size 32
core_0_l2c_wq_size 32
core_0_l2c_pq_size 16
core_0_l2c_mshr_size 32
core_0_l2c_hit_latency 5
core_0_l2c_fill_latency 5
core_0_l2c_max_tag_check 1
core_0_l2c_max_fill 1
llc_set 2048
llc_way 16
llc_rq_size 32
llc_wq_size 32
llc_pq_size 32
llc_mshr_size 64
llc_hit_latency 10
llc_fill_latency 10
llc_max_tag_check 1
llc_max_fill 1
dram_channels 1
dram_ranks 1
dram_bankgroups 8
dram_banks 4
dram_rows 65536
dram_columns 1024
dram_channel_width 8
dram_rq_size 64
dram_wq_size 64
dram_size 17179869184
core_0_itlb_prefetcher no
core_0_dtlb_prefetcher no
core_0_stlb_prefetcher no
core_0_l1i_prefetcher next_line
core_0_l1d_prefetcher vberti
core_0_l2c_prefetcher ip_stride
llc_prefetcher no
llc_replacement drrip

Core_0_instructions 50000005
Core_0_cycles 114508441
Core_0_IPC 0.436649
Core_0_branch_prediction_accuracy 100
Core_0_branch_MPKI 0
Core_0_average_ROB_occupancy_at_mispredict 0

Core_0_ITLB_total_access 5842902
Core_0_ITLB_total_hit 5842902
Core_0_ITLB_total_miss 0
Core_0_ITLB_total_MPKI 0
Core_0_ITLB_total_miss_rate 0
Core_0_ITLB_demand_access 5842902
Core_0_ITLB_demand_hit 5842902
Core_0_ITLB_demand_miss 0
Core_0_ITLB_demand_MPKI 0
Core_0_ITLB_demand_miss_rate 0
Core_0_ITLB_load_access 5842902
Core_0_ITLB_load_hit 5842902
Core_0_ITLB_load_miss 0
Core_0_ITLB_load_MPKI 0
Core_0_ITLB_load_miss_rate 0
Core_0_ITLB_rfo_access 0
Core_0_ITLB_rfo_hit 0
Core_0_ITLB_rfo_miss 0
Core_0_ITLB_rfo_MPKI 0
Core_0_ITLB_rfo_miss_rate 0
Core_0_ITLB_prefetch_access 0
Core_0_ITLB_prefetch_hit 0
Core_0_ITLB_prefetch_miss 0
Core_0_ITLB_prefetch_MPKI 0
Core_0_ITLB_prefetch_miss_rate 0
Core_0_ITLB_writeback_access 0
Core_0_ITLB_writeback_hit 0
Core_0_ITLB_writeback_miss 0
Core_0_ITLB_writeback_MPKI 0
Core_0_ITLB_writeback_miss_rate 0
Core_0_ITLB_prefetch_requested 0
Core_0_ITLB_prefetch_issued 0
Core_0_ITLB_prefetch_useful 0
Core_0_ITLB_prefetch_useless 0
Core_0_ITLB_prefetch_late 0
Core_0_ITLB_prefetch_accuracy 0
Core_0_ITLB_prefetch_coverage 0
Core_0_ITLB_total_eviction 0

Core_0_DTLB_total_access 13038546
Core_0_DTLB_total_hit 12895934
Core_0_DTLB_total_miss 142612
Core_0_DTLB_total_MPKI 2.85224
Core_0_DTLB_total_miss_rate 0.0109377
Core_0_DTLB_demand_access 13038546
Core_0_DTLB_demand_hit 12895934
Core_0_DTLB_demand_miss 142612
Core_0_DTLB_demand_MPKI 2.85224
Core_0_DTLB_demand_miss_rate 0.0109377
Core_0_DTLB_load_access 13038546
Core_0_DTLB_load_hit 12895934
Core_0_DTLB_load_miss 142612
Core_0_DTLB_load_MPKI 2.85224
Core_0_DTLB_load_miss_rate 0.0109377
Core_0_DTLB_rfo_access 0
Core_0_DTLB_rfo_hit 0
Core_0_DTLB_rfo_miss 0
Core_0_DTLB_rfo_MPKI 0
Core_0_DTLB_rfo_miss_rate 0
Core_0_DTLB_prefetch_access 0
Core_0_DTLB_prefetch_hit 0
Core_0_DTLB_prefetch_miss 0
Core_0_DTLB_prefetch_MPKI 0
Core_0_DTLB_prefetch_miss_rate 0
Core_0_DTLB_writeback_access 0
Core_0_DTLB_writeback_hit 0
Core_0_DTLB_writeback_miss 0
Core_0_DTLB_writeback_MPKI 0
Core_0_DTLB_writeback_miss_rate 0
Core_0_DTLB_prefetch_requested 0
Core_0_DTLB_prefetch_issued 0
Core_0_DTLB_prefetch_useful 0
Core_0_DTLB_prefetch_useless 0
Core_0_DTLB_prefetch_late 0
Core_0_DTLB_prefetch_accuracy 0
Core_0_DTLB_prefetch_coverage 0
Core_0_DTLB_total_eviction 55804

Core_0_STLB_total_access 55804
Core_0_STLB_total_hit 55804
Core_0_STLB_total_miss 0
Core_0_STLB_total_MPKI 0
Core_0_STLB_total_miss_rate 0
Core_0_STLB_demand_access 55804
Core_0_STLB_demand_hit 55804
Core_0_STLB_demand_miss 0
Core_0_STLB_demand_MPKI 0
Core_0_STLB_demand_miss_rate 0
Core_0_STLB_load_access 55804
Core_0_STLB_load_hit 55804
Core_0_STLB_load_miss 0
Core_0_STLB_load_MPKI 0
Core_0_STLB_load_miss_rate 0
Core_0_STLB_rfo_access 0
Core_0_STLB_rfo_hit 0
Core_0_STLB_rfo_miss 0
Core_0_STLB_rfo_MPKI 0
Core_0_STLB_rfo_miss_rate 0
Core_0_STLB_prefetch_access 0
Core_0_STLB_prefetch_hit 0
Core_0_STLB_prefetch_miss 0
Core_0_STLB_prefetch_MPKI 0
Core_0_STLB_prefetch_miss_rate 0
Core_0_STLB_writeback_access 0
Core_0_STLB_writeback_hit 0
Core_0_STLB_writeback_miss 0
Core_0_STLB_writeback_MPKI 0
Core_0_STLB_writeback_miss_rate 0
Core_0_STLB_prefetch_requested 0
Core_0_STLB_prefetch_issued 0
Core_0_STLB_prefetch_useful 0
Core_0_STLB_prefetch_useless 0
Core_0_STLB_prefetch_late 0
Core_0_STLB_prefetch_accuracy 0
Core_0_STLB_prefetch_coverage 0
Core_0_STLB_total_eviction 55804

Core_0_L1I_total_access 5842902
Core_0_L1I_total_hit 5842902
Core_0_L1I_total_miss 0
Core_0_L1I_total_MPKI 0
Core_0_L1I_total_miss_rate 0
Core_0_L1I_demand_access 5842902
Core_0_L1I_demand_hit 5842902
Core_0_L1I_demand_miss 0
Core_0_L1I_demand_MPKI 0
Core_0_L1I_demand_miss_rate 0
Core_0_L1I_load_access 5842902
Core_0_L1I_load_hit 5842902
Core_0_L1I_load_miss 0
Core_0_L1I_load_MPKI 0
Core_0_L1I_load_miss_rate 0
Core_0_L1I_rfo_access 0
Core_0_L1I_rfo_hit 0
Core_0_L1I_rfo_miss 0
Core_0_L1I_rfo_MPKI 0
Core_0_L1I_rfo_miss_rate 0
Core_0_L1I_prefetch_access 0
Core_0_L1I_prefetch_hit 0
Core_0_L1I_prefetch_miss 0
Core_0_L1I_prefetch_MPKI 0
Core_0_L1I_prefetch_miss_rate 0
Core_0_L1I_writeback_access 0
Core_0_L1I_writeback_hit 0
Core_0_L1I_writeback_miss 0
Core_0_L1I_writeback_MPKI 0
Core_0_L1I_writeback_miss_rate 0
Core_0_L1I_prefetch_requested 0
Core_0_L1I_prefetch_issued 0
Core_0_L1I_prefetch_useful 0
Core_0_L1I_prefetch_useless 0
Core_0_L1I_prefetch_late 0
Core_0_L1I_prefetch_accuracy 0
Core_0_L1I_prefetch_coverage 0
Core_0_L1I_total_eviction 0

Core_0_L1D_total_access 16362371
Core_0_L1D_total_hit 2151515
Core_0_L1D_total_miss 14210856
Core_0_L1D_total_MPKI 284.217
Core_0_L1D_total_miss_rate 0.868508
Core_0_L1D_demand_access 4112099
Core_0_L1D_demand_hit 861938
Core_0_L1D_demand_miss 3250161
Core_0_L1D_demand_MPKI 65.0032
Core_0_L1D_demand_miss_rate 0.79039
Core_0_L1D_load_access 4112099
Core_0_L1D_load_hit 861938
Core_0_L1D_load_miss 3250161
Core_0_L1D_load_MPKI 65.0032
Core_0_L1D_load_miss_rate 0.79039
Core_0_L1D_rfo_access 0
Core_0_L1D_rfo_hit 0
Core_0_L1D_rfo_miss 0
Core_0_L1D_rfo_MPKI 0
Core_0_L1D_rfo_miss_rate 0
Core_0_L1D_prefetch_access 5107432
Core_0_L1D_prefetch_hit 526056
Core_0_L1D_prefetch_miss 4581376
Core_0_L1D_prefetch_MPKI 91.6275
Core_0_L1D_prefetch_miss_rate 0.897002
Core_0_L1D_writeback_access 7142840
Core_0_L1D_writeback_hit 763521
Core_0_L1D_writeback_miss 6379319
Core_0_L1D_writeback_MPKI 127.586
Core_0_L1D_writeback_miss_rate 0.893107
Core_0_L1D_prefetch_requested 820067818
Core_0_L1D_prefetch_issued 5107432
Core_0_L1D_prefetch_useful 1250944
Core_0_L1D_prefetch_useless 9
Core_0_L1D_prefetch_late 855073
Core_0_L1D_prefetch_accuracy 0.244926
Core_0_L1D_prefetch_coverage 0.277919
Core_0_L1D_total_eviction 3571433

Core_0_L2C_total_access 11307826
Core_0_L2C_total_hit 2466177
Core_0_L2C_total_miss 8841649
Core_0_L2C_total_MPKI 176.833
Core_0_L2C_total_miss_rate 0.781905
Core_0_L2C_demand_access 2320486
Core_0_L2C_demand_hit 345242
Core_0_L2C_demand_miss 1975244
Core_0_L2C_demand_MPKI 39.5049
Core_0_L2C_demand_miss_rate 0.85122
Core_0_L2C_load_access 870605
Core_0_L2C_load_hit 124402
Core_0_L2C_load_miss 746203
Core_0_L2C_load_MPKI 14.9241
Core_0_L2C_load_miss_rate 0.857109
Core_0_L2C_rfo_access 1449881
Core_0_L2C_rfo_hit 220840
Core_0_L2C_rfo_miss 1229041
Core_0_L2C_rfo_MPKI 24.5808
Core_0_L2C_rfo_miss_rate 0.847684
Core_0_L2C_prefetch_access 7201636
Core_0_L2C_prefetch_hit 335231
Core_0_L2C_prefetch_miss 6866405
Core_0_L2C_prefetch_MPKI 137.328
Core_0_L2C_prefetch_miss_rate 0.953451
Core_0_L2C_writeback_access 1785704
Core_0_L2C_writeback_hit 1785704
Core_0_L2C_writeback_miss 0
Core_0_L2C_writeback_MPKI 0
Core_0_L2C_writeback_miss_rate 0
Core_0_L2C_prefetch_requested 3888161
Core_0_L2C_prefetch_issued 3879642
Core_0_L2C_prefetch_useful 383816
Core_0_L2C_prefetch_useless 111666
Core_0_L2C_prefetch_late 280034
Core_0_L2C_prefetch_accuracy 0.0989308
Core_0_L2C_prefetch_coverage 0.162699
Core_0_L2C_total_eviction 3571429

Core_0_LLC_total_access 6763558
Core_0_LLC_total_hit 1599430
Core_0_LLC_total_miss 5164128
Core_0_LLC_total_MPKI 103.283
Core_0_LLC_total_miss_rate 0.763522
Core_0_LLC_demand_access 1075172
Core_0_LLC_demand_hit 105543
Core_0_LLC_demand_miss 969629
Core_0_LLC_demand_MPKI 19.3926
Core_0_LLC_demand_miss_rate 0.901836
Core_0_LLC_load_access 227803
Core_0_LLC_load_hit 20413
Core_0_LLC_load_miss 207390
Core_0_LLC_load_MPKI 4.1478
Core_0_LLC_load_miss_rate 0.910392
Core_0_LLC_rfo_access 847369
Core_0_LLC_rfo_hit 85130
Core_0_LLC_rfo_miss 762239
Core_0_LLC_rfo_MPKI 15.2448
Core_0_LLC_rfo_miss_rate 0.899536
Core_0_LLC_prefetch_access 3902661
Core_0_LLC_prefetch_hit 128700
Core_0_LLC_prefetch_miss 3773961
Core_0_LLC_prefetch_MPKI 75.4792
Core_0_LLC_prefetch_miss_rate 0.967023
Core_0_LLC_writeback_access 1785725
Core_0_LLC_writeback_hit 1365187
Core_0_LLC_writeback_miss 420538
Core_0_LLC_writeback_MPKI 8.41076
Core_0_LLC_writeback_miss_rate 0.2355
Core_0_LLC_prefetch_requested 0
Core_0_LLC_prefetch_issued 0
Core_0_LLC_prefetch_useful 0
Core_0_LLC_prefetch_useless 0
Core_0_LLC_prefetch_late 0
Core_0_LLC_prefetch_accuracy 0
Core_0_LLC_prefetch_coverage 0
Core_0_LLC_total_eviction 3991973

[DRAM Statistics]
Channel_0_RQ_row_buffer_hit 253877
Channel_0_RQ_row_buffer_miss 3317558
Channel_0_WQ_row_buffer_hit 99074
Channel_0_WQ_row_buffer_miss 1698312
Channel_0_WQ_full 0
Channel_0_dbus_congested 18850585
DRAM_total_RQ_row_buffer_hit 253877
DRAM_total_RQ_row_buffer_miss 3317558
DRAM_total_WQ_row_buffer_hit 99074
DRAM_total_WQ_row_buffer_miss 1698312
DRAM_total_WQ_full 0
DRAM_total_dbus_congested 18850585
DRAM_avg_congested_cycle 6.50426

======STLB miss causes ========
Core_0_STLB_miss_cause_breakdown
Core_0_STLB_cause_Demand_Data_miss 0
Core_0_STLB_cause_Demand_Data_miss_rate 0
Core_0_STLB_cause_Demand_Instruction_miss 0
Core_0_STLB_cause_Demand_Instruction_miss_rate 0
Core_0_STLB_cause_L1D_Prefetch_miss 0
Core_0_STLB_cause_L1D_Prefetch_miss_rate 0
Core_0_STLB_cause_L1I_Prefetch_miss 0
Core_0_STLB_cause_L1I_Prefetch_miss_rate 0
Core_0_STLB_cause_Other_miss 0
Core_0_STLB_cause_Other_miss_rate 0
Core_0_STLB_Demand_miss 0
Core_0_STLB_Demand_miss_rate 0
Core_0_STLB_L1D_Prefetch_miss 0
Core_0_STLB_L1D_Prefetch_miss_rate 0
Core_0_STLB_Other_miss 0
Core_0_STLB_Other_miss_rate 0
BERTI TO_L1: 102262476 TO_L2: 800205535 TO_L2_BC_MSHR: 541071614
BERTI AVG_LAT: 320.275 NUM_TRACK_LATENCY: 4975488 NUM_CANT_TRACK_LATENCY: 7
BERTI CROSS_PAGE 103871036 NO_CROSS_PAGE: 798596975
BERTI FOUND_BERTI: 87730287 NO_FOUND_BERTI: 15
BERTI AVERAGE_ISSUED: 1.77458
