[VMEM] WARNING: physical memory size is smaller than virtual memory size.

*** ChampSim Multicore Out-of-Order Simulator ***
Warmup Instructions: 20000000
Simulation Instructions: 50000000
Number of CPUs: 1
Page size: 4096
STLB ideal mode: all
STLB ideal fill: on
Core 0: /data0/tzh/champsim_traces/QMM/srv_64_new.xz
VBerti Prefetcher
BERTI HASH ENTANGLING
BERTI IP MASK ffff
Off-chip DRAM Size: 16 GiB Channels: 1 Width: 64-bit Data Rate: 3205 MT/s
[BTB] WARNING: target of return is a lower address than the corresponding call. This is usually a problem with your trace.
[BTB] WARNING: target of return is a lower address than the corresponding call. This is usually a problem with your trace.
[BTB] WARNING: target of return is a lower address than the corresponding call. This is usually a problem with your trace.
[BTB] WARNING: target of return is a lower address than the corresponding call. This is usually a problem with your trace.
[BTB] WARNING: target of return is a lower address than the corresponding call. This is usually a problem with your trace.
[BTB] WARNING: target of return is a lower address than the corresponding call. This is usually a problem with your trace.
[BTB] WARNING: target of return is a lower address than the corresponding call. This is usually a problem with your trace.
[BTB] WARNING: target of return is a lower address than the corresponding call. This is usually a problem with your trace.
[BTB] WARNING: target of return is a lower address than the corresponding call. This is usually a problem with your trace.
[BTB] WARNING: target of return is a lower address than the corresponding call. This is usually a problem with your trace.
Warmup halting CPU 0 at instruction 20000005 cycle 4090799 for remainder of phase
Warmup finished CPU 0 instructions: 20000005 cycles: 4090799 cumulative IPC: 4.889 (Simulation time: 00 hr 01 min 02 sec)
Warmup complete CPU 0 instructions: 20000005 cycles: 4090799 cumulative IPC: 4.889 (Simulation time: 00 hr 01 min 02 sec)
*** Reached end of trace: (0, "/data0/tzh/champsim_traces/QMM/srv_64_new.xz")
*** Reached end of trace: (0, "/data0/tzh/champsim_traces/QMM/srv_64_new.xz")
Simulation finished CPU 0 instructions: 50000005 cycles: 24753162 cumulative IPC: 2.02 (Simulation time: 00 hr 05 min 15 sec)
Simulation complete CPU 0 instructions: 50000005 cycles: 24753162 cumulative IPC: 2.02 (Simulation time: 00 hr 05 min 15 sec)

ChampSim completed all CPUs

=== Simulation ===
CPU 0 runs /data0/tzh/champsim_traces/QMM/srv_64_new.xz

Region of Interest Statistics

CPU 0 cumulative IPC: 2.02 instructions: 50000005 cycles: 24753162
CPU 0 Branch Prediction Accuracy: 98.76% MPKI: 2.221 Average ROB Occupancy at Mispredict: 148.6
Branch type MPKI
BRANCH_DIRECT_JUMP: 0.1316
BRANCH_INDIRECT: 0.1672
BRANCH_CONDITIONAL: 1.364
BRANCH_DIRECT_CALL: 0.2412
BRANCH_INDIRECT_CALL: 0.07586
BRANCH_RETURN: 0.2411

cpu0->cpu0_STLB TOTAL        ACCESS:     814729 HIT:     814729 MISS:          0 MSHR_MERGE:          0
cpu0->cpu0_STLB LOAD         ACCESS:     814729 HIT:     814729 MISS:          0 MSHR_MERGE:          0
cpu0->cpu0_STLB RFO          ACCESS:          0 HIT:          0 MISS:          0 MSHR_MERGE:          0
cpu0->cpu0_STLB PREFETCH     ACCESS:          0 HIT:          0 MISS:          0 MSHR_MERGE:          0
cpu0->cpu0_STLB WRITE        ACCESS:          0 HIT:          0 MISS:          0 MSHR_MERGE:          0
cpu0->cpu0_STLB TRANSLATION  ACCESS:          0 HIT:          0 MISS:          0 MSHR_MERGE:          0
cpu0->cpu0_STLB PREFETCH REQUESTED:          0 ISSUED:          0 USEFUL:          0 USELESS:          0 LATE:          0
cpu0->cpu0_STLB AVERAGE MISS LATENCY: - cycles
cpu0->cpu0_L2C TOTAL        ACCESS:    2173200 HIT:    1478319 MISS:     694881 MSHR_MERGE:        373
cpu0->cpu0_L2C LOAD         ACCESS:    1817791 HIT:    1172805 MISS:     644986 MSHR_MERGE:         32
cpu0->cpu0_L2C RFO          ACCESS:      80454 HIT:      40939 MISS:      39515 MSHR_MERGE:          0
cpu0->cpu0_L2C PREFETCH     ACCESS:      18810 HIT:      10036 MISS:       8774 MSHR_MERGE:        341
cpu0->cpu0_L2C WRITE        ACCESS:     256145 HIT:     254539 MISS:       1606 MSHR_MERGE:          0
cpu0->cpu0_L2C TRANSLATION  ACCESS:          0 HIT:          0 MISS:          0 MSHR_MERGE:          0
cpu0->cpu0_L2C PREFETCH REQUESTED:      18173 ISSUED:      18022 USEFUL:       5509 USELESS:       2748 LATE:         30
cpu0->cpu0_L2C AVERAGE MISS LATENCY: 32.91 cycles
cpu0->cpu0_L1I TOTAL        ACCESS:    7894548 HIT:    5798417 MISS:    2096131 MSHR_MERGE:     813033
cpu0->cpu0_L1I LOAD         ACCESS:    7894548 HIT:    5798417 MISS:    2096131 MSHR_MERGE:     813033
cpu0->cpu0_L1I RFO          ACCESS:          0 HIT:          0 MISS:          0 MSHR_MERGE:          0
cpu0->cpu0_L1I PREFETCH     ACCESS:          0 HIT:          0 MISS:          0 MSHR_MERGE:          0
cpu0->cpu0_L1I WRITE        ACCESS:          0 HIT:          0 MISS:          0 MSHR_MERGE:          0
cpu0->cpu0_L1I TRANSLATION  ACCESS:          0 HIT:          0 MISS:          0 MSHR_MERGE:          0
cpu0->cpu0_L1I PREFETCH REQUESTED:          0 ISSUED:          0 USEFUL:          0 USELESS:          0 LATE:          0
cpu0->cpu0_L1I AVERAGE MISS LATENCY: 12.64 cycles
cpu0->cpu0_L1D TOTAL        ACCESS:   11378139 HIT:   10429101 MISS:     949038 MSHR_MERGE:     333085
cpu0->cpu0_L1D LOAD         ACCESS:    6424031 HIT:    5698474 MISS:     725557 MSHR_MERGE:     190856
cpu0->cpu0_L1D RFO          ACCESS:          0 HIT:          0 MISS:          0 MSHR_MERGE:          0
cpu0->cpu0_L1D PREFETCH     ACCESS:      11487 HIT:      10698 MISS:        789 MSHR_MERGE:          1
cpu0->cpu0_L1D WRITE        ACCESS:    4942621 HIT:    4719929 MISS:     222692 MSHR_MERGE:     142228
cpu0->cpu0_L1D TRANSLATION  ACCESS:          0 HIT:          0 MISS:          0 MSHR_MERGE:          0
cpu0->cpu0_L1D PREFETCH REQUESTED:      14402 ISSUED:      11487 USEFUL:         76 USELESS:         10 LATE:          0
cpu0->cpu0_L1D AVERAGE MISS LATENCY: 34.89 cycles
cpu0->cpu0_ITLB TOTAL        ACCESS:    6716062 HIT:    6243881 MISS:     472181 MSHR_MERGE:     281864
cpu0->cpu0_ITLB LOAD         ACCESS:    6716062 HIT:    6243881 MISS:     472181 MSHR_MERGE:     281864
cpu0->cpu0_ITLB RFO          ACCESS:          0 HIT:          0 MISS:          0 MSHR_MERGE:          0
cpu0->cpu0_ITLB PREFETCH     ACCESS:          0 HIT:          0 MISS:          0 MSHR_MERGE:          0
cpu0->cpu0_ITLB WRITE        ACCESS:          0 HIT:          0 MISS:          0 MSHR_MERGE:          0
cpu0->cpu0_ITLB TRANSLATION  ACCESS:          0 HIT:          0 MISS:          0 MSHR_MERGE:          0
cpu0->cpu0_ITLB PREFETCH REQUESTED:          0 ISSUED:          0 USEFUL:          0 USELESS:          0 LATE:          0
cpu0->cpu0_ITLB AVERAGE MISS LATENCY: 5.031 cycles
cpu0->cpu0_DTLB TOTAL        ACCESS:   10681487 HIT:    9848287 MISS:     833200 MSHR_MERGE:     208787
cpu0->cpu0_DTLB LOAD         ACCESS:   10681487 HIT:    9848287 MISS:     833200 MSHR_MERGE:     208787
cpu0->cpu0_DTLB RFO          ACCESS:          0 HIT:          0 MISS:          0 MSHR_MERGE:          0
cpu0->cpu0_DTLB PREFETCH     ACCESS:          0 HIT:          0 MISS:          0 MSHR_MERGE:          0
cpu0->cpu0_DTLB WRITE        ACCESS:          0 HIT:          0 MISS:          0 MSHR_MERGE:          0
cpu0->cpu0_DTLB TRANSLATION  ACCESS:          0 HIT:          0 MISS:          0 MSHR_MERGE:          0
cpu0->cpu0_DTLB PREFETCH REQUESTED:          0 ISSUED:          0 USEFUL:          0 USELESS:          0 LATE:          0
cpu0->cpu0_DTLB AVERAGE MISS LATENCY: 5.007 cycles
cpu0->LLC TOTAL        ACCESS:     820642 HIT:     747249 MISS:      73393 MSHR_MERGE:          0
cpu0->LLC LOAD         ACCESS:     644953 HIT:     590984 MISS:      53969 MSHR_MERGE:          0
cpu0->LLC RFO          ACCESS:      39515 HIT:      27869 MISS:      11646 MSHR_MERGE:          0
cpu0->LLC PREFETCH     ACCESS:       8433 HIT:       3366 MISS:       5067 MSHR_MERGE:          0
cpu0->LLC WRITE        ACCESS:     127741 HIT:     125030 MISS:       2711 MSHR_MERGE:          0
cpu0->LLC TRANSLATION  ACCESS:          0 HIT:          0 MISS:          0 MSHR_MERGE:          0
cpu0->LLC PREFETCH REQUESTED:          0 ISSUED:          0 USEFUL:          0 USELESS:          0 LATE:          0
cpu0->LLC AVERAGE MISS LATENCY: 179.3 cycles

DRAM Statistics

Channel 0 RQ ROW_BUFFER_HIT:       3010
  ROW_BUFFER_MISS:      67671
  AVG DBUS CONGESTED CYCLE: 15.87
Channel 0 WQ ROW_BUFFER_HIT:      11058
  ROW_BUFFER_MISS:      41789
  FULL:          0
Channel 0 REFRESHES ISSUED:       2063

[ROI Statistics]
[System Configuration]
num_cpus 1
cpu_freq 4000
fetch_width 6
decode_width 6
dispatch_width 6
execute_width 6
lq_width 2
sq_width 2
retire_width 6
scheduler_size 128
branch_mispredict_penalty 15
rob_size 352
lq_size 128
sq_size 72
ifetch_buffer_size 64
decode_buffer_size 32
dispatch_buffer_size 32
register_file_size 288
decode_latency 1
dispatch_latency 1
schedule_latency 1
execute_latency 1
page_size 4096
block_size 64
core_0_itlb_set 16
core_0_itlb_way 4
core_0_itlb_rq_size 16
core_0_itlb_wq_size 16
core_0_itlb_pq_size 0
core_0_itlb_mshr_size 8
core_0_itlb_hit_latency 1
core_0_itlb_fill_latency 1
core_0_itlb_max_tag_check 2
core_0_itlb_max_fill 2
core_0_dtlb_set 16
core_0_dtlb_way 4
core_0_dtlb_rq_size 16
core_0_dtlb_wq_size 16
core_0_dtlb_pq_size 0
core_0_dtlb_mshr_size 8
core_0_dtlb_hit_latency 1
core_0_dtlb_fill_latency 1
core_0_dtlb_max_tag_check 2
core_0_dtlb_max_fill 2
core_0_stlb_set 128
core_0_stlb_way 12
core_0_stlb_rq_size 32
core_0_stlb_wq_size 32
core_0_stlb_pq_size 0
core_0_stlb_mshr_size 16
core_0_stlb_hit_latency 4
core_0_stlb_fill_latency 4
core_0_stlb_max_tag_check 1
core_0_stlb_max_fill 1
core_0_l1i_set 64
core_0_l1i_way 8
core_0_l1i_rq_size 64
core_0_l1i_wq_size 64
core_0_l1i_pq_size 32
core_0_l1i_mshr_size 8
core_0_l1i_hit_latency 2
core_0_l1i_fill_latency 2
core_0_l1i_max_tag_check 2
core_0_l1i_max_fill 2
core_0_l1d_set 64
core_0_l1d_way 12
core_0_l1d_rq_size 64
core_0_l1d_wq_size 64
core_0_l1d_pq_size 8
core_0_l1d_mshr_size 16
core_0_l1d_hit_latency 2
core_0_l1d_fill_latency 3
core_0_l1d_max_tag_check 2
core_0_l1d_max_fill 2
core_0_l2c_set 1024
core_0_l2c_way 8
core_0_l2c_rq_size 32
core_0_l2c_wq_size 32
core_0_l2c_pq_size 16
core_0_l2c_mshr_size 32
core_0_l2c_hit_latency 5
core_0_l2c_fill_latency 5
core_0_l2c_max_tag_check 1
core_0_l2c_max_fill 1
llc_set 2048
llc_way 16
llc_rq_size 32
llc_wq_size 32
llc_pq_size 32
llc_mshr_size 64
llc_hit_latency 10
llc_fill_latency 10
llc_max_tag_check 1
llc_max_fill 1
dram_channels 1
dram_ranks 1
dram_bankgroups 8
dram_banks 4
dram_rows 65536
dram_columns 1024
dram_channel_width 8
dram_rq_size 64
dram_wq_size 64
dram_size 17179869184
core_0_itlb_prefetcher no
core_0_dtlb_prefetcher no
core_0_stlb_prefetcher no
core_0_l1i_prefetcher next_line
core_0_l1d_prefetcher vberti
core_0_l2c_prefetcher ip_stride
llc_prefetcher no
llc_replacement drrip

Core_0_instructions 50000005
Core_0_cycles 24753162
Core_0_IPC 2.01994
Core_0_branch_prediction_accuracy 98.7618
Core_0_branch_MPKI 2.2208
Core_0_average_ROB_occupancy_at_mispredict 148.576

Core_0_ITLB_total_access 6716062
Core_0_ITLB_total_hit 6243881
Core_0_ITLB_total_miss 472181
Core_0_ITLB_total_MPKI 9.44362
Core_0_ITLB_total_miss_rate 0.0703062
Core_0_ITLB_demand_access 6716062
Core_0_ITLB_demand_hit 6243881
Core_0_ITLB_demand_miss 472181
Core_0_ITLB_demand_MPKI 9.44362
Core_0_ITLB_demand_miss_rate 0.0703062
Core_0_ITLB_load_access 6716062
Core_0_ITLB_load_hit 6243881
Core_0_ITLB_load_miss 472181
Core_0_ITLB_load_MPKI 9.44362
Core_0_ITLB_load_miss_rate 0.0703062
Core_0_ITLB_rfo_access 0
Core_0_ITLB_rfo_hit 0
Core_0_ITLB_rfo_miss 0
Core_0_ITLB_rfo_MPKI 0
Core_0_ITLB_rfo_miss_rate 0
Core_0_ITLB_prefetch_access 0
Core_0_ITLB_prefetch_hit 0
Core_0_ITLB_prefetch_miss 0
Core_0_ITLB_prefetch_MPKI 0
Core_0_ITLB_prefetch_miss_rate 0
Core_0_ITLB_writeback_access 0
Core_0_ITLB_writeback_hit 0
Core_0_ITLB_writeback_miss 0
Core_0_ITLB_writeback_MPKI 0
Core_0_ITLB_writeback_miss_rate 0
Core_0_ITLB_prefetch_requested 0
Core_0_ITLB_prefetch_issued 0
Core_0_ITLB_prefetch_useful 0
Core_0_ITLB_prefetch_useless 0
Core_0_ITLB_prefetch_late 0
Core_0_ITLB_prefetch_accuracy 0
Core_0_ITLB_prefetch_coverage 0
Core_0_ITLB_total_eviction 190316

Core_0_DTLB_total_access 10681487
Core_0_DTLB_total_hit 9848287
Core_0_DTLB_total_miss 833200
Core_0_DTLB_total_MPKI 16.664
Core_0_DTLB_total_miss_rate 0.0780041
Core_0_DTLB_demand_access 10681487
Core_0_DTLB_demand_hit 9848287
Core_0_DTLB_demand_miss 833200
Core_0_DTLB_demand_MPKI 16.664
Core_0_DTLB_demand_miss_rate 0.0780041
Core_0_DTLB_load_access 10681487
Core_0_DTLB_load_hit 9848287
Core_0_DTLB_load_miss 833200
Core_0_DTLB_load_MPKI 16.664
Core_0_DTLB_load_miss_rate 0.0780041
Core_0_DTLB_rfo_access 0
Core_0_DTLB_rfo_hit 0
Core_0_DTLB_rfo_miss 0
Core_0_DTLB_rfo_MPKI 0
Core_0_DTLB_rfo_miss_rate 0
Core_0_DTLB_prefetch_access 0
Core_0_DTLB_prefetch_hit 0
Core_0_DTLB_prefetch_miss 0
Core_0_DTLB_prefetch_MPKI 0
Core_0_DTLB_prefetch_miss_rate 0
Core_0_DTLB_writeback_access 0
Core_0_DTLB_writeback_hit 0
Core_0_DTLB_writeback_miss 0
Core_0_DTLB_writeback_MPKI 0
Core_0_DTLB_writeback_miss_rate 0
Core_0_DTLB_prefetch_requested 0
Core_0_DTLB_prefetch_issued 0
Core_0_DTLB_prefetch_useful 0
Core_0_DTLB_prefetch_useless 0
Core_0_DTLB_prefetch_late 0
Core_0_DTLB_prefetch_accuracy 0
Core_0_DTLB_prefetch_coverage 0
Core_0_DTLB_total_eviction 624413

Core_0_STLB_total_access 814729
Core_0_STLB_total_hit 814729
Core_0_STLB_total_miss 0
Core_0_STLB_total_MPKI 0
Core_0_STLB_total_miss_rate 0
Core_0_STLB_demand_access 814729
Core_0_STLB_demand_hit 814729
Core_0_STLB_demand_miss 0
Core_0_STLB_demand_MPKI 0
Core_0_STLB_demand_miss_rate 0
Core_0_STLB_load_access 814729
Core_0_STLB_load_hit 814729
Core_0_STLB_load_miss 0
Core_0_STLB_load_MPKI 0
Core_0_STLB_load_miss_rate 0
Core_0_STLB_rfo_access 0
Core_0_STLB_rfo_hit 0
Core_0_STLB_rfo_miss 0
Core_0_STLB_rfo_MPKI 0
Core_0_STLB_rfo_miss_rate 0
Core_0_STLB_prefetch_access 0
Core_0_STLB_prefetch_hit 0
Core_0_STLB_prefetch_miss 0
Core_0_STLB_prefetch_MPKI 0
Core_0_STLB_prefetch_miss_rate 0
Core_0_STLB_writeback_access 0
Core_0_STLB_writeback_hit 0
Core_0_STLB_writeback_miss 0
Core_0_STLB_writeback_MPKI 0
Core_0_STLB_writeback_miss_rate 0
Core_0_STLB_prefetch_requested 0
Core_0_STLB_prefetch_issued 0
Core_0_STLB_prefetch_useful 0
Core_0_STLB_prefetch_useless 0
Core_0_STLB_prefetch_late 0
Core_0_STLB_prefetch_accuracy 0
Core_0_STLB_prefetch_coverage 0
Core_0_STLB_total_eviction 79791

Core_0_L1I_total_access 7894548
Core_0_L1I_total_hit 5798417
Core_0_L1I_total_miss 2096131
Core_0_L1I_total_MPKI 41.9226
Core_0_L1I_total_miss_rate 0.265516
Core_0_L1I_demand_access 7894548
Core_0_L1I_demand_hit 5798417
Core_0_L1I_demand_miss 2096131
Core_0_L1I_demand_MPKI 41.9226
Core_0_L1I_demand_miss_rate 0.265516
Core_0_L1I_load_access 7894548
Core_0_L1I_load_hit 5798417
Core_0_L1I_load_miss 2096131
Core_0_L1I_load_MPKI 41.9226
Core_0_L1I_load_miss_rate 0.265516
Core_0_L1I_rfo_access 0
Core_0_L1I_rfo_hit 0
Core_0_L1I_rfo_miss 0
Core_0_L1I_rfo_MPKI 0
Core_0_L1I_rfo_miss_rate 0
Core_0_L1I_prefetch_access 0
Core_0_L1I_prefetch_hit 0
Core_0_L1I_prefetch_miss 0
Core_0_L1I_prefetch_MPKI 0
Core_0_L1I_prefetch_miss_rate 0
Core_0_L1I_writeback_access 0
Core_0_L1I_writeback_hit 0
Core_0_L1I_writeback_miss 0
Core_0_L1I_writeback_MPKI 0
Core_0_L1I_writeback_miss_rate 0
Core_0_L1I_prefetch_requested 0
Core_0_L1I_prefetch_issued 0
Core_0_L1I_prefetch_useful 0
Core_0_L1I_prefetch_useless 0
Core_0_L1I_prefetch_late 0
Core_0_L1I_prefetch_accuracy 0
Core_0_L1I_prefetch_coverage 0
Core_0_L1I_total_eviction 1283096

Core_0_L1D_total_access 11378139
Core_0_L1D_total_hit 10429101
Core_0_L1D_total_miss 949038
Core_0_L1D_total_MPKI 18.9808
Core_0_L1D_total_miss_rate 0.0834089
Core_0_L1D_demand_access 6424031
Core_0_L1D_demand_hit 5698474
Core_0_L1D_demand_miss 725557
Core_0_L1D_demand_MPKI 14.5111
Core_0_L1D_demand_miss_rate 0.112944
Core_0_L1D_load_access 6424031
Core_0_L1D_load_hit 5698474
Core_0_L1D_load_miss 725557
Core_0_L1D_load_MPKI 14.5111
Core_0_L1D_load_miss_rate 0.112944
Core_0_L1D_rfo_access 0
Core_0_L1D_rfo_hit 0
Core_0_L1D_rfo_miss 0
Core_0_L1D_rfo_MPKI 0
Core_0_L1D_rfo_miss_rate 0
Core_0_L1D_prefetch_access 11487
Core_0_L1D_prefetch_hit 10698
Core_0_L1D_prefetch_miss 789
Core_0_L1D_prefetch_MPKI 0.01578
Core_0_L1D_prefetch_miss_rate 0.0686863
Core_0_L1D_writeback_access 4942621
Core_0_L1D_writeback_hit 4719929
Core_0_L1D_writeback_miss 222692
Core_0_L1D_writeback_MPKI 4.45384
Core_0_L1D_writeback_miss_rate 0.0450554
Core_0_L1D_prefetch_requested 14402
Core_0_L1D_prefetch_issued 11487
Core_0_L1D_prefetch_useful 76
Core_0_L1D_prefetch_useless 10
Core_0_L1D_prefetch_late 0
Core_0_L1D_prefetch_accuracy 0.00661617
Core_0_L1D_prefetch_coverage 0.000104736
Core_0_L1D_total_eviction 615251

Core_0_L2C_total_access 2173200
Core_0_L2C_total_hit 1478319
Core_0_L2C_total_miss 694881
Core_0_L2C_total_MPKI 13.8976
Core_0_L2C_total_miss_rate 0.31975
Core_0_L2C_demand_access 1898245
Core_0_L2C_demand_hit 1213744
Core_0_L2C_demand_miss 684501
Core_0_L2C_demand_MPKI 13.69
Core_0_L2C_demand_miss_rate 0.360597
Core_0_L2C_load_access 1817791
Core_0_L2C_load_hit 1172805
Core_0_L2C_load_miss 644986
Core_0_L2C_load_MPKI 12.8997
Core_0_L2C_load_miss_rate 0.354819
Core_0_L2C_rfo_access 80454
Core_0_L2C_rfo_hit 40939
Core_0_L2C_rfo_miss 39515
Core_0_L2C_rfo_MPKI 0.7903
Core_0_L2C_rfo_miss_rate 0.49115
Core_0_L2C_prefetch_access 18810
Core_0_L2C_prefetch_hit 10036
Core_0_L2C_prefetch_miss 8774
Core_0_L2C_prefetch_MPKI 0.17548
Core_0_L2C_prefetch_miss_rate 0.466454
Core_0_L2C_writeback_access 256145
Core_0_L2C_writeback_hit 254539
Core_0_L2C_writeback_miss 1606
Core_0_L2C_writeback_MPKI 0.03212
Core_0_L2C_writeback_miss_rate 0.00626989
Core_0_L2C_prefetch_requested 18173
Core_0_L2C_prefetch_issued 18022
Core_0_L2C_prefetch_useful 5509
Core_0_L2C_prefetch_useless 2748
Core_0_L2C_prefetch_late 30
Core_0_L2C_prefetch_accuracy 0.305682
Core_0_L2C_prefetch_coverage 0.00798394
Core_0_L2C_total_eviction 694508

Core_0_LLC_total_access 820642
Core_0_LLC_total_hit 747249
Core_0_LLC_total_miss 73393
Core_0_LLC_total_MPKI 1.46786
Core_0_LLC_total_miss_rate 0.0894336
Core_0_LLC_demand_access 684468
Core_0_LLC_demand_hit 618853
Core_0_LLC_demand_miss 65615
Core_0_LLC_demand_MPKI 1.3123
Core_0_LLC_demand_miss_rate 0.0958628
Core_0_LLC_load_access 644953
Core_0_LLC_load_hit 590984
Core_0_LLC_load_miss 53969
Core_0_LLC_load_MPKI 1.07938
Core_0_LLC_load_miss_rate 0.083679
Core_0_LLC_rfo_access 39515
Core_0_LLC_rfo_hit 27869
Core_0_LLC_rfo_miss 11646
Core_0_LLC_rfo_MPKI 0.23292
Core_0_LLC_rfo_miss_rate 0.294724
Core_0_LLC_prefetch_access 8433
Core_0_LLC_prefetch_hit 3366
Core_0_LLC_prefetch_miss 5067
Core_0_LLC_prefetch_MPKI 0.10134
Core_0_LLC_prefetch_miss_rate 0.600854
Core_0_LLC_writeback_access 127741
Core_0_LLC_writeback_hit 125030
Core_0_LLC_writeback_miss 2711
Core_0_LLC_writeback_MPKI 0.05422
Core_0_LLC_writeback_miss_rate 0.0212226
Core_0_LLC_prefetch_requested 0
Core_0_LLC_prefetch_issued 0
Core_0_LLC_prefetch_useful 0
Core_0_LLC_prefetch_useless 0
Core_0_LLC_prefetch_late 0
Core_0_LLC_prefetch_accuracy 0
Core_0_LLC_prefetch_coverage 0
Core_0_LLC_total_eviction 72790

[DRAM Statistics]
Channel_0_RQ_row_buffer_hit 3010
Channel_0_RQ_row_buffer_miss 67671
Channel_0_WQ_row_buffer_hit 11058
Channel_0_WQ_row_buffer_miss 41789
Channel_0_WQ_full 0
Channel_0_dbus_congested 386003
DRAM_total_RQ_row_buffer_hit 3010
DRAM_total_RQ_row_buffer_miss 67671
DRAM_total_WQ_row_buffer_hit 11058
DRAM_total_WQ_row_buffer_miss 41789
DRAM_total_WQ_full 0
DRAM_total_dbus_congested 386003
DRAM_avg_congested_cycle 15.873

======STLB miss causes ========
Core_0_STLB_miss_cause_breakdown
Core_0_STLB_cause_Demand_Data_miss 0
Core_0_STLB_cause_Demand_Data_miss_rate 0
Core_0_STLB_cause_Demand_Instruction_miss 0
Core_0_STLB_cause_Demand_Instruction_miss_rate 0
Core_0_STLB_cause_L1D_Prefetch_miss 0
Core_0_STLB_cause_L1D_Prefetch_miss_rate 0
Core_0_STLB_cause_L1I_Prefetch_miss 0
Core_0_STLB_cause_L1I_Prefetch_miss_rate 0
Core_0_STLB_cause_Other_miss 0
Core_0_STLB_cause_Other_miss_rate 0
Core_0_STLB_Demand_miss 0
Core_0_STLB_Demand_miss_rate 0
Core_0_STLB_L1D_Prefetch_miss 0
Core_0_STLB_L1D_Prefetch_miss_rate 0
Core_0_STLB_Other_miss 0
Core_0_STLB_Other_miss_rate 0
BERTI TO_L1: 40825 TO_L2: 35959 TO_L2_BC_MSHR: 0
BERTI AVG_LAT: 26.8348 NUM_TRACK_LATENCY: 860807 NUM_CANT_TRACK_LATENCY: 0
BERTI CROSS_PAGE 10054 NO_CROSS_PAGE: 66730
BERTI FOUND_BERTI: 455828 NO_FOUND_BERTI: 14790636
BERTI AVERAGE_ISSUED: 5.51227
