[VMEM] WARNING: physical memory size is smaller than virtual memory size.

*** ChampSim Multicore Out-of-Order Simulator ***
Warmup Instructions: 20000000
Simulation Instructions: 50000000
Number of CPUs: 1
Page size: 4096
STLB ideal mode: all
STLB ideal fill: on
Core 0: /data0/tzh/champsim_traces/QMM/srv_66_new.xz
VBerti Prefetcher
BERTI HASH ENTANGLING
BERTI IP MASK ffff
Off-chip DRAM Size: 16 GiB Channels: 1 Width: 64-bit Data Rate: 3205 MT/s
[BTB] WARNING: target of return is a lower address than the corresponding call. This is usually a problem with your trace.
[BTB] WARNING: target of return is a lower address than the corresponding call. This is usually a problem with your trace.
[BTB] WARNING: target of return is a lower address than the corresponding call. This is usually a problem with your trace.
[BTB] WARNING: target of return is a lower address than the corresponding call. This is usually a problem with your trace.
[BTB] WARNING: target of return is a lower address than the corresponding call. This is usually a problem with your trace.
[BTB] WARNING: target of return is a lower address than the corresponding call. This is usually a problem with your trace.
[BTB] WARNING: target of return is a lower address than the corresponding call. This is usually a problem with your trace.
[BTB] WARNING: target of return is a lower address than the corresponding call. This is usually a problem with your trace.
[BTB] WARNING: target of return is a lower address than the corresponding call. This is usually a problem with your trace.
[BTB] WARNING: target of return is a lower address than the corresponding call. This is usually a problem with your trace.
Warmup halting CPU 0 at instruction 20000004 cycle 4123018 for remainder of phase
Warmup finished CPU 0 instructions: 20000004 cycles: 4123018 cumulative IPC: 4.851 (Simulation time: 00 hr 01 min 01 sec)
Warmup complete CPU 0 instructions: 20000004 cycles: 4123018 cumulative IPC: 4.851 (Simulation time: 00 hr 01 min 01 sec)
*** Reached end of trace: (0, "/data0/tzh/champsim_traces/QMM/srv_66_new.xz")
*** Reached end of trace: (0, "/data0/tzh/champsim_traces/QMM/srv_66_new.xz")
Simulation finished CPU 0 instructions: 50000003 cycles: 26500423 cumulative IPC: 1.887 (Simulation time: 00 hr 05 min 00 sec)
Simulation complete CPU 0 instructions: 50000003 cycles: 26500423 cumulative IPC: 1.887 (Simulation time: 00 hr 05 min 00 sec)

ChampSim completed all CPUs

=== Simulation ===
CPU 0 runs /data0/tzh/champsim_traces/QMM/srv_66_new.xz

Region of Interest Statistics

CPU 0 cumulative IPC: 1.887 instructions: 50000003 cycles: 26500423
CPU 0 Branch Prediction Accuracy: 98.4% MPKI: 2.872 Average ROB Occupancy at Mispredict: 126.4
Branch type MPKI
BRANCH_DIRECT_JUMP: 0.1642
BRANCH_INDIRECT: 0.3035
BRANCH_CONDITIONAL: 1.607
BRANCH_DIRECT_CALL: 0.2994
BRANCH_INDIRECT_CALL: 0.216
BRANCH_RETURN: 0.2823

cpu0->cpu0_STLB TOTAL        ACCESS:     812049 HIT:     812049 MISS:          0 MSHR_MERGE:          0
cpu0->cpu0_STLB LOAD         ACCESS:     812049 HIT:     812049 MISS:          0 MSHR_MERGE:          0
cpu0->cpu0_STLB RFO          ACCESS:          0 HIT:          0 MISS:          0 MSHR_MERGE:          0
cpu0->cpu0_STLB PREFETCH     ACCESS:          0 HIT:          0 MISS:          0 MSHR_MERGE:          0
cpu0->cpu0_STLB WRITE        ACCESS:          0 HIT:          0 MISS:          0 MSHR_MERGE:          0
cpu0->cpu0_STLB TRANSLATION  ACCESS:          0 HIT:          0 MISS:          0 MSHR_MERGE:          0
cpu0->cpu0_STLB PREFETCH REQUESTED:          0 ISSUED:          0 USEFUL:          0 USELESS:          0 LATE:          0
cpu0->cpu0_STLB AVERAGE MISS LATENCY: - cycles
cpu0->cpu0_L2C TOTAL        ACCESS:    2137802 HIT:    1437904 MISS:     699898 MSHR_MERGE:        597
cpu0->cpu0_L2C LOAD         ACCESS:    1785612 HIT:    1135266 MISS:     650346 MSHR_MERGE:         90
cpu0->cpu0_L2C RFO          ACCESS:      80303 HIT:      40586 MISS:      39717 MSHR_MERGE:          4
cpu0->cpu0_L2C PREFETCH     ACCESS:      17984 HIT:      10001 MISS:       7983 MSHR_MERGE:        503
cpu0->cpu0_L2C WRITE        ACCESS:     253903 HIT:     252051 MISS:       1852 MSHR_MERGE:          0
cpu0->cpu0_L2C TRANSLATION  ACCESS:          0 HIT:          0 MISS:          0 MSHR_MERGE:          0
cpu0->cpu0_L2C PREFETCH REQUESTED:      17360 ISSUED:      17187 USEFUL:       4820 USELESS:       2465 LATE:         92
cpu0->cpu0_L2C AVERAGE MISS LATENCY: 33.93 cycles
cpu0->cpu0_L1I TOTAL        ACCESS:    7713753 HIT:    5675660 MISS:    2038093 MSHR_MERGE:     779763
cpu0->cpu0_L1I LOAD         ACCESS:    7713753 HIT:    5675660 MISS:    2038093 MSHR_MERGE:     779763
cpu0->cpu0_L1I RFO          ACCESS:          0 HIT:          0 MISS:          0 MSHR_MERGE:          0
cpu0->cpu0_L1I PREFETCH     ACCESS:          0 HIT:          0 MISS:          0 MSHR_MERGE:          0
cpu0->cpu0_L1I WRITE        ACCESS:          0 HIT:          0 MISS:          0 MSHR_MERGE:          0
cpu0->cpu0_L1I TRANSLATION  ACCESS:          0 HIT:          0 MISS:          0 MSHR_MERGE:          0
cpu0->cpu0_L1I PREFETCH REQUESTED:          0 ISSUED:          0 USEFUL:          0 USELESS:          0 LATE:          0
cpu0->cpu0_L1I AVERAGE MISS LATENCY: 13.31 cycles
cpu0->cpu0_L1D TOTAL        ACCESS:   11521119 HIT:   10583558 MISS:     937561 MSHR_MERGE:     329161
cpu0->cpu0_L1D LOAD         ACCESS:    6532861 HIT:    5820037 MISS:     712824 MSHR_MERGE:     185534
cpu0->cpu0_L1D RFO          ACCESS:          0 HIT:          0 MISS:          0 MSHR_MERGE:          0
cpu0->cpu0_L1D PREFETCH     ACCESS:       6994 HIT:       6178 MISS:        816 MSHR_MERGE:         19
cpu0->cpu0_L1D WRITE        ACCESS:    4981264 HIT:    4757343 MISS:     223921 MSHR_MERGE:     143608
cpu0->cpu0_L1D TRANSLATION  ACCESS:          0 HIT:          0 MISS:          0 MSHR_MERGE:          0
cpu0->cpu0_L1D PREFETCH REQUESTED:       8871 ISSUED:       6986 USEFUL:         45 USELESS:          9 LATE:          2
cpu0->cpu0_L1D AVERAGE MISS LATENCY: 35.5 cycles
cpu0->cpu0_ITLB TOTAL        ACCESS:    6585054 HIT:    6126296 MISS:     458758 MSHR_MERGE:     269527
cpu0->cpu0_ITLB LOAD         ACCESS:    6585054 HIT:    6126296 MISS:     458758 MSHR_MERGE:     269527
cpu0->cpu0_ITLB RFO          ACCESS:          0 HIT:          0 MISS:          0 MSHR_MERGE:          0
cpu0->cpu0_ITLB PREFETCH     ACCESS:          0 HIT:          0 MISS:          0 MSHR_MERGE:          0
cpu0->cpu0_ITLB WRITE        ACCESS:          0 HIT:          0 MISS:          0 MSHR_MERGE:          0
cpu0->cpu0_ITLB TRANSLATION  ACCESS:          0 HIT:          0 MISS:          0 MSHR_MERGE:          0
cpu0->cpu0_ITLB PREFETCH REQUESTED:          0 ISSUED:          0 USEFUL:          0 USELESS:          0 LATE:          0
cpu0->cpu0_ITLB AVERAGE MISS LATENCY: 5.033 cycles
cpu0->cpu0_DTLB TOTAL        ACCESS:   10839808 HIT:   10013447 MISS:     826361 MSHR_MERGE:     203542
cpu0->cpu0_DTLB LOAD         ACCESS:   10839808 HIT:   10013447 MISS:     826361 MSHR_MERGE:     203542
cpu0->cpu0_DTLB RFO          ACCESS:          0 HIT:          0 MISS:          0 MSHR_MERGE:          0
cpu0->cpu0_DTLB PREFETCH     ACCESS:          0 HIT:          0 MISS:          0 MSHR_MERGE:          0
cpu0->cpu0_DTLB WRITE        ACCESS:          0 HIT:          0 MISS:          0 MSHR_MERGE:          0
cpu0->cpu0_DTLB TRANSLATION  ACCESS:          0 HIT:          0 MISS:          0 MSHR_MERGE:          0
cpu0->cpu0_DTLB PREFETCH REQUESTED:          0 ISSUED:          0 USEFUL:          0 USELESS:          0 LATE:          0
cpu0->cpu0_DTLB AVERAGE MISS LATENCY: 5.006 cycles
cpu0->LLC TOTAL        ACCESS:     826322 HIT:     748654 MISS:      77668 MSHR_MERGE:          0
cpu0->LLC LOAD         ACCESS:     650253 HIT:     591802 MISS:      58451 MSHR_MERGE:          0
cpu0->LLC RFO          ACCESS:      39713 HIT:      28283 MISS:      11430 MSHR_MERGE:          0
cpu0->LLC PREFETCH     ACCESS:       7480 HIT:       2452 MISS:       5028 MSHR_MERGE:          0
cpu0->LLC WRITE        ACCESS:     128876 HIT:     126117 MISS:       2759 MSHR_MERGE:          0
cpu0->LLC TRANSLATION  ACCESS:          0 HIT:          0 MISS:          0 MSHR_MERGE:          0
cpu0->LLC PREFETCH REQUESTED:          0 ISSUED:          0 USEFUL:          0 USELESS:          0 LATE:          0
cpu0->LLC AVERAGE MISS LATENCY: 179.8 cycles

DRAM Statistics

Channel 0 RQ ROW_BUFFER_HIT:       3162
  ROW_BUFFER_MISS:      71745
  AVG DBUS CONGESTED CYCLE: 16.17
Channel 0 WQ ROW_BUFFER_HIT:      11672
  ROW_BUFFER_MISS:      42625
  FULL:          0
Channel 0 REFRESHES ISSUED:       2208

[ROI Statistics]
[System Configuration]
num_cpus 1
cpu_freq 4000
fetch_width 6
decode_width 6
dispatch_width 6
execute_width 6
lq_width 2
sq_width 2
retire_width 6
scheduler_size 128
branch_mispredict_penalty 15
rob_size 352
lq_size 128
sq_size 72
ifetch_buffer_size 64
decode_buffer_size 32
dispatch_buffer_size 32
register_file_size 288
decode_latency 1
dispatch_latency 1
schedule_latency 1
execute_latency 1
page_size 4096
block_size 64
core_0_itlb_set 16
core_0_itlb_way 4
core_0_itlb_rq_size 16
core_0_itlb_wq_size 16
core_0_itlb_pq_size 0
core_0_itlb_mshr_size 8
core_0_itlb_hit_latency 1
core_0_itlb_fill_latency 1
core_0_itlb_max_tag_check 2
core_0_itlb_max_fill 2
core_0_dtlb_set 16
core_0_dtlb_way 4
core_0_dtlb_rq_size 16
core_0_dtlb_wq_size 16
core_0_dtlb_pq_size 0
core_0_dtlb_mshr_size 8
core_0_dtlb_hit_latency 1
core_0_dtlb_fill_latency 1
core_0_dtlb_max_tag_check 2
core_0_dtlb_max_fill 2
core_0_stlb_set 128
core_0_stlb_way 12
core_0_stlb_rq_size 32
core_0_stlb_wq_size 32
core_0_stlb_pq_size 0
core_0_stlb_mshr_size 16
core_0_stlb_hit_latency 4
core_0_stlb_fill_latency 4
core_0_stlb_max_tag_check 1
core_0_stlb_max_fill 1
core_0_l1i_set 64
core_0_l1i_way 8
core_0_l1i_rq_size 64
core_0_l1i_wq_size 64
core_0_l1i_pq_size 32
core_0_l1i_mshr_size 8
core_0_l1i_hit_latency 2
core_0_l1i_fill_latency 2
core_0_l1i_max_tag_check 2
core_0_l1i_max_fill 2
core_0_l1d_set 64
core_0_l1d_way 12
core_0_l1d_rq_size 64
core_0_l1d_wq_size 64
core_0_l1d_pq_size 8
core_0_l1d_mshr_size 16
core_0_l1d_hit_latency 2
core_0_l1d_fill_latency 3
core_0_l1d_max_tag_check 2
core_0_l1d_max_fill 2
core_0_l2c_set 1024
core_0_l2c_way 8
core_0_l2c_rq_size 32
core_0_l2c_wq_size 32
core_0_l2c_pq_size 16
core_0_l2c_mshr_size 32
core_0_l2c_hit_latency 5
core_0_l2c_fill_latency 5
core_0_l2c_max_tag_check 1
core_0_l2c_max_fill 1
llc_set 2048
llc_way 16
llc_rq_size 32
llc_wq_size 32
llc_pq_size 32
llc_mshr_size 64
llc_hit_latency 10
llc_fill_latency 10
llc_max_tag_check 1
llc_max_fill 1
dram_channels 1
dram_ranks 1
dram_bankgroups 8
dram_banks 4
dram_rows 65536
dram_columns 1024
dram_channel_width 8
dram_rq_size 64
dram_wq_size 64
dram_size 17179869184
core_0_itlb_prefetcher no
core_0_dtlb_prefetcher no
core_0_stlb_prefetcher no
core_0_l1i_prefetcher next_line
core_0_l1d_prefetcher vberti
core_0_l2c_prefetcher ip_stride
llc_prefetcher no
llc_replacement drrip

Core_0_instructions 50000003
Core_0_cycles 26500423
Core_0_IPC 1.88676
Core_0_branch_prediction_accuracy 98.3955
Core_0_branch_MPKI 2.87248
Core_0_average_ROB_occupancy_at_mispredict 126.423

Core_0_ITLB_total_access 6585054
Core_0_ITLB_total_hit 6126296
Core_0_ITLB_total_miss 458758
Core_0_ITLB_total_MPKI 9.17516
Core_0_ITLB_total_miss_rate 0.0696666
Core_0_ITLB_demand_access 6585054
Core_0_ITLB_demand_hit 6126296
Core_0_ITLB_demand_miss 458758
Core_0_ITLB_demand_MPKI 9.17516
Core_0_ITLB_demand_miss_rate 0.0696666
Core_0_ITLB_load_access 6585054
Core_0_ITLB_load_hit 6126296
Core_0_ITLB_load_miss 458758
Core_0_ITLB_load_MPKI 9.17516
Core_0_ITLB_load_miss_rate 0.0696666
Core_0_ITLB_rfo_access 0
Core_0_ITLB_rfo_hit 0
Core_0_ITLB_rfo_miss 0
Core_0_ITLB_rfo_MPKI 0
Core_0_ITLB_rfo_miss_rate 0
Core_0_ITLB_prefetch_access 0
Core_0_ITLB_prefetch_hit 0
Core_0_ITLB_prefetch_miss 0
Core_0_ITLB_prefetch_MPKI 0
Core_0_ITLB_prefetch_miss_rate 0
Core_0_ITLB_writeback_access 0
Core_0_ITLB_writeback_hit 0
Core_0_ITLB_writeback_miss 0
Core_0_ITLB_writeback_MPKI 0
Core_0_ITLB_writeback_miss_rate 0
Core_0_ITLB_prefetch_requested 0
Core_0_ITLB_prefetch_issued 0
Core_0_ITLB_prefetch_useful 0
Core_0_ITLB_prefetch_useless 0
Core_0_ITLB_prefetch_late 0
Core_0_ITLB_prefetch_accuracy 0
Core_0_ITLB_prefetch_coverage 0
Core_0_ITLB_total_eviction 189230

Core_0_DTLB_total_access 10839808
Core_0_DTLB_total_hit 10013447
Core_0_DTLB_total_miss 826361
Core_0_DTLB_total_MPKI 16.5272
Core_0_DTLB_total_miss_rate 0.0762339
Core_0_DTLB_demand_access 10839808
Core_0_DTLB_demand_hit 10013447
Core_0_DTLB_demand_miss 826361
Core_0_DTLB_demand_MPKI 16.5272
Core_0_DTLB_demand_miss_rate 0.0762339
Core_0_DTLB_load_access 10839808
Core_0_DTLB_load_hit 10013447
Core_0_DTLB_load_miss 826361
Core_0_DTLB_load_MPKI 16.5272
Core_0_DTLB_load_miss_rate 0.0762339
Core_0_DTLB_rfo_access 0
Core_0_DTLB_rfo_hit 0
Core_0_DTLB_rfo_miss 0
Core_0_DTLB_rfo_MPKI 0
Core_0_DTLB_rfo_miss_rate 0
Core_0_DTLB_prefetch_access 0
Core_0_DTLB_prefetch_hit 0
Core_0_DTLB_prefetch_miss 0
Core_0_DTLB_prefetch_MPKI 0
Core_0_DTLB_prefetch_miss_rate 0
Core_0_DTLB_writeback_access 0
Core_0_DTLB_writeback_hit 0
Core_0_DTLB_writeback_miss 0
Core_0_DTLB_writeback_MPKI 0
Core_0_DTLB_writeback_miss_rate 0
Core_0_DTLB_prefetch_requested 0
Core_0_DTLB_prefetch_issued 0
Core_0_DTLB_prefetch_useful 0
Core_0_DTLB_prefetch_useless 0
Core_0_DTLB_prefetch_late 0
Core_0_DTLB_prefetch_accuracy 0
Core_0_DTLB_prefetch_coverage 0
Core_0_DTLB_total_eviction 622819

Core_0_STLB_total_access 812049
Core_0_STLB_total_hit 812049
Core_0_STLB_total_miss 0
Core_0_STLB_total_MPKI 0
Core_0_STLB_total_miss_rate 0
Core_0_STLB_demand_access 812049
Core_0_STLB_demand_hit 812049
Core_0_STLB_demand_miss 0
Core_0_STLB_demand_MPKI 0
Core_0_STLB_demand_miss_rate 0
Core_0_STLB_load_access 812049
Core_0_STLB_load_hit 812049
Core_0_STLB_load_miss 0
Core_0_STLB_load_MPKI 0
Core_0_STLB_load_miss_rate 0
Core_0_STLB_rfo_access 0
Core_0_STLB_rfo_hit 0
Core_0_STLB_rfo_miss 0
Core_0_STLB_rfo_MPKI 0
Core_0_STLB_rfo_miss_rate 0
Core_0_STLB_prefetch_access 0
Core_0_STLB_prefetch_hit 0
Core_0_STLB_prefetch_miss 0
Core_0_STLB_prefetch_MPKI 0
Core_0_STLB_prefetch_miss_rate 0
Core_0_STLB_writeback_access 0
Core_0_STLB_writeback_hit 0
Core_0_STLB_writeback_miss 0
Core_0_STLB_writeback_MPKI 0
Core_0_STLB_writeback_miss_rate 0
Core_0_STLB_prefetch_requested 0
Core_0_STLB_prefetch_issued 0
Core_0_STLB_prefetch_useful 0
Core_0_STLB_prefetch_useless 0
Core_0_STLB_prefetch_late 0
Core_0_STLB_prefetch_accuracy 0
Core_0_STLB_prefetch_coverage 0
Core_0_STLB_total_eviction 86306

Core_0_L1I_total_access 7713753
Core_0_L1I_total_hit 5675660
Core_0_L1I_total_miss 2038093
Core_0_L1I_total_MPKI 40.7619
Core_0_L1I_total_miss_rate 0.264215
Core_0_L1I_demand_access 7713753
Core_0_L1I_demand_hit 5675660
Core_0_L1I_demand_miss 2038093
Core_0_L1I_demand_MPKI 40.7619
Core_0_L1I_demand_miss_rate 0.264215
Core_0_L1I_load_access 7713753
Core_0_L1I_load_hit 5675660
Core_0_L1I_load_miss 2038093
Core_0_L1I_load_MPKI 40.7619
Core_0_L1I_load_miss_rate 0.264215
Core_0_L1I_rfo_access 0
Core_0_L1I_rfo_hit 0
Core_0_L1I_rfo_miss 0
Core_0_L1I_rfo_MPKI 0
Core_0_L1I_rfo_miss_rate 0
Core_0_L1I_prefetch_access 0
Core_0_L1I_prefetch_hit 0
Core_0_L1I_prefetch_miss 0
Core_0_L1I_prefetch_MPKI 0
Core_0_L1I_prefetch_miss_rate 0
Core_0_L1I_writeback_access 0
Core_0_L1I_writeback_hit 0
Core_0_L1I_writeback_miss 0
Core_0_L1I_writeback_MPKI 0
Core_0_L1I_writeback_miss_rate 0
Core_0_L1I_prefetch_requested 0
Core_0_L1I_prefetch_issued 0
Core_0_L1I_prefetch_useful 0
Core_0_L1I_prefetch_useless 0
Core_0_L1I_prefetch_late 0
Core_0_L1I_prefetch_accuracy 0
Core_0_L1I_prefetch_coverage 0
Core_0_L1I_total_eviction 1258325

Core_0_L1D_total_access 11521119
Core_0_L1D_total_hit 10583558
Core_0_L1D_total_miss 937561
Core_0_L1D_total_MPKI 18.7512
Core_0_L1D_total_miss_rate 0.0813776
Core_0_L1D_demand_access 6532861
Core_0_L1D_demand_hit 5820037
Core_0_L1D_demand_miss 712824
Core_0_L1D_demand_MPKI 14.2565
Core_0_L1D_demand_miss_rate 0.109114
Core_0_L1D_load_access 6532861
Core_0_L1D_load_hit 5820037
Core_0_L1D_load_miss 712824
Core_0_L1D_load_MPKI 14.2565
Core_0_L1D_load_miss_rate 0.109114
Core_0_L1D_rfo_access 0
Core_0_L1D_rfo_hit 0
Core_0_L1D_rfo_miss 0
Core_0_L1D_rfo_MPKI 0
Core_0_L1D_rfo_miss_rate 0
Core_0_L1D_prefetch_access 6994
Core_0_L1D_prefetch_hit 6178
Core_0_L1D_prefetch_miss 816
Core_0_L1D_prefetch_MPKI 0.01632
Core_0_L1D_prefetch_miss_rate 0.116671
Core_0_L1D_writeback_access 4981264
Core_0_L1D_writeback_hit 4757343
Core_0_L1D_writeback_miss 223921
Core_0_L1D_writeback_MPKI 4.47842
Core_0_L1D_writeback_miss_rate 0.0449526
Core_0_L1D_prefetch_requested 8871
Core_0_L1D_prefetch_issued 6986
Core_0_L1D_prefetch_useful 45
Core_0_L1D_prefetch_useless 9
Core_0_L1D_prefetch_late 2
Core_0_L1D_prefetch_accuracy 0.00644145
Core_0_L1D_prefetch_coverage 6.31252e-05
Core_0_L1D_total_eviction 607657

Core_0_L2C_total_access 2137802
Core_0_L2C_total_hit 1437904
Core_0_L2C_total_miss 699898
Core_0_L2C_total_MPKI 13.998
Core_0_L2C_total_miss_rate 0.327391
Core_0_L2C_demand_access 1865915
Core_0_L2C_demand_hit 1175852
Core_0_L2C_demand_miss 690063
Core_0_L2C_demand_MPKI 13.8013
Core_0_L2C_demand_miss_rate 0.369826
Core_0_L2C_load_access 1785612
Core_0_L2C_load_hit 1135266
Core_0_L2C_load_miss 650346
Core_0_L2C_load_MPKI 13.0069
Core_0_L2C_load_miss_rate 0.364215
Core_0_L2C_rfo_access 80303
Core_0_L2C_rfo_hit 40586
Core_0_L2C_rfo_miss 39717
Core_0_L2C_rfo_MPKI 0.79434
Core_0_L2C_rfo_miss_rate 0.494589
Core_0_L2C_prefetch_access 17984
Core_0_L2C_prefetch_hit 10001
Core_0_L2C_prefetch_miss 7983
Core_0_L2C_prefetch_MPKI 0.15966
Core_0_L2C_prefetch_miss_rate 0.443895
Core_0_L2C_writeback_access 253903
Core_0_L2C_writeback_hit 252051
Core_0_L2C_writeback_miss 1852
Core_0_L2C_writeback_MPKI 0.03704
Core_0_L2C_writeback_miss_rate 0.00729412
Core_0_L2C_prefetch_requested 17360
Core_0_L2C_prefetch_issued 17187
Core_0_L2C_prefetch_useful 4820
Core_0_L2C_prefetch_useless 2465
Core_0_L2C_prefetch_late 92
Core_0_L2C_prefetch_accuracy 0.280445
Core_0_L2C_prefetch_coverage 0.00693642
Core_0_L2C_total_eviction 699298

Core_0_LLC_total_access 826322
Core_0_LLC_total_hit 748654
Core_0_LLC_total_miss 77668
Core_0_LLC_total_MPKI 1.55336
Core_0_LLC_total_miss_rate 0.0939924
Core_0_LLC_demand_access 689966
Core_0_LLC_demand_hit 620085
Core_0_LLC_demand_miss 69881
Core_0_LLC_demand_MPKI 1.39762
Core_0_LLC_demand_miss_rate 0.101282
Core_0_LLC_load_access 650253
Core_0_LLC_load_hit 591802
Core_0_LLC_load_miss 58451
Core_0_LLC_load_MPKI 1.16902
Core_0_LLC_load_miss_rate 0.0898896
Core_0_LLC_rfo_access 39713
Core_0_LLC_rfo_hit 28283
Core_0_LLC_rfo_miss 11430
Core_0_LLC_rfo_MPKI 0.2286
Core_0_LLC_rfo_miss_rate 0.287815
Core_0_LLC_prefetch_access 7480
Core_0_LLC_prefetch_hit 2452
Core_0_LLC_prefetch_miss 5028
Core_0_LLC_prefetch_MPKI 0.10056
Core_0_LLC_prefetch_miss_rate 0.672193
Core_0_LLC_writeback_access 128876
Core_0_LLC_writeback_hit 126117
Core_0_LLC_writeback_miss 2759
Core_0_LLC_writeback_MPKI 0.05518
Core_0_LLC_writeback_miss_rate 0.0214082
Core_0_LLC_prefetch_requested 0
Core_0_LLC_prefetch_issued 0
Core_0_LLC_prefetch_useful 0
Core_0_LLC_prefetch_useless 0
Core_0_LLC_prefetch_late 0
Core_0_LLC_prefetch_accuracy 0
Core_0_LLC_prefetch_coverage 0
Core_0_LLC_total_eviction 77007

[DRAM Statistics]
Channel_0_RQ_row_buffer_hit 3162
Channel_0_RQ_row_buffer_miss 71745
Channel_0_WQ_row_buffer_hit 11672
Channel_0_WQ_row_buffer_miss 42625
Channel_0_WQ_full 0
Channel_0_dbus_congested 411827
DRAM_total_RQ_row_buffer_hit 3162
DRAM_total_RQ_row_buffer_miss 71745
DRAM_total_WQ_row_buffer_hit 11672
DRAM_total_WQ_row_buffer_miss 42625
DRAM_total_WQ_full 0
DRAM_total_dbus_congested 411827
DRAM_avg_congested_cycle 16.1668

======STLB miss causes ========
Core_0_STLB_miss_cause_breakdown
Core_0_STLB_cause_Demand_Data_miss 0
Core_0_STLB_cause_Demand_Data_miss_rate 0
Core_0_STLB_cause_Demand_Instruction_miss 0
Core_0_STLB_cause_Demand_Instruction_miss_rate 0
Core_0_STLB_cause_L1D_Prefetch_miss 0
Core_0_STLB_cause_L1D_Prefetch_miss_rate 0
Core_0_STLB_cause_L1I_Prefetch_miss 0
Core_0_STLB_cause_L1I_Prefetch_miss_rate 0
Core_0_STLB_cause_Other_miss 0
Core_0_STLB_cause_Other_miss_rate 0
Core_0_STLB_Demand_miss 0
Core_0_STLB_Demand_miss_rate 0
Core_0_STLB_L1D_Prefetch_miss 0
Core_0_STLB_L1D_Prefetch_miss_rate 0
Core_0_STLB_Other_miss 0
Core_0_STLB_Other_miss_rate 0
BERTI TO_L1: 34679 TO_L2: 33316 TO_L2_BC_MSHR: 898
BERTI AVG_LAT: 27.1666 NUM_TRACK_LATENCY: 849159 NUM_CANT_TRACK_LATENCY: 0
BERTI CROSS_PAGE 9008 NO_CROSS_PAGE: 58987
BERTI FOUND_BERTI: 444339 NO_FOUND_BERTI: 14997855
BERTI AVERAGE_ISSUED: 4.24758
