[VMEM] WARNING: physical memory size is smaller than virtual memory size.

*** ChampSim Multicore Out-of-Order Simulator ***
Warmup Instructions: 20000000
Simulation Instructions: 50000000
Number of CPUs: 1
Page size: 4096
STLB ideal mode: all
STLB ideal fill: on
Core 0: /data0/tzh/champsim_traces/QMM/srv_67_new.xz
VBerti Prefetcher
BERTI HASH ENTANGLING
BERTI IP MASK ffff
Off-chip DRAM Size: 16 GiB Channels: 1 Width: 64-bit Data Rate: 3205 MT/s
[BTB] WARNING: target of return is a lower address than the corresponding call. This is usually a problem with your trace.
[BTB] WARNING: target of return is a lower address than the corresponding call. This is usually a problem with your trace.
[BTB] WARNING: target of return is a lower address than the corresponding call. This is usually a problem with your trace.
[BTB] WARNING: target of return is a lower address than the corresponding call. This is usually a problem with your trace.
[BTB] WARNING: target of return is a lower address than the corresponding call. This is usually a problem with your trace.
[BTB] WARNING: target of return is a lower address than the corresponding call. This is usually a problem with your trace.
[BTB] WARNING: target of return is a lower address than the corresponding call. This is usually a problem with your trace.
[BTB] WARNING: target of return is a lower address than the corresponding call. This is usually a problem with your trace.
[BTB] WARNING: target of return is a lower address than the corresponding call. This is usually a problem with your trace.
[BTB] WARNING: target of return is a lower address than the corresponding call. This is usually a problem with your trace.
Warmup halting CPU 0 at instruction 20000004 cycle 4102496 for remainder of phase
Warmup finished CPU 0 instructions: 20000004 cycles: 4102496 cumulative IPC: 4.875 (Simulation time: 00 hr 01 min 01 sec)
Warmup complete CPU 0 instructions: 20000004 cycles: 4102496 cumulative IPC: 4.875 (Simulation time: 00 hr 01 min 01 sec)
*** Reached end of trace: (0, "/data0/tzh/champsim_traces/QMM/srv_67_new.xz")
*** Reached end of trace: (0, "/data0/tzh/champsim_traces/QMM/srv_67_new.xz")
Simulation finished CPU 0 instructions: 50000001 cycles: 25643495 cumulative IPC: 1.95 (Simulation time: 00 hr 05 min 01 sec)
Simulation complete CPU 0 instructions: 50000001 cycles: 25643495 cumulative IPC: 1.95 (Simulation time: 00 hr 05 min 01 sec)

ChampSim completed all CPUs

=== Simulation ===
CPU 0 runs /data0/tzh/champsim_traces/QMM/srv_67_new.xz

Region of Interest Statistics

CPU 0 cumulative IPC: 1.95 instructions: 50000001 cycles: 25643495
CPU 0 Branch Prediction Accuracy: 98.62% MPKI: 2.47 Average ROB Occupancy at Mispredict: 137.8
Branch type MPKI
BRANCH_DIRECT_JUMP: 0.1459
BRANCH_INDIRECT: 0.2109
BRANCH_CONDITIONAL: 1.475
BRANCH_DIRECT_CALL: 0.2678
BRANCH_INDIRECT_CALL: 0.1081
BRANCH_RETURN: 0.2629

cpu0->cpu0_STLB TOTAL        ACCESS:     819117 HIT:     819117 MISS:          0 MSHR_MERGE:          0
cpu0->cpu0_STLB LOAD         ACCESS:     819117 HIT:     819117 MISS:          0 MSHR_MERGE:          0
cpu0->cpu0_STLB RFO          ACCESS:          0 HIT:          0 MISS:          0 MSHR_MERGE:          0
cpu0->cpu0_STLB PREFETCH     ACCESS:          0 HIT:          0 MISS:          0 MSHR_MERGE:          0
cpu0->cpu0_STLB WRITE        ACCESS:          0 HIT:          0 MISS:          0 MSHR_MERGE:          0
cpu0->cpu0_STLB TRANSLATION  ACCESS:          0 HIT:          0 MISS:          0 MSHR_MERGE:          0
cpu0->cpu0_STLB PREFETCH REQUESTED:          0 ISSUED:          0 USEFUL:          0 USELESS:          0 LATE:          0
cpu0->cpu0_STLB AVERAGE MISS LATENCY: - cycles
cpu0->cpu0_L2C TOTAL        ACCESS:    2133025 HIT:    1453533 MISS:     679492 MSHR_MERGE:        394
cpu0->cpu0_L2C LOAD         ACCESS:    1783794 HIT:    1158709 MISS:     625085 MSHR_MERGE:         39
cpu0->cpu0_L2C RFO          ACCESS:      79694 HIT:      37585 MISS:      42109 MSHR_MERGE:          0
cpu0->cpu0_L2C PREFETCH     ACCESS:      17435 HIT:       8795 MISS:       8640 MSHR_MERGE:        355
cpu0->cpu0_L2C WRITE        ACCESS:     252102 HIT:     248444 MISS:       3658 MSHR_MERGE:          0
cpu0->cpu0_L2C TRANSLATION  ACCESS:          0 HIT:          0 MISS:          0 MSHR_MERGE:          0
cpu0->cpu0_L2C PREFETCH REQUESTED:      16911 ISSUED:      16888 USEFUL:       5104 USELESS:       3139 LATE:         39
cpu0->cpu0_L2C AVERAGE MISS LATENCY: 34.28 cycles
cpu0->cpu0_L1I TOTAL        ACCESS:    7859648 HIT:    5820370 MISS:    2039278 MSHR_MERGE:     780584
cpu0->cpu0_L1I LOAD         ACCESS:    7859648 HIT:    5820370 MISS:    2039278 MSHR_MERGE:     780584
cpu0->cpu0_L1I RFO          ACCESS:          0 HIT:          0 MISS:          0 MSHR_MERGE:          0
cpu0->cpu0_L1I PREFETCH     ACCESS:          0 HIT:          0 MISS:          0 MSHR_MERGE:          0
cpu0->cpu0_L1I WRITE        ACCESS:          0 HIT:          0 MISS:          0 MSHR_MERGE:          0
cpu0->cpu0_L1I TRANSLATION  ACCESS:          0 HIT:          0 MISS:          0 MSHR_MERGE:          0
cpu0->cpu0_L1I PREFETCH REQUESTED:          0 ISSUED:          0 USEFUL:          0 USELESS:          0 LATE:          0
cpu0->cpu0_L1I AVERAGE MISS LATENCY: 12.96 cycles
cpu0->cpu0_L1D TOTAL        ACCESS:   11408537 HIT:   10473960 MISS:     934577 MSHR_MERGE:     329216
cpu0->cpu0_L1D LOAD         ACCESS:    6411802 HIT:    5701929 MISS:     709873 MSHR_MERGE:     184766
cpu0->cpu0_L1D RFO          ACCESS:          0 HIT:          0 MISS:          0 MSHR_MERGE:          0
cpu0->cpu0_L1D PREFETCH     ACCESS:      11977 HIT:      11427 MISS:        550 MSHR_MERGE:          0
cpu0->cpu0_L1D WRITE        ACCESS:    4984758 HIT:    4760604 MISS:     224154 MSHR_MERGE:     144450
cpu0->cpu0_L1D TRANSLATION  ACCESS:          0 HIT:          0 MISS:          0 MSHR_MERGE:          0
cpu0->cpu0_L1D PREFETCH REQUESTED:      13410 ISSUED:      11977 USEFUL:         31 USELESS:          1 LATE:          0
cpu0->cpu0_L1D AVERAGE MISS LATENCY: 35.49 cycles
cpu0->cpu0_ITLB TOTAL        ACCESS:    6690535 HIT:    6231884 MISS:     458651 MSHR_MERGE:     269459
cpu0->cpu0_ITLB LOAD         ACCESS:    6690535 HIT:    6231884 MISS:     458651 MSHR_MERGE:     269459
cpu0->cpu0_ITLB RFO          ACCESS:          0 HIT:          0 MISS:          0 MSHR_MERGE:          0
cpu0->cpu0_ITLB PREFETCH     ACCESS:          0 HIT:          0 MISS:          0 MSHR_MERGE:          0
cpu0->cpu0_ITLB WRITE        ACCESS:          0 HIT:          0 MISS:          0 MSHR_MERGE:          0
cpu0->cpu0_ITLB TRANSLATION  ACCESS:          0 HIT:          0 MISS:          0 MSHR_MERGE:          0
cpu0->cpu0_ITLB PREFETCH REQUESTED:          0 ISSUED:          0 USEFUL:          0 USELESS:          0 LATE:          0
cpu0->cpu0_ITLB AVERAGE MISS LATENCY: 5.032 cycles
cpu0->cpu0_DTLB TOTAL        ACCESS:   10725020 HIT:    9887684 MISS:     837336 MSHR_MERGE:     207411
cpu0->cpu0_DTLB LOAD         ACCESS:   10725020 HIT:    9887684 MISS:     837336 MSHR_MERGE:     207411
cpu0->cpu0_DTLB RFO          ACCESS:          0 HIT:          0 MISS:          0 MSHR_MERGE:          0
cpu0->cpu0_DTLB PREFETCH     ACCESS:          0 HIT:          0 MISS:          0 MSHR_MERGE:          0
cpu0->cpu0_DTLB WRITE        ACCESS:          0 HIT:          0 MISS:          0 MSHR_MERGE:          0
cpu0->cpu0_DTLB TRANSLATION  ACCESS:          0 HIT:          0 MISS:          0 MSHR_MERGE:          0
cpu0->cpu0_DTLB PREFETCH REQUESTED:          0 ISSUED:          0 USEFUL:          0 USELESS:          0 LATE:          0
cpu0->cpu0_DTLB AVERAGE MISS LATENCY: 5.007 cycles
cpu0->LLC TOTAL        ACCESS:     810449 HIT:     733937 MISS:      76512 MSHR_MERGE:          0
cpu0->LLC LOAD         ACCESS:     625044 HIT:     567211 MISS:      57833 MSHR_MERGE:          0
cpu0->LLC RFO          ACCESS:      42109 HIT:      30717 MISS:      11392 MSHR_MERGE:          0
cpu0->LLC PREFETCH     ACCESS:       8285 HIT:       3336 MISS:       4949 MSHR_MERGE:          0
cpu0->LLC WRITE        ACCESS:     135011 HIT:     132673 MISS:       2338 MSHR_MERGE:          0
cpu0->LLC TRANSLATION  ACCESS:          0 HIT:          0 MISS:          0 MSHR_MERGE:          0
cpu0->LLC PREFETCH REQUESTED:          0 ISSUED:          0 USEFUL:          0 USELESS:          0 LATE:          0
cpu0->LLC AVERAGE MISS LATENCY: 180.4 cycles

DRAM Statistics

Channel 0 RQ ROW_BUFFER_HIT:       3104
  ROW_BUFFER_MISS:      71069
  AVG DBUS CONGESTED CYCLE: 16
Channel 0 WQ ROW_BUFFER_HIT:      11188
  ROW_BUFFER_MISS:      40332
  FULL:          0
Channel 0 REFRESHES ISSUED:       2137

[ROI Statistics]
[System Configuration]
num_cpus 1
cpu_freq 4000
fetch_width 6
decode_width 6
dispatch_width 6
execute_width 6
lq_width 2
sq_width 2
retire_width 6
scheduler_size 128
branch_mispredict_penalty 15
rob_size 352
lq_size 128
sq_size 72
ifetch_buffer_size 64
decode_buffer_size 32
dispatch_buffer_size 32
register_file_size 288
decode_latency 1
dispatch_latency 1
schedule_latency 1
execute_latency 1
page_size 4096
block_size 64
core_0_itlb_set 16
core_0_itlb_way 4
core_0_itlb_rq_size 16
core_0_itlb_wq_size 16
core_0_itlb_pq_size 0
core_0_itlb_mshr_size 8
core_0_itlb_hit_latency 1
core_0_itlb_fill_latency 1
core_0_itlb_max_tag_check 2
core_0_itlb_max_fill 2
core_0_dtlb_set 16
core_0_dtlb_way 4
core_0_dtlb_rq_size 16
core_0_dtlb_wq_size 16
core_0_dtlb_pq_size 0
core_0_dtlb_mshr_size 8
core_0_dtlb_hit_latency 1
core_0_dtlb_fill_latency 1
core_0_dtlb_max_tag_check 2
core_0_dtlb_max_fill 2
core_0_stlb_set 128
core_0_stlb_way 12
core_0_stlb_rq_size 32
core_0_stlb_wq_size 32
core_0_stlb_pq_size 0
core_0_stlb_mshr_size 16
core_0_stlb_hit_latency 4
core_0_stlb_fill_latency 4
core_0_stlb_max_tag_check 1
core_0_stlb_max_fill 1
core_0_l1i_set 64
core_0_l1i_way 8
core_0_l1i_rq_size 64
core_0_l1i_wq_size 64
core_0_l1i_pq_size 32
core_0_l1i_mshr_size 8
core_0_l1i_hit_latency 2
core_0_l1i_fill_latency 2
core_0_l1i_max_tag_check 2
core_0_l1i_max_fill 2
core_0_l1d_set 64
core_0_l1d_way 12
core_0_l1d_rq_size 64
core_0_l1d_wq_size 64
core_0_l1d_pq_size 8
core_0_l1d_mshr_size 16
core_0_l1d_hit_latency 2
core_0_l1d_fill_latency 3
core_0_l1d_max_tag_check 2
core_0_l1d_max_fill 2
core_0_l2c_set 1024
core_0_l2c_way 8
core_0_l2c_rq_size 32
core_0_l2c_wq_size 32
core_0_l2c_pq_size 16
core_0_l2c_mshr_size 32
core_0_l2c_hit_latency 5
core_0_l2c_fill_latency 5
core_0_l2c_max_tag_check 1
core_0_l2c_max_fill 1
llc_set 2048
llc_way 16
llc_rq_size 32
llc_wq_size 32
llc_pq_size 32
llc_mshr_size 64
llc_hit_latency 10
llc_fill_latency 10
llc_max_tag_check 1
llc_max_fill 1
dram_channels 1
dram_ranks 1
dram_bankgroups 8
dram_banks 4
dram_rows 65536
dram_columns 1024
dram_channel_width 8
dram_rq_size 64
dram_wq_size 64
dram_size 17179869184
core_0_itlb_prefetcher no
core_0_dtlb_prefetcher no
core_0_stlb_prefetcher no
core_0_l1i_prefetcher next_line
core_0_l1d_prefetcher vberti
core_0_l2c_prefetcher ip_stride
llc_prefetcher no
llc_replacement drrip

Core_0_instructions 50000001
Core_0_cycles 25643495
Core_0_IPC 1.94981
Core_0_branch_prediction_accuracy 98.6198
Core_0_branch_MPKI 2.47046
Core_0_average_ROB_occupancy_at_mispredict 137.82

Core_0_ITLB_total_access 6690535
Core_0_ITLB_total_hit 6231884
Core_0_ITLB_total_miss 458651
Core_0_ITLB_total_MPKI 9.17302
Core_0_ITLB_total_miss_rate 0.0685522
Core_0_ITLB_demand_access 6690535
Core_0_ITLB_demand_hit 6231884
Core_0_ITLB_demand_miss 458651
Core_0_ITLB_demand_MPKI 9.17302
Core_0_ITLB_demand_miss_rate 0.0685522
Core_0_ITLB_load_access 6690535
Core_0_ITLB_load_hit 6231884
Core_0_ITLB_load_miss 458651
Core_0_ITLB_load_MPKI 9.17302
Core_0_ITLB_load_miss_rate 0.0685522
Core_0_ITLB_rfo_access 0
Core_0_ITLB_rfo_hit 0
Core_0_ITLB_rfo_miss 0
Core_0_ITLB_rfo_MPKI 0
Core_0_ITLB_rfo_miss_rate 0
Core_0_ITLB_prefetch_access 0
Core_0_ITLB_prefetch_hit 0
Core_0_ITLB_prefetch_miss 0
Core_0_ITLB_prefetch_MPKI 0
Core_0_ITLB_prefetch_miss_rate 0
Core_0_ITLB_writeback_access 0
Core_0_ITLB_writeback_hit 0
Core_0_ITLB_writeback_miss 0
Core_0_ITLB_writeback_MPKI 0
Core_0_ITLB_writeback_miss_rate 0
Core_0_ITLB_prefetch_requested 0
Core_0_ITLB_prefetch_issued 0
Core_0_ITLB_prefetch_useful 0
Core_0_ITLB_prefetch_useless 0
Core_0_ITLB_prefetch_late 0
Core_0_ITLB_prefetch_accuracy 0
Core_0_ITLB_prefetch_coverage 0
Core_0_ITLB_total_eviction 189192

Core_0_DTLB_total_access 10725020
Core_0_DTLB_total_hit 9887684
Core_0_DTLB_total_miss 837336
Core_0_DTLB_total_MPKI 16.7467
Core_0_DTLB_total_miss_rate 0.0780731
Core_0_DTLB_demand_access 10725020
Core_0_DTLB_demand_hit 9887684
Core_0_DTLB_demand_miss 837336
Core_0_DTLB_demand_MPKI 16.7467
Core_0_DTLB_demand_miss_rate 0.0780731
Core_0_DTLB_load_access 10725020
Core_0_DTLB_load_hit 9887684
Core_0_DTLB_load_miss 837336
Core_0_DTLB_load_MPKI 16.7467
Core_0_DTLB_load_miss_rate 0.0780731
Core_0_DTLB_rfo_access 0
Core_0_DTLB_rfo_hit 0
Core_0_DTLB_rfo_miss 0
Core_0_DTLB_rfo_MPKI 0
Core_0_DTLB_rfo_miss_rate 0
Core_0_DTLB_prefetch_access 0
Core_0_DTLB_prefetch_hit 0
Core_0_DTLB_prefetch_miss 0
Core_0_DTLB_prefetch_MPKI 0
Core_0_DTLB_prefetch_miss_rate 0
Core_0_DTLB_writeback_access 0
Core_0_DTLB_writeback_hit 0
Core_0_DTLB_writeback_miss 0
Core_0_DTLB_writeback_MPKI 0
Core_0_DTLB_writeback_miss_rate 0
Core_0_DTLB_prefetch_requested 0
Core_0_DTLB_prefetch_issued 0
Core_0_DTLB_prefetch_useful 0
Core_0_DTLB_prefetch_useless 0
Core_0_DTLB_prefetch_late 0
Core_0_DTLB_prefetch_accuracy 0
Core_0_DTLB_prefetch_coverage 0
Core_0_DTLB_total_eviction 629925

Core_0_STLB_total_access 819117
Core_0_STLB_total_hit 819117
Core_0_STLB_total_miss 0
Core_0_STLB_total_MPKI 0
Core_0_STLB_total_miss_rate 0
Core_0_STLB_demand_access 819117
Core_0_STLB_demand_hit 819117
Core_0_STLB_demand_miss 0
Core_0_STLB_demand_MPKI 0
Core_0_STLB_demand_miss_rate 0
Core_0_STLB_load_access 819117
Core_0_STLB_load_hit 819117
Core_0_STLB_load_miss 0
Core_0_STLB_load_MPKI 0
Core_0_STLB_load_miss_rate 0
Core_0_STLB_rfo_access 0
Core_0_STLB_rfo_hit 0
Core_0_STLB_rfo_miss 0
Core_0_STLB_rfo_MPKI 0
Core_0_STLB_rfo_miss_rate 0
Core_0_STLB_prefetch_access 0
Core_0_STLB_prefetch_hit 0
Core_0_STLB_prefetch_miss 0
Core_0_STLB_prefetch_MPKI 0
Core_0_STLB_prefetch_miss_rate 0
Core_0_STLB_writeback_access 0
Core_0_STLB_writeback_hit 0
Core_0_STLB_writeback_miss 0
Core_0_STLB_writeback_MPKI 0
Core_0_STLB_writeback_miss_rate 0
Core_0_STLB_prefetch_requested 0
Core_0_STLB_prefetch_issued 0
Core_0_STLB_prefetch_useful 0
Core_0_STLB_prefetch_useless 0
Core_0_STLB_prefetch_late 0
Core_0_STLB_prefetch_accuracy 0
Core_0_STLB_prefetch_coverage 0
Core_0_STLB_total_eviction 81781

Core_0_L1I_total_access 7859648
Core_0_L1I_total_hit 5820370
Core_0_L1I_total_miss 2039278
Core_0_L1I_total_MPKI 40.7856
Core_0_L1I_total_miss_rate 0.259462
Core_0_L1I_demand_access 7859648
Core_0_L1I_demand_hit 5820370
Core_0_L1I_demand_miss 2039278
Core_0_L1I_demand_MPKI 40.7856
Core_0_L1I_demand_miss_rate 0.259462
Core_0_L1I_load_access 7859648
Core_0_L1I_load_hit 5820370
Core_0_L1I_load_miss 2039278
Core_0_L1I_load_MPKI 40.7856
Core_0_L1I_load_miss_rate 0.259462
Core_0_L1I_rfo_access 0
Core_0_L1I_rfo_hit 0
Core_0_L1I_rfo_miss 0
Core_0_L1I_rfo_MPKI 0
Core_0_L1I_rfo_miss_rate 0
Core_0_L1I_prefetch_access 0
Core_0_L1I_prefetch_hit 0
Core_0_L1I_prefetch_miss 0
Core_0_L1I_prefetch_MPKI 0
Core_0_L1I_prefetch_miss_rate 0
Core_0_L1I_writeback_access 0
Core_0_L1I_writeback_hit 0
Core_0_L1I_writeback_miss 0
Core_0_L1I_writeback_MPKI 0
Core_0_L1I_writeback_miss_rate 0
Core_0_L1I_prefetch_requested 0
Core_0_L1I_prefetch_issued 0
Core_0_L1I_prefetch_useful 0
Core_0_L1I_prefetch_useless 0
Core_0_L1I_prefetch_late 0
Core_0_L1I_prefetch_accuracy 0
Core_0_L1I_prefetch_coverage 0
Core_0_L1I_total_eviction 1258694

Core_0_L1D_total_access 11408537
Core_0_L1D_total_hit 10473960
Core_0_L1D_total_miss 934577
Core_0_L1D_total_MPKI 18.6915
Core_0_L1D_total_miss_rate 0.0819191
Core_0_L1D_demand_access 6411802
Core_0_L1D_demand_hit 5701929
Core_0_L1D_demand_miss 709873
Core_0_L1D_demand_MPKI 14.1975
Core_0_L1D_demand_miss_rate 0.110713
Core_0_L1D_load_access 6411802
Core_0_L1D_load_hit 5701929
Core_0_L1D_load_miss 709873
Core_0_L1D_load_MPKI 14.1975
Core_0_L1D_load_miss_rate 0.110713
Core_0_L1D_rfo_access 0
Core_0_L1D_rfo_hit 0
Core_0_L1D_rfo_miss 0
Core_0_L1D_rfo_MPKI 0
Core_0_L1D_rfo_miss_rate 0
Core_0_L1D_prefetch_access 11977
Core_0_L1D_prefetch_hit 11427
Core_0_L1D_prefetch_miss 550
Core_0_L1D_prefetch_MPKI 0.011
Core_0_L1D_prefetch_miss_rate 0.0459213
Core_0_L1D_writeback_access 4984758
Core_0_L1D_writeback_hit 4760604
Core_0_L1D_writeback_miss 224154
Core_0_L1D_writeback_MPKI 4.48308
Core_0_L1D_writeback_miss_rate 0.0449679
Core_0_L1D_prefetch_requested 13410
Core_0_L1D_prefetch_issued 11977
Core_0_L1D_prefetch_useful 31
Core_0_L1D_prefetch_useless 1
Core_0_L1D_prefetch_late 0
Core_0_L1D_prefetch_accuracy 0.00258829
Core_0_L1D_prefetch_coverage 4.36679e-05
Core_0_L1D_total_eviction 604842

Core_0_L2C_total_access 2133025
Core_0_L2C_total_hit 1453533
Core_0_L2C_total_miss 679492
Core_0_L2C_total_MPKI 13.5898
Core_0_L2C_total_miss_rate 0.318558
Core_0_L2C_demand_access 1863488
Core_0_L2C_demand_hit 1196294
Core_0_L2C_demand_miss 667194
Core_0_L2C_demand_MPKI 13.3439
Core_0_L2C_demand_miss_rate 0.358035
Core_0_L2C_load_access 1783794
Core_0_L2C_load_hit 1158709
Core_0_L2C_load_miss 625085
Core_0_L2C_load_MPKI 12.5017
Core_0_L2C_load_miss_rate 0.350424
Core_0_L2C_rfo_access 79694
Core_0_L2C_rfo_hit 37585
Core_0_L2C_rfo_miss 42109
Core_0_L2C_rfo_MPKI 0.84218
Core_0_L2C_rfo_miss_rate 0.528384
Core_0_L2C_prefetch_access 17435
Core_0_L2C_prefetch_hit 8795
Core_0_L2C_prefetch_miss 8640
Core_0_L2C_prefetch_MPKI 0.1728
Core_0_L2C_prefetch_miss_rate 0.495555
Core_0_L2C_writeback_access 252102
Core_0_L2C_writeback_hit 248444
Core_0_L2C_writeback_miss 3658
Core_0_L2C_writeback_MPKI 0.07316
Core_0_L2C_writeback_miss_rate 0.01451
Core_0_L2C_prefetch_requested 16911
Core_0_L2C_prefetch_issued 16888
Core_0_L2C_prefetch_useful 5104
Core_0_L2C_prefetch_useless 3139
Core_0_L2C_prefetch_late 39
Core_0_L2C_prefetch_accuracy 0.302226
Core_0_L2C_prefetch_coverage 0.00759187
Core_0_L2C_total_eviction 679098

Core_0_LLC_total_access 810449
Core_0_LLC_total_hit 733937
Core_0_LLC_total_miss 76512
Core_0_LLC_total_MPKI 1.53024
Core_0_LLC_total_miss_rate 0.0944069
Core_0_LLC_demand_access 667153
Core_0_LLC_demand_hit 597928
Core_0_LLC_demand_miss 69225
Core_0_LLC_demand_MPKI 1.3845
Core_0_LLC_demand_miss_rate 0.103762
Core_0_LLC_load_access 625044
Core_0_LLC_load_hit 567211
Core_0_LLC_load_miss 57833
Core_0_LLC_load_MPKI 1.15666
Core_0_LLC_load_miss_rate 0.0925263
Core_0_LLC_rfo_access 42109
Core_0_LLC_rfo_hit 30717
Core_0_LLC_rfo_miss 11392
Core_0_LLC_rfo_MPKI 0.22784
Core_0_LLC_rfo_miss_rate 0.270536
Core_0_LLC_prefetch_access 8285
Core_0_LLC_prefetch_hit 3336
Core_0_LLC_prefetch_miss 4949
Core_0_LLC_prefetch_MPKI 0.09898
Core_0_LLC_prefetch_miss_rate 0.597345
Core_0_LLC_writeback_access 135011
Core_0_LLC_writeback_hit 132673
Core_0_LLC_writeback_miss 2338
Core_0_LLC_writeback_MPKI 0.04676
Core_0_LLC_writeback_miss_rate 0.0173171
Core_0_LLC_prefetch_requested 0
Core_0_LLC_prefetch_issued 0
Core_0_LLC_prefetch_useful 0
Core_0_LLC_prefetch_useless 0
Core_0_LLC_prefetch_late 0
Core_0_LLC_prefetch_accuracy 0
Core_0_LLC_prefetch_coverage 0
Core_0_LLC_total_eviction 76214

[DRAM Statistics]
Channel_0_RQ_row_buffer_hit 3104
Channel_0_RQ_row_buffer_miss 71069
Channel_0_WQ_row_buffer_hit 11188
Channel_0_WQ_row_buffer_miss 40332
Channel_0_WQ_full 0
Channel_0_dbus_congested 398076
DRAM_total_RQ_row_buffer_hit 3104
DRAM_total_RQ_row_buffer_miss 71069
DRAM_total_WQ_row_buffer_hit 11188
DRAM_total_WQ_row_buffer_miss 40332
DRAM_total_WQ_full 0
DRAM_total_dbus_congested 398076
DRAM_avg_congested_cycle 16.0046

======STLB miss causes ========
Core_0_STLB_miss_cause_breakdown
Core_0_STLB_cause_Demand_Data_miss 0
Core_0_STLB_cause_Demand_Data_miss_rate 0
Core_0_STLB_cause_Demand_Instruction_miss 0
Core_0_STLB_cause_Demand_Instruction_miss_rate 0
Core_0_STLB_cause_L1D_Prefetch_miss 0
Core_0_STLB_cause_L1D_Prefetch_miss_rate 0
Core_0_STLB_cause_L1I_Prefetch_miss 0
Core_0_STLB_cause_L1I_Prefetch_miss_rate 0
Core_0_STLB_cause_Other_miss 0
Core_0_STLB_cause_Other_miss_rate 0
Core_0_STLB_Demand_miss 0
Core_0_STLB_Demand_miss_rate 0
Core_0_STLB_L1D_Prefetch_miss 0
Core_0_STLB_L1D_Prefetch_miss_rate 0
Core_0_STLB_Other_miss 0
Core_0_STLB_Other_miss_rate 0
BERTI TO_L1: 39479 TO_L2: 35854 TO_L2_BC_MSHR: 0
BERTI AVG_LAT: 27.1771 NUM_TRACK_LATENCY: 844745 NUM_CANT_TRACK_LATENCY: 0
BERTI CROSS_PAGE 11000 NO_CROSS_PAGE: 64333
BERTI FOUND_BERTI: 449741 NO_FOUND_BERTI: 14834549
BERTI AVERAGE_ISSUED: 5.76451
