[VMEM] WARNING: physical memory size is smaller than virtual memory size.

*** ChampSim Multicore Out-of-Order Simulator ***
Warmup Instructions: 20000000
Simulation Instructions: 50000000
Number of CPUs: 1
Page size: 4096
STLB ideal mode: all
STLB ideal fill: on
Core 0: /data0/tzh/champsim_traces/QMM/srv_69_new.xz
VBerti Prefetcher
BERTI HASH ENTANGLING
BERTI IP MASK ffff
Off-chip DRAM Size: 16 GiB Channels: 1 Width: 64-bit Data Rate: 3205 MT/s
[BTB] WARNING: target of return is a lower address than the corresponding call. This is usually a problem with your trace.
[BTB] WARNING: target of return is a lower address than the corresponding call. This is usually a problem with your trace.
[BTB] WARNING: target of return is a lower address than the corresponding call. This is usually a problem with your trace.
[BTB] WARNING: target of return is a lower address than the corresponding call. This is usually a problem with your trace.
[BTB] WARNING: target of return is a lower address than the corresponding call. This is usually a problem with your trace.
[BTB] WARNING: target of return is a lower address than the corresponding call. This is usually a problem with your trace.
[BTB] WARNING: target of return is a lower address than the corresponding call. This is usually a problem with your trace.
[BTB] WARNING: target of return is a lower address than the corresponding call. This is usually a problem with your trace.
[BTB] WARNING: target of return is a lower address than the corresponding call. This is usually a problem with your trace.
[BTB] WARNING: target of return is a lower address than the corresponding call. This is usually a problem with your trace.
Warmup halting CPU 0 at instruction 20000001 cycle 4133201 for remainder of phase
Warmup finished CPU 0 instructions: 20000001 cycles: 4133201 cumulative IPC: 4.839 (Simulation time: 00 hr 01 min 04 sec)
Warmup complete CPU 0 instructions: 20000001 cycles: 4133201 cumulative IPC: 4.839 (Simulation time: 00 hr 01 min 04 sec)
*** Reached end of trace: (0, "/data0/tzh/champsim_traces/QMM/srv_69_new.xz")
*** Reached end of trace: (0, "/data0/tzh/champsim_traces/QMM/srv_69_new.xz")
Simulation finished CPU 0 instructions: 50000002 cycles: 30935848 cumulative IPC: 1.616 (Simulation time: 00 hr 05 min 09 sec)
Simulation complete CPU 0 instructions: 50000002 cycles: 30935848 cumulative IPC: 1.616 (Simulation time: 00 hr 05 min 09 sec)

ChampSim completed all CPUs

=== Simulation ===
CPU 0 runs /data0/tzh/champsim_traces/QMM/srv_69_new.xz

Region of Interest Statistics

CPU 0 cumulative IPC: 1.616 instructions: 50000002 cycles: 30935848
CPU 0 Branch Prediction Accuracy: 97% MPKI: 5.41 Average ROB Occupancy at Mispredict: 80.61
Branch type MPKI
BRANCH_DIRECT_JUMP: 0.401
BRANCH_INDIRECT: 0.5844
BRANCH_CONDITIONAL: 2.817
BRANCH_DIRECT_CALL: 0.764
BRANCH_INDIRECT_CALL: 0.1845
BRANCH_RETURN: 0.6597

cpu0->cpu0_STLB TOTAL        ACCESS:     802926 HIT:     802926 MISS:          0 MSHR_MERGE:          0
cpu0->cpu0_STLB LOAD         ACCESS:     802926 HIT:     802926 MISS:          0 MSHR_MERGE:          0
cpu0->cpu0_STLB RFO          ACCESS:          0 HIT:          0 MISS:          0 MSHR_MERGE:          0
cpu0->cpu0_STLB PREFETCH     ACCESS:          0 HIT:          0 MISS:          0 MSHR_MERGE:          0
cpu0->cpu0_STLB WRITE        ACCESS:          0 HIT:          0 MISS:          0 MSHR_MERGE:          0
cpu0->cpu0_STLB TRANSLATION  ACCESS:          0 HIT:          0 MISS:          0 MSHR_MERGE:          0
cpu0->cpu0_STLB PREFETCH REQUESTED:          0 ISSUED:          0 USEFUL:          0 USELESS:          0 LATE:          0
cpu0->cpu0_STLB AVERAGE MISS LATENCY: - cycles
cpu0->cpu0_L2C TOTAL        ACCESS:    2152272 HIT:    1250631 MISS:     901641 MSHR_MERGE:       2076
cpu0->cpu0_L2C LOAD         ACCESS:    1794778 HIT:     957905 MISS:     836873 MSHR_MERGE:        526
cpu0->cpu0_L2C RFO          ACCESS:      84246 HIT:      34057 MISS:      50189 MSHR_MERGE:          3
cpu0->cpu0_L2C PREFETCH     ACCESS:      26994 HIT:      14198 MISS:      12796 MSHR_MERGE:       1547
cpu0->cpu0_L2C WRITE        ACCESS:     246254 HIT:     244471 MISS:       1783 MSHR_MERGE:          0
cpu0->cpu0_L2C TRANSLATION  ACCESS:          0 HIT:          0 MISS:          0 MSHR_MERGE:          0
cpu0->cpu0_L2C PREFETCH REQUESTED:      34920 ISSUED:      22949 USEFUL:       4892 USELESS:       4360 LATE:        258
cpu0->cpu0_L2C AVERAGE MISS LATENCY: 28.58 cycles
cpu0->cpu0_L1I TOTAL        ACCESS:    7604613 HIT:    5617364 MISS:    1987249 MSHR_MERGE:     724708
cpu0->cpu0_L1I LOAD         ACCESS:    7604613 HIT:    5617364 MISS:    1987249 MSHR_MERGE:     724708
cpu0->cpu0_L1I RFO          ACCESS:          0 HIT:          0 MISS:          0 MSHR_MERGE:          0
cpu0->cpu0_L1I PREFETCH     ACCESS:          0 HIT:          0 MISS:          0 MSHR_MERGE:          0
cpu0->cpu0_L1I WRITE        ACCESS:          0 HIT:          0 MISS:          0 MSHR_MERGE:          0
cpu0->cpu0_L1I TRANSLATION  ACCESS:          0 HIT:          0 MISS:          0 MSHR_MERGE:          0
cpu0->cpu0_L1I PREFETCH REQUESTED:          0 ISSUED:          0 USEFUL:          0 USELESS:          0 LATE:          0
cpu0->cpu0_L1I AVERAGE MISS LATENCY: 14.78 cycles
cpu0->cpu0_L1D TOTAL        ACCESS:   11753600 HIT:   10794407 MISS:     959193 MSHR_MERGE:     338131
cpu0->cpu0_L1D LOAD         ACCESS:    6736394 HIT:    6022860 MISS:     713534 MSHR_MERGE:     181294
cpu0->cpu0_L1D RFO          ACCESS:          0 HIT:          0 MISS:          0 MSHR_MERGE:          0
cpu0->cpu0_L1D PREFETCH     ACCESS:      43798 HIT:      38206 MISS:       5592 MSHR_MERGE:       1019
cpu0->cpu0_L1D WRITE        ACCESS:    4973408 HIT:    4733341 MISS:     240067 MSHR_MERGE:     155818
cpu0->cpu0_L1D TRANSLATION  ACCESS:          0 HIT:          0 MISS:          0 MSHR_MERGE:          0
cpu0->cpu0_L1D PREFETCH REQUESTED:      87069 ISSUED:      43798 USEFUL:        970 USELESS:        590 LATE:        368
cpu0->cpu0_L1D AVERAGE MISS LATENCY: 35.38 cycles
cpu0->cpu0_ITLB TOTAL        ACCESS:    6429413 HIT:    5967410 MISS:     462003 MSHR_MERGE:     269230
cpu0->cpu0_ITLB LOAD         ACCESS:    6429413 HIT:    5967410 MISS:     462003 MSHR_MERGE:     269230
cpu0->cpu0_ITLB RFO          ACCESS:          0 HIT:          0 MISS:          0 MSHR_MERGE:          0
cpu0->cpu0_ITLB PREFETCH     ACCESS:          0 HIT:          0 MISS:          0 MSHR_MERGE:          0
cpu0->cpu0_ITLB WRITE        ACCESS:          0 HIT:          0 MISS:          0 MSHR_MERGE:          0
cpu0->cpu0_ITLB TRANSLATION  ACCESS:          0 HIT:          0 MISS:          0 MSHR_MERGE:          0
cpu0->cpu0_ITLB PREFETCH REQUESTED:          0 ISSUED:          0 USEFUL:          0 USELESS:          0 LATE:          0
cpu0->cpu0_ITLB AVERAGE MISS LATENCY: 5.023 cycles
cpu0->cpu0_DTLB TOTAL        ACCESS:   11094200 HIT:   10285189 MISS:     809011 MSHR_MERGE:     198858
cpu0->cpu0_DTLB LOAD         ACCESS:   11094200 HIT:   10285189 MISS:     809011 MSHR_MERGE:     198858
cpu0->cpu0_DTLB RFO          ACCESS:          0 HIT:          0 MISS:          0 MSHR_MERGE:          0
cpu0->cpu0_DTLB PREFETCH     ACCESS:          0 HIT:          0 MISS:          0 MSHR_MERGE:          0
cpu0->cpu0_DTLB WRITE        ACCESS:          0 HIT:          0 MISS:          0 MSHR_MERGE:          0
cpu0->cpu0_DTLB TRANSLATION  ACCESS:          0 HIT:          0 MISS:          0 MSHR_MERGE:          0
cpu0->cpu0_DTLB PREFETCH REQUESTED:          0 ISSUED:          0 USEFUL:          0 USELESS:          0 LATE:          0
cpu0->cpu0_DTLB AVERAGE MISS LATENCY: 5.008 cycles
cpu0->LLC TOTAL        ACCESS:    1043403 HIT:     970889 MISS:      72514 MSHR_MERGE:          0
cpu0->LLC LOAD         ACCESS:     836347 HIT:     781588 MISS:      54759 MSHR_MERGE:          0
cpu0->LLC RFO          ACCESS:      50186 HIT:      38650 MISS:      11536 MSHR_MERGE:          0
cpu0->LLC PREFETCH     ACCESS:      11249 HIT:       7372 MISS:       3877 MSHR_MERGE:          0
cpu0->LLC WRITE        ACCESS:     145621 HIT:     143279 MISS:       2342 MSHR_MERGE:          0
cpu0->LLC TRANSLATION  ACCESS:          0 HIT:          0 MISS:          0 MSHR_MERGE:          0
cpu0->LLC PREFETCH REQUESTED:          0 ISSUED:          0 USEFUL:          0 USELESS:          0 LATE:          0
cpu0->LLC AVERAGE MISS LATENCY: 175.3 cycles

DRAM Statistics

Channel 0 RQ ROW_BUFFER_HIT:       2556
  ROW_BUFFER_MISS:      67613
  AVG DBUS CONGESTED CYCLE: 16.65
Channel 0 WQ ROW_BUFFER_HIT:      10310
  ROW_BUFFER_MISS:      38038
  FULL:          0
Channel 0 REFRESHES ISSUED:       2578

[ROI Statistics]
[System Configuration]
num_cpus 1
cpu_freq 4000
fetch_width 6
decode_width 6
dispatch_width 6
execute_width 6
lq_width 2
sq_width 2
retire_width 6
scheduler_size 128
branch_mispredict_penalty 15
rob_size 352
lq_size 128
sq_size 72
ifetch_buffer_size 64
decode_buffer_size 32
dispatch_buffer_size 32
register_file_size 288
decode_latency 1
dispatch_latency 1
schedule_latency 1
execute_latency 1
page_size 4096
block_size 64
core_0_itlb_set 16
core_0_itlb_way 4
core_0_itlb_rq_size 16
core_0_itlb_wq_size 16
core_0_itlb_pq_size 0
core_0_itlb_mshr_size 8
core_0_itlb_hit_latency 1
core_0_itlb_fill_latency 1
core_0_itlb_max_tag_check 2
core_0_itlb_max_fill 2
core_0_dtlb_set 16
core_0_dtlb_way 4
core_0_dtlb_rq_size 16
core_0_dtlb_wq_size 16
core_0_dtlb_pq_size 0
core_0_dtlb_mshr_size 8
core_0_dtlb_hit_latency 1
core_0_dtlb_fill_latency 1
core_0_dtlb_max_tag_check 2
core_0_dtlb_max_fill 2
core_0_stlb_set 128
core_0_stlb_way 12
core_0_stlb_rq_size 32
core_0_stlb_wq_size 32
core_0_stlb_pq_size 0
core_0_stlb_mshr_size 16
core_0_stlb_hit_latency 4
core_0_stlb_fill_latency 4
core_0_stlb_max_tag_check 1
core_0_stlb_max_fill 1
core_0_l1i_set 64
core_0_l1i_way 8
core_0_l1i_rq_size 64
core_0_l1i_wq_size 64
core_0_l1i_pq_size 32
core_0_l1i_mshr_size 8
core_0_l1i_hit_latency 2
core_0_l1i_fill_latency 2
core_0_l1i_max_tag_check 2
core_0_l1i_max_fill 2
core_0_l1d_set 64
core_0_l1d_way 12
core_0_l1d_rq_size 64
core_0_l1d_wq_size 64
core_0_l1d_pq_size 8
core_0_l1d_mshr_size 16
core_0_l1d_hit_latency 2
core_0_l1d_fill_latency 3
core_0_l1d_max_tag_check 2
core_0_l1d_max_fill 2
core_0_l2c_set 1024
core_0_l2c_way 8
core_0_l2c_rq_size 32
core_0_l2c_wq_size 32
core_0_l2c_pq_size 16
core_0_l2c_mshr_size 32
core_0_l2c_hit_latency 5
core_0_l2c_fill_latency 5
core_0_l2c_max_tag_check 1
core_0_l2c_max_fill 1
llc_set 2048
llc_way 16
llc_rq_size 32
llc_wq_size 32
llc_pq_size 32
llc_mshr_size 64
llc_hit_latency 10
llc_fill_latency 10
llc_max_tag_check 1
llc_max_fill 1
dram_channels 1
dram_ranks 1
dram_bankgroups 8
dram_banks 4
dram_rows 65536
dram_columns 1024
dram_channel_width 8
dram_rq_size 64
dram_wq_size 64
dram_size 17179869184
core_0_itlb_prefetcher no
core_0_dtlb_prefetcher no
core_0_stlb_prefetcher no
core_0_l1i_prefetcher next_line
core_0_l1d_prefetcher vberti
core_0_l2c_prefetcher ip_stride
llc_prefetcher no
llc_replacement drrip

Core_0_instructions 50000002
Core_0_cycles 30935848
Core_0_IPC 1.61625
Core_0_branch_prediction_accuracy 96.9982
Core_0_branch_MPKI 5.41038
Core_0_average_ROB_occupancy_at_mispredict 80.606

Core_0_ITLB_total_access 6429413
Core_0_ITLB_total_hit 5967410
Core_0_ITLB_total_miss 462003
Core_0_ITLB_total_MPKI 9.24006
Core_0_ITLB_total_miss_rate 0.0718577
Core_0_ITLB_demand_access 6429413
Core_0_ITLB_demand_hit 5967410
Core_0_ITLB_demand_miss 462003
Core_0_ITLB_demand_MPKI 9.24006
Core_0_ITLB_demand_miss_rate 0.0718577
Core_0_ITLB_load_access 6429413
Core_0_ITLB_load_hit 5967410
Core_0_ITLB_load_miss 462003
Core_0_ITLB_load_MPKI 9.24006
Core_0_ITLB_load_miss_rate 0.0718577
Core_0_ITLB_rfo_access 0
Core_0_ITLB_rfo_hit 0
Core_0_ITLB_rfo_miss 0
Core_0_ITLB_rfo_MPKI 0
Core_0_ITLB_rfo_miss_rate 0
Core_0_ITLB_prefetch_access 0
Core_0_ITLB_prefetch_hit 0
Core_0_ITLB_prefetch_miss 0
Core_0_ITLB_prefetch_MPKI 0
Core_0_ITLB_prefetch_miss_rate 0
Core_0_ITLB_writeback_access 0
Core_0_ITLB_writeback_hit 0
Core_0_ITLB_writeback_miss 0
Core_0_ITLB_writeback_MPKI 0
Core_0_ITLB_writeback_miss_rate 0
Core_0_ITLB_prefetch_requested 0
Core_0_ITLB_prefetch_issued 0
Core_0_ITLB_prefetch_useful 0
Core_0_ITLB_prefetch_useless 0
Core_0_ITLB_prefetch_late 0
Core_0_ITLB_prefetch_accuracy 0
Core_0_ITLB_prefetch_coverage 0
Core_0_ITLB_total_eviction 192773

Core_0_DTLB_total_access 11094200
Core_0_DTLB_total_hit 10285189
Core_0_DTLB_total_miss 809011
Core_0_DTLB_total_MPKI 16.1802
Core_0_DTLB_total_miss_rate 0.072922
Core_0_DTLB_demand_access 11094200
Core_0_DTLB_demand_hit 10285189
Core_0_DTLB_demand_miss 809011
Core_0_DTLB_demand_MPKI 16.1802
Core_0_DTLB_demand_miss_rate 0.072922
Core_0_DTLB_load_access 11094200
Core_0_DTLB_load_hit 10285189
Core_0_DTLB_load_miss 809011
Core_0_DTLB_load_MPKI 16.1802
Core_0_DTLB_load_miss_rate 0.072922
Core_0_DTLB_rfo_access 0
Core_0_DTLB_rfo_hit 0
Core_0_DTLB_rfo_miss 0
Core_0_DTLB_rfo_MPKI 0
Core_0_DTLB_rfo_miss_rate 0
Core_0_DTLB_prefetch_access 0
Core_0_DTLB_prefetch_hit 0
Core_0_DTLB_prefetch_miss 0
Core_0_DTLB_prefetch_MPKI 0
Core_0_DTLB_prefetch_miss_rate 0
Core_0_DTLB_writeback_access 0
Core_0_DTLB_writeback_hit 0
Core_0_DTLB_writeback_miss 0
Core_0_DTLB_writeback_MPKI 0
Core_0_DTLB_writeback_miss_rate 0
Core_0_DTLB_prefetch_requested 0
Core_0_DTLB_prefetch_issued 0
Core_0_DTLB_prefetch_useful 0
Core_0_DTLB_prefetch_useless 0
Core_0_DTLB_prefetch_late 0
Core_0_DTLB_prefetch_accuracy 0
Core_0_DTLB_prefetch_coverage 0
Core_0_DTLB_total_eviction 610153

Core_0_STLB_total_access 802926
Core_0_STLB_total_hit 802926
Core_0_STLB_total_miss 0
Core_0_STLB_total_MPKI 0
Core_0_STLB_total_miss_rate 0
Core_0_STLB_demand_access 802926
Core_0_STLB_demand_hit 802926
Core_0_STLB_demand_miss 0
Core_0_STLB_demand_MPKI 0
Core_0_STLB_demand_miss_rate 0
Core_0_STLB_load_access 802926
Core_0_STLB_load_hit 802926
Core_0_STLB_load_miss 0
Core_0_STLB_load_MPKI 0
Core_0_STLB_load_miss_rate 0
Core_0_STLB_rfo_access 0
Core_0_STLB_rfo_hit 0
Core_0_STLB_rfo_miss 0
Core_0_STLB_rfo_MPKI 0
Core_0_STLB_rfo_miss_rate 0
Core_0_STLB_prefetch_access 0
Core_0_STLB_prefetch_hit 0
Core_0_STLB_prefetch_miss 0
Core_0_STLB_prefetch_MPKI 0
Core_0_STLB_prefetch_miss_rate 0
Core_0_STLB_writeback_access 0
Core_0_STLB_writeback_hit 0
Core_0_STLB_writeback_miss 0
Core_0_STLB_writeback_MPKI 0
Core_0_STLB_writeback_miss_rate 0
Core_0_STLB_prefetch_requested 0
Core_0_STLB_prefetch_issued 0
Core_0_STLB_prefetch_useful 0
Core_0_STLB_prefetch_useless 0
Core_0_STLB_prefetch_late 0
Core_0_STLB_prefetch_accuracy 0
Core_0_STLB_prefetch_coverage 0
Core_0_STLB_total_eviction 114029

Core_0_L1I_total_access 7604613
Core_0_L1I_total_hit 5617364
Core_0_L1I_total_miss 1987249
Core_0_L1I_total_MPKI 39.745
Core_0_L1I_total_miss_rate 0.261322
Core_0_L1I_demand_access 7604613
Core_0_L1I_demand_hit 5617364
Core_0_L1I_demand_miss 1987249
Core_0_L1I_demand_MPKI 39.745
Core_0_L1I_demand_miss_rate 0.261322
Core_0_L1I_load_access 7604613
Core_0_L1I_load_hit 5617364
Core_0_L1I_load_miss 1987249
Core_0_L1I_load_MPKI 39.745
Core_0_L1I_load_miss_rate 0.261322
Core_0_L1I_rfo_access 0
Core_0_L1I_rfo_hit 0
Core_0_L1I_rfo_miss 0
Core_0_L1I_rfo_MPKI 0
Core_0_L1I_rfo_miss_rate 0
Core_0_L1I_prefetch_access 0
Core_0_L1I_prefetch_hit 0
Core_0_L1I_prefetch_miss 0
Core_0_L1I_prefetch_MPKI 0
Core_0_L1I_prefetch_miss_rate 0
Core_0_L1I_writeback_access 0
Core_0_L1I_writeback_hit 0
Core_0_L1I_writeback_miss 0
Core_0_L1I_writeback_MPKI 0
Core_0_L1I_writeback_miss_rate 0
Core_0_L1I_prefetch_requested 0
Core_0_L1I_prefetch_issued 0
Core_0_L1I_prefetch_useful 0
Core_0_L1I_prefetch_useless 0
Core_0_L1I_prefetch_late 0
Core_0_L1I_prefetch_accuracy 0
Core_0_L1I_prefetch_coverage 0
Core_0_L1I_total_eviction 1262541

Core_0_L1D_total_access 11753600
Core_0_L1D_total_hit 10794407
Core_0_L1D_total_miss 959193
Core_0_L1D_total_MPKI 19.1839
Core_0_L1D_total_miss_rate 0.0816084
Core_0_L1D_demand_access 6736394
Core_0_L1D_demand_hit 6022860
Core_0_L1D_demand_miss 713534
Core_0_L1D_demand_MPKI 14.2707
Core_0_L1D_demand_miss_rate 0.105922
Core_0_L1D_load_access 6736394
Core_0_L1D_load_hit 6022860
Core_0_L1D_load_miss 713534
Core_0_L1D_load_MPKI 14.2707
Core_0_L1D_load_miss_rate 0.105922
Core_0_L1D_rfo_access 0
Core_0_L1D_rfo_hit 0
Core_0_L1D_rfo_miss 0
Core_0_L1D_rfo_MPKI 0
Core_0_L1D_rfo_miss_rate 0
Core_0_L1D_prefetch_access 43798
Core_0_L1D_prefetch_hit 38206
Core_0_L1D_prefetch_miss 5592
Core_0_L1D_prefetch_MPKI 0.11184
Core_0_L1D_prefetch_miss_rate 0.127677
Core_0_L1D_writeback_access 4973408
Core_0_L1D_writeback_hit 4733341
Core_0_L1D_writeback_miss 240067
Core_0_L1D_writeback_MPKI 4.80134
Core_0_L1D_writeback_miss_rate 0.0482701
Core_0_L1D_prefetch_requested 87069
Core_0_L1D_prefetch_issued 43798
Core_0_L1D_prefetch_useful 970
Core_0_L1D_prefetch_useless 590
Core_0_L1D_prefetch_late 368
Core_0_L1D_prefetch_accuracy 0.0221471
Core_0_L1D_prefetch_coverage 0.00135759
Core_0_L1D_total_eviction 618052

Core_0_L2C_total_access 2152272
Core_0_L2C_total_hit 1250631
Core_0_L2C_total_miss 901641
Core_0_L2C_total_MPKI 18.0328
Core_0_L2C_total_miss_rate 0.418925
Core_0_L2C_demand_access 1879024
Core_0_L2C_demand_hit 991962
Core_0_L2C_demand_miss 887062
Core_0_L2C_demand_MPKI 17.7412
Core_0_L2C_demand_miss_rate 0.472087
Core_0_L2C_load_access 1794778
Core_0_L2C_load_hit 957905
Core_0_L2C_load_miss 836873
Core_0_L2C_load_MPKI 16.7375
Core_0_L2C_load_miss_rate 0.466282
Core_0_L2C_rfo_access 84246
Core_0_L2C_rfo_hit 34057
Core_0_L2C_rfo_miss 50189
Core_0_L2C_rfo_MPKI 1.00378
Core_0_L2C_rfo_miss_rate 0.595743
Core_0_L2C_prefetch_access 26994
Core_0_L2C_prefetch_hit 14198
Core_0_L2C_prefetch_miss 12796
Core_0_L2C_prefetch_MPKI 0.25592
Core_0_L2C_prefetch_miss_rate 0.474031
Core_0_L2C_writeback_access 246254
Core_0_L2C_writeback_hit 244471
Core_0_L2C_writeback_miss 1783
Core_0_L2C_writeback_MPKI 0.03566
Core_0_L2C_writeback_miss_rate 0.00724049
Core_0_L2C_prefetch_requested 34920
Core_0_L2C_prefetch_issued 22949
Core_0_L2C_prefetch_useful 4892
Core_0_L2C_prefetch_useless 4360
Core_0_L2C_prefetch_late 258
Core_0_L2C_prefetch_accuracy 0.213168
Core_0_L2C_prefetch_coverage 0.00548459
Core_0_L2C_total_eviction 899565

Core_0_LLC_total_access 1043403
Core_0_LLC_total_hit 970889
Core_0_LLC_total_miss 72514
Core_0_LLC_total_MPKI 1.45028
Core_0_LLC_total_miss_rate 0.0694976
Core_0_LLC_demand_access 886533
Core_0_LLC_demand_hit 820238
Core_0_LLC_demand_miss 66295
Core_0_LLC_demand_MPKI 1.3259
Core_0_LLC_demand_miss_rate 0.0747801
Core_0_LLC_load_access 836347
Core_0_LLC_load_hit 781588
Core_0_LLC_load_miss 54759
Core_0_LLC_load_MPKI 1.09518
Core_0_LLC_load_miss_rate 0.065474
Core_0_LLC_rfo_access 50186
Core_0_LLC_rfo_hit 38650
Core_0_LLC_rfo_miss 11536
Core_0_LLC_rfo_MPKI 0.23072
Core_0_LLC_rfo_miss_rate 0.229865
Core_0_LLC_prefetch_access 11249
Core_0_LLC_prefetch_hit 7372
Core_0_LLC_prefetch_miss 3877
Core_0_LLC_prefetch_MPKI 0.07754
Core_0_LLC_prefetch_miss_rate 0.344653
Core_0_LLC_writeback_access 145621
Core_0_LLC_writeback_hit 143279
Core_0_LLC_writeback_miss 2342
Core_0_LLC_writeback_MPKI 0.04684
Core_0_LLC_writeback_miss_rate 0.0160828
Core_0_LLC_prefetch_requested 0
Core_0_LLC_prefetch_issued 0
Core_0_LLC_prefetch_useful 0
Core_0_LLC_prefetch_useless 0
Core_0_LLC_prefetch_late 0
Core_0_LLC_prefetch_accuracy 0
Core_0_LLC_prefetch_coverage 0
Core_0_LLC_total_eviction 72292

[DRAM Statistics]
Channel_0_RQ_row_buffer_hit 2556
Channel_0_RQ_row_buffer_miss 67613
Channel_0_WQ_row_buffer_hit 10310
Channel_0_WQ_row_buffer_miss 38038
Channel_0_WQ_full 0
Channel_0_dbus_congested 362950
DRAM_total_RQ_row_buffer_hit 2556
DRAM_total_RQ_row_buffer_miss 67613
DRAM_total_WQ_row_buffer_hit 10310
DRAM_total_WQ_row_buffer_miss 38038
DRAM_total_WQ_full 0
DRAM_total_dbus_congested 362950
DRAM_avg_congested_cycle 16.6503

======STLB miss causes ========
Core_0_STLB_miss_cause_breakdown
Core_0_STLB_cause_Demand_Data_miss 0
Core_0_STLB_cause_Demand_Data_miss_rate 0
Core_0_STLB_cause_Demand_Instruction_miss 0
Core_0_STLB_cause_Demand_Instruction_miss_rate 0
Core_0_STLB_cause_L1D_Prefetch_miss 0
Core_0_STLB_cause_L1D_Prefetch_miss_rate 0
Core_0_STLB_cause_L1I_Prefetch_miss 0
Core_0_STLB_cause_L1I_Prefetch_miss_rate 0
Core_0_STLB_cause_Other_miss 0
Core_0_STLB_cause_Other_miss_rate 0
Core_0_STLB_Demand_miss 0
Core_0_STLB_Demand_miss_rate 0
Core_0_STLB_L1D_Prefetch_miss 0
Core_0_STLB_L1D_Prefetch_miss_rate 0
Core_0_STLB_Other_miss 0
Core_0_STLB_Other_miss_rate 0
BERTI TO_L1: 127721 TO_L2: 115688 TO_L2_BC_MSHR: 4755
BERTI AVG_LAT: 27.2256 NUM_TRACK_LATENCY: 860032 NUM_CANT_TRACK_LATENCY: 0
BERTI CROSS_PAGE 27345 NO_CROSS_PAGE: 216064
BERTI FOUND_BERTI: 558586 NO_FOUND_BERTI: 15054691
BERTI AVERAGE_ISSUED: 3.14041
