[VMEM] WARNING: physical memory size is smaller than virtual memory size.

*** ChampSim Multicore Out-of-Order Simulator ***
Warmup Instructions: 20000000
Simulation Instructions: 50000000
Number of CPUs: 1
Page size: 4096
STLB ideal mode: all
STLB ideal fill: on
Core 0: /data2/zcq/champsim_traces_xsbench/xs.XL100nuclide-577B.champsimtrace.xz
VBerti Prefetcher
BERTI HASH ENTANGLING
BERTI IP MASK ffff
Off-chip DRAM Size: 16 GiB Channels: 1 Width: 64-bit Data Rate: 3205 MT/s
Warmup halting CPU 0 at instruction 20000004 cycle 4208006 for remainder of phase
Warmup finished CPU 0 instructions: 20000004 cycles: 4208006 cumulative IPC: 4.753 (Simulation time: 00 hr 00 min 48 sec)
Warmup complete CPU 0 instructions: 20000004 cycles: 4208006 cumulative IPC: 4.753 (Simulation time: 00 hr 00 min 48 sec)
Simulation finished CPU 0 instructions: 50000002 cycles: 251543307 cumulative IPC: 0.1988 (Simulation time: 00 hr 15 min 42 sec)
Simulation complete CPU 0 instructions: 50000002 cycles: 251543307 cumulative IPC: 0.1988 (Simulation time: 00 hr 15 min 42 sec)

ChampSim completed all CPUs

=== Simulation ===
CPU 0 runs /data2/zcq/champsim_traces_xsbench/xs.XL100nuclide-577B.champsimtrace.xz

Region of Interest Statistics

CPU 0 cumulative IPC: 0.1988 instructions: 50000002 cycles: 251543307
CPU 0 Branch Prediction Accuracy: 87.26% MPKI: 21.33 Average ROB Occupancy at Mispredict: 26.67
Branch type MPKI
BRANCH_DIRECT_JUMP: 2e-05
BRANCH_INDIRECT: 0
BRANCH_CONDITIONAL: 21.33
BRANCH_DIRECT_CALL: 0
BRANCH_INDIRECT_CALL: 0
BRANCH_RETURN: 0

cpu0->cpu0_STLB TOTAL        ACCESS:    1906278 HIT:    1906278 MISS:          0 MSHR_MERGE:          0
cpu0->cpu0_STLB LOAD         ACCESS:    1906278 HIT:    1906278 MISS:          0 MSHR_MERGE:          0
cpu0->cpu0_STLB RFO          ACCESS:          0 HIT:          0 MISS:          0 MSHR_MERGE:          0
cpu0->cpu0_STLB PREFETCH     ACCESS:          0 HIT:          0 MISS:          0 MSHR_MERGE:          0
cpu0->cpu0_STLB WRITE        ACCESS:          0 HIT:          0 MISS:          0 MSHR_MERGE:          0
cpu0->cpu0_STLB TRANSLATION  ACCESS:          0 HIT:          0 MISS:          0 MSHR_MERGE:          0
cpu0->cpu0_STLB PREFETCH REQUESTED:          0 ISSUED:          0 USEFUL:          0 USELESS:          0 LATE:          0
cpu0->cpu0_STLB AVERAGE MISS LATENCY: - cycles
cpu0->cpu0_L2C TOTAL        ACCESS:    3527576 HIT:     727627 MISS:    2799949 MSHR_MERGE:       3039
cpu0->cpu0_L2C LOAD         ACCESS:    2918063 HIT:     232078 MISS:    2685985 MSHR_MERGE:         61
cpu0->cpu0_L2C RFO          ACCESS:       4514 HIT:       4366 MISS:        148 MSHR_MERGE:          0
cpu0->cpu0_L2C PREFETCH     ACCESS:     598698 HIT:     484911 MISS:     113787 MSHR_MERGE:       2978
cpu0->cpu0_L2C WRITE        ACCESS:       6301 HIT:       6272 MISS:         29 MSHR_MERGE:          0
cpu0->cpu0_L2C TRANSLATION  ACCESS:          0 HIT:          0 MISS:          0 MSHR_MERGE:          0
cpu0->cpu0_L2C PREFETCH REQUESTED:     139357 ISSUED:     139357 USEFUL:       4689 USELESS:      81024 LATE:         61
cpu0->cpu0_L2C AVERAGE MISS LATENCY: 174.1 cycles
cpu0->cpu0_L1I TOTAL        ACCESS:      11038 HIT:      11037 MISS:          1 MSHR_MERGE:          0
cpu0->cpu0_L1I LOAD         ACCESS:      11038 HIT:      11037 MISS:          1 MSHR_MERGE:          0
cpu0->cpu0_L1I RFO          ACCESS:          0 HIT:          0 MISS:          0 MSHR_MERGE:          0
cpu0->cpu0_L1I PREFETCH     ACCESS:          0 HIT:          0 MISS:          0 MSHR_MERGE:          0
cpu0->cpu0_L1I WRITE        ACCESS:          0 HIT:          0 MISS:          0 MSHR_MERGE:          0
cpu0->cpu0_L1I TRANSLATION  ACCESS:          0 HIT:          0 MISS:          0 MSHR_MERGE:          0
cpu0->cpu0_L1I PREFETCH REQUESTED:          0 ISSUED:          0 USEFUL:          0 USELESS:          0 LATE:          0
cpu0->cpu0_L1I AVERAGE MISS LATENCY: 224 cycles
cpu0->cpu0_L1D TOTAL        ACCESS:    6907018 HIT:    3460008 MISS:    3447010 MSHR_MERGE:      65073
cpu0->cpu0_L1D LOAD         ACCESS:    4818444 HIT:    1847621 MISS:    2970823 MSHR_MERGE:      52761
cpu0->cpu0_L1D RFO          ACCESS:          0 HIT:          0 MISS:          0 MSHR_MERGE:          0
cpu0->cpu0_L1D PREFETCH     ACCESS:    1140480 HIT:     681139 MISS:     459341 MSHR_MERGE:          0
cpu0->cpu0_L1D WRITE        ACCESS:     948094 HIT:     931248 MISS:      16846 MSHR_MERGE:      12312
cpu0->cpu0_L1D TRANSLATION  ACCESS:          0 HIT:          0 MISS:          0 MSHR_MERGE:          0
cpu0->cpu0_L1D PREFETCH REQUESTED:    1291615 ISSUED:    1140480 USEFUL:      22309 USELESS:      20266 LATE:          0
cpu0->cpu0_L1D AVERAGE MISS LATENCY: 169 cycles
cpu0->cpu0_ITLB TOTAL        ACCESS:       8946 HIT:       8946 MISS:          0 MSHR_MERGE:          0
cpu0->cpu0_ITLB LOAD         ACCESS:       8946 HIT:       8946 MISS:          0 MSHR_MERGE:          0
cpu0->cpu0_ITLB RFO          ACCESS:          0 HIT:          0 MISS:          0 MSHR_MERGE:          0
cpu0->cpu0_ITLB PREFETCH     ACCESS:          0 HIT:          0 MISS:          0 MSHR_MERGE:          0
cpu0->cpu0_ITLB WRITE        ACCESS:          0 HIT:          0 MISS:          0 MSHR_MERGE:          0
cpu0->cpu0_ITLB TRANSLATION  ACCESS:          0 HIT:          0 MISS:          0 MSHR_MERGE:          0
cpu0->cpu0_ITLB PREFETCH REQUESTED:          0 ISSUED:          0 USEFUL:          0 USELESS:          0 LATE:          0
cpu0->cpu0_ITLB AVERAGE MISS LATENCY: - cycles
cpu0->cpu0_DTLB TOTAL        ACCESS:    6572627 HIT:    4592537 MISS:    1980090 MSHR_MERGE:      73812
cpu0->cpu0_DTLB LOAD         ACCESS:    6572627 HIT:    4592537 MISS:    1980090 MSHR_MERGE:      73812
cpu0->cpu0_DTLB RFO          ACCESS:          0 HIT:          0 MISS:          0 MSHR_MERGE:          0
cpu0->cpu0_DTLB PREFETCH     ACCESS:          0 HIT:          0 MISS:          0 MSHR_MERGE:          0
cpu0->cpu0_DTLB WRITE        ACCESS:          0 HIT:          0 MISS:          0 MSHR_MERGE:          0
cpu0->cpu0_DTLB TRANSLATION  ACCESS:          0 HIT:          0 MISS:          0 MSHR_MERGE:          0
cpu0->cpu0_DTLB PREFETCH REQUESTED:          0 ISSUED:          0 USEFUL:          0 USELESS:          0 LATE:          0
cpu0->cpu0_DTLB AVERAGE MISS LATENCY: 5.005 cycles
cpu0->LLC TOTAL        ACCESS:    2797767 HIT:     631470 MISS:    2166297 MSHR_MERGE:          0
cpu0->LLC LOAD         ACCESS:    2685924 HIT:     604272 MISS:    2081652 MSHR_MERGE:          0
cpu0->LLC RFO          ACCESS:        148 HIT:        148 MISS:          0 MSHR_MERGE:          0
cpu0->LLC PREFETCH     ACCESS:     110809 HIT:      26167 MISS:      84642 MSHR_MERGE:          0
cpu0->LLC WRITE        ACCESS:        886 HIT:        883 MISS:          3 MSHR_MERGE:          0
cpu0->LLC TRANSLATION  ACCESS:          0 HIT:          0 MISS:          0 MSHR_MERGE:          0
cpu0->LLC PREFETCH REQUESTED:          0 ISSUED:          0 USEFUL:          0 USELESS:          0 LATE:          0
cpu0->LLC AVERAGE MISS LATENCY: 204.3 cycles

DRAM Statistics

Channel 0 RQ ROW_BUFFER_HIT:      29037
  ROW_BUFFER_MISS:    2137256
  AVG DBUS CONGESTED CYCLE: 2.963
Channel 0 WQ ROW_BUFFER_HIT:          0
  ROW_BUFFER_MISS:          2
  FULL:          0
Channel 0 REFRESHES ISSUED:      20962

[ROI Statistics]
[System Configuration]
num_cpus 1
cpu_freq 4000
fetch_width 6
decode_width 6
dispatch_width 6
execute_width 6
lq_width 2
sq_width 2
retire_width 6
scheduler_size 128
branch_mispredict_penalty 15
rob_size 352
lq_size 128
sq_size 72
ifetch_buffer_size 64
decode_buffer_size 32
dispatch_buffer_size 32
register_file_size 288
decode_latency 1
dispatch_latency 1
schedule_latency 1
execute_latency 1
page_size 4096
block_size 64
core_0_itlb_set 16
core_0_itlb_way 4
core_0_itlb_rq_size 16
core_0_itlb_wq_size 16
core_0_itlb_pq_size 0
core_0_itlb_mshr_size 8
core_0_itlb_hit_latency 1
core_0_itlb_fill_latency 1
core_0_itlb_max_tag_check 2
core_0_itlb_max_fill 2
core_0_dtlb_set 16
core_0_dtlb_way 4
core_0_dtlb_rq_size 16
core_0_dtlb_wq_size 16
core_0_dtlb_pq_size 0
core_0_dtlb_mshr_size 8
core_0_dtlb_hit_latency 1
core_0_dtlb_fill_latency 1
core_0_dtlb_max_tag_check 2
core_0_dtlb_max_fill 2
core_0_stlb_set 128
core_0_stlb_way 12
core_0_stlb_rq_size 32
core_0_stlb_wq_size 32
core_0_stlb_pq_size 0
core_0_stlb_mshr_size 16
core_0_stlb_hit_latency 4
core_0_stlb_fill_latency 4
core_0_stlb_max_tag_check 1
core_0_stlb_max_fill 1
core_0_l1i_set 64
core_0_l1i_way 8
core_0_l1i_rq_size 64
core_0_l1i_wq_size 64
core_0_l1i_pq_size 32
core_0_l1i_mshr_size 8
core_0_l1i_hit_latency 2
core_0_l1i_fill_latency 2
core_0_l1i_max_tag_check 2
core_0_l1i_max_fill 2
core_0_l1d_set 64
core_0_l1d_way 12
core_0_l1d_rq_size 64
core_0_l1d_wq_size 64
core_0_l1d_pq_size 8
core_0_l1d_mshr_size 16
core_0_l1d_hit_latency 2
core_0_l1d_fill_latency 3
core_0_l1d_max_tag_check 2
core_0_l1d_max_fill 2
core_0_l2c_set 1024
core_0_l2c_way 8
core_0_l2c_rq_size 32
core_0_l2c_wq_size 32
core_0_l2c_pq_size 16
core_0_l2c_mshr_size 32
core_0_l2c_hit_latency 5
core_0_l2c_fill_latency 5
core_0_l2c_max_tag_check 1
core_0_l2c_max_fill 1
llc_set 2048
llc_way 16
llc_rq_size 32
llc_wq_size 32
llc_pq_size 32
llc_mshr_size 64
llc_hit_latency 10
llc_fill_latency 10
llc_max_tag_check 1
llc_max_fill 1
dram_channels 1
dram_ranks 1
dram_bankgroups 8
dram_banks 4
dram_rows 65536
dram_columns 1024
dram_channel_width 8
dram_rq_size 64
dram_wq_size 64
dram_size 17179869184
core_0_itlb_prefetcher no
core_0_dtlb_prefetcher no
core_0_stlb_prefetcher no
core_0_l1i_prefetcher next_line
core_0_l1d_prefetcher vberti
core_0_l2c_prefetcher ip_stride
llc_prefetcher no
llc_replacement drrip

Core_0_instructions 50000002
Core_0_cycles 251543307
Core_0_IPC 0.198773
Core_0_branch_prediction_accuracy 87.255
Core_0_branch_MPKI 21.3322
Core_0_average_ROB_occupancy_at_mispredict 26.6696

Core_0_ITLB_total_access 8946
Core_0_ITLB_total_hit 8946
Core_0_ITLB_total_miss 0
Core_0_ITLB_total_MPKI 0
Core_0_ITLB_total_miss_rate 0
Core_0_ITLB_demand_access 8946
Core_0_ITLB_demand_hit 8946
Core_0_ITLB_demand_miss 0
Core_0_ITLB_demand_MPKI 0
Core_0_ITLB_demand_miss_rate 0
Core_0_ITLB_load_access 8946
Core_0_ITLB_load_hit 8946
Core_0_ITLB_load_miss 0
Core_0_ITLB_load_MPKI 0
Core_0_ITLB_load_miss_rate 0
Core_0_ITLB_rfo_access 0
Core_0_ITLB_rfo_hit 0
Core_0_ITLB_rfo_miss 0
Core_0_ITLB_rfo_MPKI 0
Core_0_ITLB_rfo_miss_rate 0
Core_0_ITLB_prefetch_access 0
Core_0_ITLB_prefetch_hit 0
Core_0_ITLB_prefetch_miss 0
Core_0_ITLB_prefetch_MPKI 0
Core_0_ITLB_prefetch_miss_rate 0
Core_0_ITLB_writeback_access 0
Core_0_ITLB_writeback_hit 0
Core_0_ITLB_writeback_miss 0
Core_0_ITLB_writeback_MPKI 0
Core_0_ITLB_writeback_miss_rate 0
Core_0_ITLB_prefetch_requested 0
Core_0_ITLB_prefetch_issued 0
Core_0_ITLB_prefetch_useful 0
Core_0_ITLB_prefetch_useless 0
Core_0_ITLB_prefetch_late 0
Core_0_ITLB_prefetch_accuracy 0
Core_0_ITLB_prefetch_coverage 0
Core_0_ITLB_total_eviction 0

Core_0_DTLB_total_access 6572627
Core_0_DTLB_total_hit 4592537
Core_0_DTLB_total_miss 1980090
Core_0_DTLB_total_MPKI 39.6018
Core_0_DTLB_total_miss_rate 0.301263
Core_0_DTLB_demand_access 6572627
Core_0_DTLB_demand_hit 4592537
Core_0_DTLB_demand_miss 1980090
Core_0_DTLB_demand_MPKI 39.6018
Core_0_DTLB_demand_miss_rate 0.301263
Core_0_DTLB_load_access 6572627
Core_0_DTLB_load_hit 4592537
Core_0_DTLB_load_miss 1980090
Core_0_DTLB_load_MPKI 39.6018
Core_0_DTLB_load_miss_rate 0.301263
Core_0_DTLB_rfo_access 0
Core_0_DTLB_rfo_hit 0
Core_0_DTLB_rfo_miss 0
Core_0_DTLB_rfo_MPKI 0
Core_0_DTLB_rfo_miss_rate 0
Core_0_DTLB_prefetch_access 0
Core_0_DTLB_prefetch_hit 0
Core_0_DTLB_prefetch_miss 0
Core_0_DTLB_prefetch_MPKI 0
Core_0_DTLB_prefetch_miss_rate 0
Core_0_DTLB_writeback_access 0
Core_0_DTLB_writeback_hit 0
Core_0_DTLB_writeback_miss 0
Core_0_DTLB_writeback_MPKI 0
Core_0_DTLB_writeback_miss_rate 0
Core_0_DTLB_prefetch_requested 0
Core_0_DTLB_prefetch_issued 0
Core_0_DTLB_prefetch_useful 0
Core_0_DTLB_prefetch_useless 0
Core_0_DTLB_prefetch_late 0
Core_0_DTLB_prefetch_accuracy 0
Core_0_DTLB_prefetch_coverage 0
Core_0_DTLB_total_eviction 1906278

Core_0_STLB_total_access 1906278
Core_0_STLB_total_hit 1906278
Core_0_STLB_total_miss 0
Core_0_STLB_total_MPKI 0
Core_0_STLB_total_miss_rate 0
Core_0_STLB_demand_access 1906278
Core_0_STLB_demand_hit 1906278
Core_0_STLB_demand_miss 0
Core_0_STLB_demand_MPKI 0
Core_0_STLB_demand_miss_rate 0
Core_0_STLB_load_access 1906278
Core_0_STLB_load_hit 1906278
Core_0_STLB_load_miss 0
Core_0_STLB_load_MPKI 0
Core_0_STLB_load_miss_rate 0
Core_0_STLB_rfo_access 0
Core_0_STLB_rfo_hit 0
Core_0_STLB_rfo_miss 0
Core_0_STLB_rfo_MPKI 0
Core_0_STLB_rfo_miss_rate 0
Core_0_STLB_prefetch_access 0
Core_0_STLB_prefetch_hit 0
Core_0_STLB_prefetch_miss 0
Core_0_STLB_prefetch_MPKI 0
Core_0_STLB_prefetch_miss_rate 0
Core_0_STLB_writeback_access 0
Core_0_STLB_writeback_hit 0
Core_0_STLB_writeback_miss 0
Core_0_STLB_writeback_MPKI 0
Core_0_STLB_writeback_miss_rate 0
Core_0_STLB_prefetch_requested 0
Core_0_STLB_prefetch_issued 0
Core_0_STLB_prefetch_useful 0
Core_0_STLB_prefetch_useless 0
Core_0_STLB_prefetch_late 0
Core_0_STLB_prefetch_accuracy 0
Core_0_STLB_prefetch_coverage 0
Core_0_STLB_total_eviction 1830630

Core_0_L1I_total_access 11038
Core_0_L1I_total_hit 11037
Core_0_L1I_total_miss 1
Core_0_L1I_total_MPKI 2e-05
Core_0_L1I_total_miss_rate 9.05961e-05
Core_0_L1I_demand_access 11038
Core_0_L1I_demand_hit 11037
Core_0_L1I_demand_miss 1
Core_0_L1I_demand_MPKI 2e-05
Core_0_L1I_demand_miss_rate 9.05961e-05
Core_0_L1I_load_access 11038
Core_0_L1I_load_hit 11037
Core_0_L1I_load_miss 1
Core_0_L1I_load_MPKI 2e-05
Core_0_L1I_load_miss_rate 9.05961e-05
Core_0_L1I_rfo_access 0
Core_0_L1I_rfo_hit 0
Core_0_L1I_rfo_miss 0
Core_0_L1I_rfo_MPKI 0
Core_0_L1I_rfo_miss_rate 0
Core_0_L1I_prefetch_access 0
Core_0_L1I_prefetch_hit 0
Core_0_L1I_prefetch_miss 0
Core_0_L1I_prefetch_MPKI 0
Core_0_L1I_prefetch_miss_rate 0
Core_0_L1I_writeback_access 0
Core_0_L1I_writeback_hit 0
Core_0_L1I_writeback_miss 0
Core_0_L1I_writeback_MPKI 0
Core_0_L1I_writeback_miss_rate 0
Core_0_L1I_prefetch_requested 0
Core_0_L1I_prefetch_issued 0
Core_0_L1I_prefetch_useful 0
Core_0_L1I_prefetch_useless 0
Core_0_L1I_prefetch_late 0
Core_0_L1I_prefetch_accuracy 0
Core_0_L1I_prefetch_coverage 0
Core_0_L1I_total_eviction 0

Core_0_L1D_total_access 6907018
Core_0_L1D_total_hit 3460008
Core_0_L1D_total_miss 3447010
Core_0_L1D_total_MPKI 68.9402
Core_0_L1D_total_miss_rate 0.499059
Core_0_L1D_demand_access 4818444
Core_0_L1D_demand_hit 1847621
Core_0_L1D_demand_miss 2970823
Core_0_L1D_demand_MPKI 59.4165
Core_0_L1D_demand_miss_rate 0.616552
Core_0_L1D_load_access 4818444
Core_0_L1D_load_hit 1847621
Core_0_L1D_load_miss 2970823
Core_0_L1D_load_MPKI 59.4165
Core_0_L1D_load_miss_rate 0.616552
Core_0_L1D_rfo_access 0
Core_0_L1D_rfo_hit 0
Core_0_L1D_rfo_miss 0
Core_0_L1D_rfo_MPKI 0
Core_0_L1D_rfo_miss_rate 0
Core_0_L1D_prefetch_access 1140480
Core_0_L1D_prefetch_hit 681139
Core_0_L1D_prefetch_miss 459341
Core_0_L1D_prefetch_MPKI 9.18682
Core_0_L1D_prefetch_miss_rate 0.402761
Core_0_L1D_writeback_access 948094
Core_0_L1D_writeback_hit 931248
Core_0_L1D_writeback_miss 16846
Core_0_L1D_writeback_MPKI 0.33692
Core_0_L1D_writeback_miss_rate 0.0177683
Core_0_L1D_prefetch_requested 1291615
Core_0_L1D_prefetch_issued 1140480
Core_0_L1D_prefetch_useful 22309
Core_0_L1D_prefetch_useless 20266
Core_0_L1D_prefetch_late 0
Core_0_L1D_prefetch_accuracy 0.0195611
Core_0_L1D_prefetch_coverage 0.0074534
Core_0_L1D_total_eviction 2965171

Core_0_L2C_total_access 3527576
Core_0_L2C_total_hit 727627
Core_0_L2C_total_miss 2799949
Core_0_L2C_total_MPKI 55.999
Core_0_L2C_total_miss_rate 0.793732
Core_0_L2C_demand_access 2922577
Core_0_L2C_demand_hit 236444
Core_0_L2C_demand_miss 2686133
Core_0_L2C_demand_MPKI 53.7227
Core_0_L2C_demand_miss_rate 0.919097
Core_0_L2C_load_access 2918063
Core_0_L2C_load_hit 232078
Core_0_L2C_load_miss 2685985
Core_0_L2C_load_MPKI 53.7197
Core_0_L2C_load_miss_rate 0.920468
Core_0_L2C_rfo_access 4514
Core_0_L2C_rfo_hit 4366
Core_0_L2C_rfo_miss 148
Core_0_L2C_rfo_MPKI 0.00296
Core_0_L2C_rfo_miss_rate 0.0327869
Core_0_L2C_prefetch_access 598698
Core_0_L2C_prefetch_hit 484911
Core_0_L2C_prefetch_miss 113787
Core_0_L2C_prefetch_MPKI 2.27574
Core_0_L2C_prefetch_miss_rate 0.190057
Core_0_L2C_writeback_access 6301
Core_0_L2C_writeback_hit 6272
Core_0_L2C_writeback_miss 29
Core_0_L2C_writeback_MPKI 0.00058
Core_0_L2C_writeback_miss_rate 0.00460244
Core_0_L2C_prefetch_requested 139357
Core_0_L2C_prefetch_issued 139357
Core_0_L2C_prefetch_useful 4689
Core_0_L2C_prefetch_useless 81024
Core_0_L2C_prefetch_late 61
Core_0_L2C_prefetch_accuracy 0.0336474
Core_0_L2C_prefetch_coverage 0.00174259
Core_0_L2C_total_eviction 2796907

Core_0_LLC_total_access 2797767
Core_0_LLC_total_hit 631470
Core_0_LLC_total_miss 2166297
Core_0_LLC_total_MPKI 43.3259
Core_0_LLC_total_miss_rate 0.774295
Core_0_LLC_demand_access 2686072
Core_0_LLC_demand_hit 604420
Core_0_LLC_demand_miss 2081652
Core_0_LLC_demand_MPKI 41.633
Core_0_LLC_demand_miss_rate 0.77498
Core_0_LLC_load_access 2685924
Core_0_LLC_load_hit 604272
Core_0_LLC_load_miss 2081652
Core_0_LLC_load_MPKI 41.633
Core_0_LLC_load_miss_rate 0.775023
Core_0_LLC_rfo_access 148
Core_0_LLC_rfo_hit 148
Core_0_LLC_rfo_miss 0
Core_0_LLC_rfo_MPKI 0
Core_0_LLC_rfo_miss_rate 0
Core_0_LLC_prefetch_access 110809
Core_0_LLC_prefetch_hit 26167
Core_0_LLC_prefetch_miss 84642
Core_0_LLC_prefetch_MPKI 1.69284
Core_0_LLC_prefetch_miss_rate 0.763855
Core_0_LLC_writeback_access 886
Core_0_LLC_writeback_hit 883
Core_0_LLC_writeback_miss 3
Core_0_LLC_writeback_MPKI 6e-05
Core_0_LLC_writeback_miss_rate 0.003386
Core_0_LLC_prefetch_requested 0
Core_0_LLC_prefetch_issued 0
Core_0_LLC_prefetch_useful 0
Core_0_LLC_prefetch_useless 0
Core_0_LLC_prefetch_late 0
Core_0_LLC_prefetch_accuracy 0
Core_0_LLC_prefetch_coverage 0
Core_0_LLC_total_eviction 2166295

[DRAM Statistics]
Channel_0_RQ_row_buffer_hit 29037
Channel_0_RQ_row_buffer_miss 2137256
Channel_0_WQ_row_buffer_hit 0
Channel_0_WQ_row_buffer_miss 2
Channel_0_WQ_full 0
Channel_0_dbus_congested 2805731
DRAM_total_RQ_row_buffer_hit 29037
DRAM_total_RQ_row_buffer_miss 2137256
DRAM_total_WQ_row_buffer_hit 0
DRAM_total_WQ_row_buffer_miss 2
DRAM_total_WQ_full 0
DRAM_total_dbus_congested 2805731
DRAM_avg_congested_cycle 2.96269

======STLB miss causes ========
Core_0_STLB_miss_cause_breakdown
Core_0_STLB_cause_Demand_Data_miss 0
Core_0_STLB_cause_Demand_Data_miss_rate 0
Core_0_STLB_cause_Demand_Instruction_miss 0
Core_0_STLB_cause_Demand_Instruction_miss_rate 0
Core_0_STLB_cause_L1D_Prefetch_miss 0
Core_0_STLB_cause_L1D_Prefetch_miss_rate 0
Core_0_STLB_cause_L1I_Prefetch_miss 0
Core_0_STLB_cause_L1I_Prefetch_miss_rate 0
Core_0_STLB_cause_Other_miss 0
Core_0_STLB_cause_Other_miss_rate 0
Core_0_STLB_Demand_miss 0
Core_0_STLB_Demand_miss_rate 0
Core_0_STLB_L1D_Prefetch_miss 0
Core_0_STLB_L1D_Prefetch_miss_rate 0
Core_0_STLB_Other_miss 0
Core_0_STLB_Other_miss_rate 0
BERTI TO_L1: 1239907 TO_L2: 955478 TO_L2_BC_MSHR: 0
BERTI AVG_LAT: 121.396 NUM_TRACK_LATENCY: 4146274 NUM_CANT_TRACK_LATENCY: 0
BERTI CROSS_PAGE 229667 NO_CROSS_PAGE: 1965718
BERTI FOUND_BERTI: 5413172 NO_FOUND_BERTI: 2637530
BERTI AVERAGE_ISSUED: 3.55755
