[VMEM] WARNING: physical memory size is smaller than virtual memory size.

*** ChampSim Multicore Out-of-Order Simulator ***
Warmup Instructions: 20000000
Simulation Instructions: 50000000
Number of CPUs: 1
Page size: 4096
STLB ideal mode: all
STLB ideal fill: on
Core 0: /data2/zcq/champsim_traces_xsbench/xs.XL100nuclide-296B.champsimtrace.xz
VBerti Prefetcher
BERTI HASH ENTANGLING
BERTI IP MASK ffff
Off-chip DRAM Size: 16 GiB Channels: 1 Width: 64-bit Data Rate: 3205 MT/s
Warmup halting CPU 0 at instruction 20000001 cycle 4202700 for remainder of phase
Warmup finished CPU 0 instructions: 20000001 cycles: 4202700 cumulative IPC: 4.759 (Simulation time: 00 hr 00 min 53 sec)
Warmup complete CPU 0 instructions: 20000001 cycles: 4202700 cumulative IPC: 4.759 (Simulation time: 00 hr 00 min 53 sec)
Simulation finished CPU 0 instructions: 50000002 cycles: 253877412 cumulative IPC: 0.1969 (Simulation time: 00 hr 15 min 38 sec)
Simulation complete CPU 0 instructions: 50000002 cycles: 253877412 cumulative IPC: 0.1969 (Simulation time: 00 hr 15 min 38 sec)

ChampSim completed all CPUs

=== Simulation ===
CPU 0 runs /data2/zcq/champsim_traces_xsbench/xs.XL100nuclide-296B.champsimtrace.xz

Region of Interest Statistics

CPU 0 cumulative IPC: 0.1969 instructions: 50000002 cycles: 253877412
CPU 0 Branch Prediction Accuracy: 87.17% MPKI: 21.47 Average ROB Occupancy at Mispredict: 26.35
Branch type MPKI
BRANCH_DIRECT_JUMP: 0
BRANCH_INDIRECT: 0
BRANCH_CONDITIONAL: 21.47
BRANCH_DIRECT_CALL: 0
BRANCH_INDIRECT_CALL: 0
BRANCH_RETURN: 0

cpu0->cpu0_STLB TOTAL        ACCESS:    1900722 HIT:    1900722 MISS:          0 MSHR_MERGE:          0
cpu0->cpu0_STLB LOAD         ACCESS:    1900722 HIT:    1900722 MISS:          0 MSHR_MERGE:          0
cpu0->cpu0_STLB RFO          ACCESS:          0 HIT:          0 MISS:          0 MSHR_MERGE:          0
cpu0->cpu0_STLB PREFETCH     ACCESS:          0 HIT:          0 MISS:          0 MSHR_MERGE:          0
cpu0->cpu0_STLB WRITE        ACCESS:          0 HIT:          0 MISS:          0 MSHR_MERGE:          0
cpu0->cpu0_STLB TRANSLATION  ACCESS:          0 HIT:          0 MISS:          0 MSHR_MERGE:          0
cpu0->cpu0_STLB PREFETCH REQUESTED:          0 ISSUED:          0 USEFUL:          0 USELESS:          0 LATE:          0
cpu0->cpu0_STLB AVERAGE MISS LATENCY: - cycles
cpu0->cpu0_L2C TOTAL        ACCESS:    3515722 HIT:     713738 MISS:    2801984 MSHR_MERGE:       3098
cpu0->cpu0_L2C LOAD         ACCESS:    2919452 HIT:     230549 MISS:    2688903 MSHR_MERGE:         74
cpu0->cpu0_L2C RFO          ACCESS:       7111 HIT:       6793 MISS:        318 MSHR_MERGE:          0
cpu0->cpu0_L2C PREFETCH     ACCESS:     580657 HIT:     467913 MISS:     112744 MSHR_MERGE:       3024
cpu0->cpu0_L2C WRITE        ACCESS:       8502 HIT:       8483 MISS:         19 MSHR_MERGE:          0
cpu0->cpu0_L2C TRANSLATION  ACCESS:          0 HIT:          0 MISS:          0 MSHR_MERGE:          0
cpu0->cpu0_L2C PREFETCH REQUESTED:     135408 ISSUED:     135408 USEFUL:       4637 USELESS:      80867 LATE:         74
cpu0->cpu0_L2C AVERAGE MISS LATENCY: 174.6 cycles
cpu0->cpu0_L1I TOTAL        ACCESS:      11459 HIT:      11459 MISS:          0 MSHR_MERGE:          0
cpu0->cpu0_L1I LOAD         ACCESS:      11459 HIT:      11459 MISS:          0 MSHR_MERGE:          0
cpu0->cpu0_L1I RFO          ACCESS:          0 HIT:          0 MISS:          0 MSHR_MERGE:          0
cpu0->cpu0_L1I PREFETCH     ACCESS:          0 HIT:          0 MISS:          0 MSHR_MERGE:          0
cpu0->cpu0_L1I WRITE        ACCESS:          0 HIT:          0 MISS:          0 MSHR_MERGE:          0
cpu0->cpu0_L1I TRANSLATION  ACCESS:          0 HIT:          0 MISS:          0 MSHR_MERGE:          0
cpu0->cpu0_L1I PREFETCH REQUESTED:          0 ISSUED:          0 USEFUL:          0 USELESS:          0 LATE:          0
cpu0->cpu0_L1I AVERAGE MISS LATENCY: - cycles
cpu0->cpu0_L1D TOTAL        ACCESS:    6914609 HIT:    3479391 MISS:    3435218 MSHR_MERGE:      63373
cpu0->cpu0_L1D LOAD         ACCESS:    4816817 HIT:    1845551 MISS:    2971266 MSHR_MERGE:      51815
cpu0->cpu0_L1D RFO          ACCESS:          0 HIT:          0 MISS:          0 MSHR_MERGE:          0
cpu0->cpu0_L1D PREFETCH     ACCESS:    1150662 HIT:     705414 MISS:     445248 MSHR_MERGE:          0
cpu0->cpu0_L1D WRITE        ACCESS:     947130 HIT:     928426 MISS:      18704 MSHR_MERGE:      11558
cpu0->cpu0_L1D TRANSLATION  ACCESS:          0 HIT:          0 MISS:          0 MSHR_MERGE:          0
cpu0->cpu0_L1D PREFETCH REQUESTED:    1307616 ISSUED:    1150662 USEFUL:      22503 USELESS:      19415 LATE:          0
cpu0->cpu0_L1D AVERAGE MISS LATENCY: 169.4 cycles
cpu0->cpu0_ITLB TOTAL        ACCESS:       9267 HIT:       9267 MISS:          0 MSHR_MERGE:          0
cpu0->cpu0_ITLB LOAD         ACCESS:       9267 HIT:       9267 MISS:          0 MSHR_MERGE:          0
cpu0->cpu0_ITLB RFO          ACCESS:          0 HIT:          0 MISS:          0 MSHR_MERGE:          0
cpu0->cpu0_ITLB PREFETCH     ACCESS:          0 HIT:          0 MISS:          0 MSHR_MERGE:          0
cpu0->cpu0_ITLB WRITE        ACCESS:          0 HIT:          0 MISS:          0 MSHR_MERGE:          0
cpu0->cpu0_ITLB TRANSLATION  ACCESS:          0 HIT:          0 MISS:          0 MSHR_MERGE:          0
cpu0->cpu0_ITLB PREFETCH REQUESTED:          0 ISSUED:          0 USEFUL:          0 USELESS:          0 LATE:          0
cpu0->cpu0_ITLB AVERAGE MISS LATENCY: - cycles
cpu0->cpu0_DTLB TOTAL        ACCESS:    6581424 HIT:    4615492 MISS:    1965932 MSHR_MERGE:      65210
cpu0->cpu0_DTLB LOAD         ACCESS:    6581424 HIT:    4615492 MISS:    1965932 MSHR_MERGE:      65210
cpu0->cpu0_DTLB RFO          ACCESS:          0 HIT:          0 MISS:          0 MSHR_MERGE:          0
cpu0->cpu0_DTLB PREFETCH     ACCESS:          0 HIT:          0 MISS:          0 MSHR_MERGE:          0
cpu0->cpu0_DTLB WRITE        ACCESS:          0 HIT:          0 MISS:          0 MSHR_MERGE:          0
cpu0->cpu0_DTLB TRANSLATION  ACCESS:          0 HIT:          0 MISS:          0 MSHR_MERGE:          0
cpu0->cpu0_DTLB PREFETCH REQUESTED:          0 ISSUED:          0 USEFUL:          0 USELESS:          0 LATE:          0
cpu0->cpu0_DTLB AVERAGE MISS LATENCY: 5.004 cycles
cpu0->LLC TOTAL        ACCESS:    2799921 HIT:     621413 MISS:    2178508 MSHR_MERGE:          0
cpu0->LLC LOAD         ACCESS:    2688829 HIT:     595223 MISS:    2093606 MSHR_MERGE:          0
cpu0->LLC RFO          ACCESS:        318 HIT:        318 MISS:          0 MSHR_MERGE:          0
cpu0->LLC PREFETCH     ACCESS:     109720 HIT:      24827 MISS:      84893 MSHR_MERGE:          0
cpu0->LLC WRITE        ACCESS:       1054 HIT:       1045 MISS:          9 MSHR_MERGE:          0
cpu0->LLC TRANSLATION  ACCESS:          0 HIT:          0 MISS:          0 MSHR_MERGE:          0
cpu0->LLC PREFETCH REQUESTED:          0 ISSUED:          0 USEFUL:          0 USELESS:          0 LATE:          0
cpu0->LLC AVERAGE MISS LATENCY: 204.1 cycles

DRAM Statistics

Channel 0 RQ ROW_BUFFER_HIT:      29174
  ROW_BUFFER_MISS:    2149322
  AVG DBUS CONGESTED CYCLE: 2.964
Channel 0 WQ ROW_BUFFER_HIT:          2
  ROW_BUFFER_MISS:          8
  FULL:          0
Channel 0 REFRESHES ISSUED:      21156

[ROI Statistics]
[System Configuration]
num_cpus 1
cpu_freq 4000
fetch_width 6
decode_width 6
dispatch_width 6
execute_width 6
lq_width 2
sq_width 2
retire_width 6
scheduler_size 128
branch_mispredict_penalty 15
rob_size 352
lq_size 128
sq_size 72
ifetch_buffer_size 64
decode_buffer_size 32
dispatch_buffer_size 32
register_file_size 288
decode_latency 1
dispatch_latency 1
schedule_latency 1
execute_latency 1
page_size 4096
block_size 64
core_0_itlb_set 16
core_0_itlb_way 4
core_0_itlb_rq_size 16
core_0_itlb_wq_size 16
core_0_itlb_pq_size 0
core_0_itlb_mshr_size 8
core_0_itlb_hit_latency 1
core_0_itlb_fill_latency 1
core_0_itlb_max_tag_check 2
core_0_itlb_max_fill 2
core_0_dtlb_set 16
core_0_dtlb_way 4
core_0_dtlb_rq_size 16
core_0_dtlb_wq_size 16
core_0_dtlb_pq_size 0
core_0_dtlb_mshr_size 8
core_0_dtlb_hit_latency 1
core_0_dtlb_fill_latency 1
core_0_dtlb_max_tag_check 2
core_0_dtlb_max_fill 2
core_0_stlb_set 128
core_0_stlb_way 12
core_0_stlb_rq_size 32
core_0_stlb_wq_size 32
core_0_stlb_pq_size 0
core_0_stlb_mshr_size 16
core_0_stlb_hit_latency 4
core_0_stlb_fill_latency 4
core_0_stlb_max_tag_check 1
core_0_stlb_max_fill 1
core_0_l1i_set 64
core_0_l1i_way 8
core_0_l1i_rq_size 64
core_0_l1i_wq_size 64
core_0_l1i_pq_size 32
core_0_l1i_mshr_size 8
core_0_l1i_hit_latency 2
core_0_l1i_fill_latency 2
core_0_l1i_max_tag_check 2
core_0_l1i_max_fill 2
core_0_l1d_set 64
core_0_l1d_way 12
core_0_l1d_rq_size 64
core_0_l1d_wq_size 64
core_0_l1d_pq_size 8
core_0_l1d_mshr_size 16
core_0_l1d_hit_latency 2
core_0_l1d_fill_latency 3
core_0_l1d_max_tag_check 2
core_0_l1d_max_fill 2
core_0_l2c_set 1024
core_0_l2c_way 8
core_0_l2c_rq_size 32
core_0_l2c_wq_size 32
core_0_l2c_pq_size 16
core_0_l2c_mshr_size 32
core_0_l2c_hit_latency 5
core_0_l2c_fill_latency 5
core_0_l2c_max_tag_check 1
core_0_l2c_max_fill 1
llc_set 2048
llc_way 16
llc_rq_size 32
llc_wq_size 32
llc_pq_size 32
llc_mshr_size 64
llc_hit_latency 10
llc_fill_latency 10
llc_max_tag_check 1
llc_max_fill 1
dram_channels 1
dram_ranks 1
dram_bankgroups 8
dram_banks 4
dram_rows 65536
dram_columns 1024
dram_channel_width 8
dram_rq_size 64
dram_wq_size 64
dram_size 17179869184
core_0_itlb_prefetcher no
core_0_dtlb_prefetcher no
core_0_stlb_prefetcher no
core_0_l1i_prefetcher next_line
core_0_l1d_prefetcher vberti
core_0_l2c_prefetcher ip_stride
llc_prefetcher no
llc_replacement drrip

Core_0_instructions 50000002
Core_0_cycles 253877412
Core_0_IPC 0.196945
Core_0_branch_prediction_accuracy 87.1659
Core_0_branch_MPKI 21.4656
Core_0_average_ROB_occupancy_at_mispredict 26.3464

Core_0_ITLB_total_access 9267
Core_0_ITLB_total_hit 9267
Core_0_ITLB_total_miss 0
Core_0_ITLB_total_MPKI 0
Core_0_ITLB_total_miss_rate 0
Core_0_ITLB_demand_access 9267
Core_0_ITLB_demand_hit 9267
Core_0_ITLB_demand_miss 0
Core_0_ITLB_demand_MPKI 0
Core_0_ITLB_demand_miss_rate 0
Core_0_ITLB_load_access 9267
Core_0_ITLB_load_hit 9267
Core_0_ITLB_load_miss 0
Core_0_ITLB_load_MPKI 0
Core_0_ITLB_load_miss_rate 0
Core_0_ITLB_rfo_access 0
Core_0_ITLB_rfo_hit 0
Core_0_ITLB_rfo_miss 0
Core_0_ITLB_rfo_MPKI 0
Core_0_ITLB_rfo_miss_rate 0
Core_0_ITLB_prefetch_access 0
Core_0_ITLB_prefetch_hit 0
Core_0_ITLB_prefetch_miss 0
Core_0_ITLB_prefetch_MPKI 0
Core_0_ITLB_prefetch_miss_rate 0
Core_0_ITLB_writeback_access 0
Core_0_ITLB_writeback_hit 0
Core_0_ITLB_writeback_miss 0
Core_0_ITLB_writeback_MPKI 0
Core_0_ITLB_writeback_miss_rate 0
Core_0_ITLB_prefetch_requested 0
Core_0_ITLB_prefetch_issued 0
Core_0_ITLB_prefetch_useful 0
Core_0_ITLB_prefetch_useless 0
Core_0_ITLB_prefetch_late 0
Core_0_ITLB_prefetch_accuracy 0
Core_0_ITLB_prefetch_coverage 0
Core_0_ITLB_total_eviction 0

Core_0_DTLB_total_access 6581424
Core_0_DTLB_total_hit 4615492
Core_0_DTLB_total_miss 1965932
Core_0_DTLB_total_MPKI 39.3186
Core_0_DTLB_total_miss_rate 0.298709
Core_0_DTLB_demand_access 6581424
Core_0_DTLB_demand_hit 4615492
Core_0_DTLB_demand_miss 1965932
Core_0_DTLB_demand_MPKI 39.3186
Core_0_DTLB_demand_miss_rate 0.298709
Core_0_DTLB_load_access 6581424
Core_0_DTLB_load_hit 4615492
Core_0_DTLB_load_miss 1965932
Core_0_DTLB_load_MPKI 39.3186
Core_0_DTLB_load_miss_rate 0.298709
Core_0_DTLB_rfo_access 0
Core_0_DTLB_rfo_hit 0
Core_0_DTLB_rfo_miss 0
Core_0_DTLB_rfo_MPKI 0
Core_0_DTLB_rfo_miss_rate 0
Core_0_DTLB_prefetch_access 0
Core_0_DTLB_prefetch_hit 0
Core_0_DTLB_prefetch_miss 0
Core_0_DTLB_prefetch_MPKI 0
Core_0_DTLB_prefetch_miss_rate 0
Core_0_DTLB_writeback_access 0
Core_0_DTLB_writeback_hit 0
Core_0_DTLB_writeback_miss 0
Core_0_DTLB_writeback_MPKI 0
Core_0_DTLB_writeback_miss_rate 0
Core_0_DTLB_prefetch_requested 0
Core_0_DTLB_prefetch_issued 0
Core_0_DTLB_prefetch_useful 0
Core_0_DTLB_prefetch_useless 0
Core_0_DTLB_prefetch_late 0
Core_0_DTLB_prefetch_accuracy 0
Core_0_DTLB_prefetch_coverage 0
Core_0_DTLB_total_eviction 1900722

Core_0_STLB_total_access 1900722
Core_0_STLB_total_hit 1900722
Core_0_STLB_total_miss 0
Core_0_STLB_total_MPKI 0
Core_0_STLB_total_miss_rate 0
Core_0_STLB_demand_access 1900722
Core_0_STLB_demand_hit 1900722
Core_0_STLB_demand_miss 0
Core_0_STLB_demand_MPKI 0
Core_0_STLB_demand_miss_rate 0
Core_0_STLB_load_access 1900722
Core_0_STLB_load_hit 1900722
Core_0_STLB_load_miss 0
Core_0_STLB_load_MPKI 0
Core_0_STLB_load_miss_rate 0
Core_0_STLB_rfo_access 0
Core_0_STLB_rfo_hit 0
Core_0_STLB_rfo_miss 0
Core_0_STLB_rfo_MPKI 0
Core_0_STLB_rfo_miss_rate 0
Core_0_STLB_prefetch_access 0
Core_0_STLB_prefetch_hit 0
Core_0_STLB_prefetch_miss 0
Core_0_STLB_prefetch_MPKI 0
Core_0_STLB_prefetch_miss_rate 0
Core_0_STLB_writeback_access 0
Core_0_STLB_writeback_hit 0
Core_0_STLB_writeback_miss 0
Core_0_STLB_writeback_MPKI 0
Core_0_STLB_writeback_miss_rate 0
Core_0_STLB_prefetch_requested 0
Core_0_STLB_prefetch_issued 0
Core_0_STLB_prefetch_useful 0
Core_0_STLB_prefetch_useless 0
Core_0_STLB_prefetch_late 0
Core_0_STLB_prefetch_accuracy 0
Core_0_STLB_prefetch_coverage 0
Core_0_STLB_total_eviction 1833569

Core_0_L1I_total_access 11459
Core_0_L1I_total_hit 11459
Core_0_L1I_total_miss 0
Core_0_L1I_total_MPKI 0
Core_0_L1I_total_miss_rate 0
Core_0_L1I_demand_access 11459
Core_0_L1I_demand_hit 11459
Core_0_L1I_demand_miss 0
Core_0_L1I_demand_MPKI 0
Core_0_L1I_demand_miss_rate 0
Core_0_L1I_load_access 11459
Core_0_L1I_load_hit 11459
Core_0_L1I_load_miss 0
Core_0_L1I_load_MPKI 0
Core_0_L1I_load_miss_rate 0
Core_0_L1I_rfo_access 0
Core_0_L1I_rfo_hit 0
Core_0_L1I_rfo_miss 0
Core_0_L1I_rfo_MPKI 0
Core_0_L1I_rfo_miss_rate 0
Core_0_L1I_prefetch_access 0
Core_0_L1I_prefetch_hit 0
Core_0_L1I_prefetch_miss 0
Core_0_L1I_prefetch_MPKI 0
Core_0_L1I_prefetch_miss_rate 0
Core_0_L1I_writeback_access 0
Core_0_L1I_writeback_hit 0
Core_0_L1I_writeback_miss 0
Core_0_L1I_writeback_MPKI 0
Core_0_L1I_writeback_miss_rate 0
Core_0_L1I_prefetch_requested 0
Core_0_L1I_prefetch_issued 0
Core_0_L1I_prefetch_useful 0
Core_0_L1I_prefetch_useless 0
Core_0_L1I_prefetch_late 0
Core_0_L1I_prefetch_accuracy 0
Core_0_L1I_prefetch_coverage 0
Core_0_L1I_total_eviction 0

Core_0_L1D_total_access 6914609
Core_0_L1D_total_hit 3479391
Core_0_L1D_total_miss 3435218
Core_0_L1D_total_MPKI 68.7044
Core_0_L1D_total_miss_rate 0.496806
Core_0_L1D_demand_access 4816817
Core_0_L1D_demand_hit 1845551
Core_0_L1D_demand_miss 2971266
Core_0_L1D_demand_MPKI 59.4253
Core_0_L1D_demand_miss_rate 0.616853
Core_0_L1D_load_access 4816817
Core_0_L1D_load_hit 1845551
Core_0_L1D_load_miss 2971266
Core_0_L1D_load_MPKI 59.4253
Core_0_L1D_load_miss_rate 0.616853
Core_0_L1D_rfo_access 0
Core_0_L1D_rfo_hit 0
Core_0_L1D_rfo_miss 0
Core_0_L1D_rfo_MPKI 0
Core_0_L1D_rfo_miss_rate 0
Core_0_L1D_prefetch_access 1150662
Core_0_L1D_prefetch_hit 705414
Core_0_L1D_prefetch_miss 445248
Core_0_L1D_prefetch_MPKI 8.90496
Core_0_L1D_prefetch_miss_rate 0.386949
Core_0_L1D_writeback_access 947130
Core_0_L1D_writeback_hit 928426
Core_0_L1D_writeback_miss 18704
Core_0_L1D_writeback_MPKI 0.37408
Core_0_L1D_writeback_miss_rate 0.0197481
Core_0_L1D_prefetch_requested 1307616
Core_0_L1D_prefetch_issued 1150662
Core_0_L1D_prefetch_useful 22503
Core_0_L1D_prefetch_useless 19415
Core_0_L1D_prefetch_late 0
Core_0_L1D_prefetch_accuracy 0.0195566
Core_0_L1D_prefetch_coverage 0.00751661
Core_0_L1D_total_eviction 2968515

Core_0_L2C_total_access 3515722
Core_0_L2C_total_hit 713738
Core_0_L2C_total_miss 2801984
Core_0_L2C_total_MPKI 56.0397
Core_0_L2C_total_miss_rate 0.796987
Core_0_L2C_demand_access 2926563
Core_0_L2C_demand_hit 237342
Core_0_L2C_demand_miss 2689221
Core_0_L2C_demand_MPKI 53.7844
Core_0_L2C_demand_miss_rate 0.918901
Core_0_L2C_load_access 2919452
Core_0_L2C_load_hit 230549
Core_0_L2C_load_miss 2688903
Core_0_L2C_load_MPKI 53.7781
Core_0_L2C_load_miss_rate 0.92103
Core_0_L2C_rfo_access 7111
Core_0_L2C_rfo_hit 6793
Core_0_L2C_rfo_miss 318
Core_0_L2C_rfo_MPKI 0.00636
Core_0_L2C_rfo_miss_rate 0.0447194
Core_0_L2C_prefetch_access 580657
Core_0_L2C_prefetch_hit 467913
Core_0_L2C_prefetch_miss 112744
Core_0_L2C_prefetch_MPKI 2.25488
Core_0_L2C_prefetch_miss_rate 0.194166
Core_0_L2C_writeback_access 8502
Core_0_L2C_writeback_hit 8483
Core_0_L2C_writeback_miss 19
Core_0_L2C_writeback_MPKI 0.00038
Core_0_L2C_writeback_miss_rate 0.00223477
Core_0_L2C_prefetch_requested 135408
Core_0_L2C_prefetch_issued 135408
Core_0_L2C_prefetch_useful 4637
Core_0_L2C_prefetch_useless 80867
Core_0_L2C_prefetch_late 74
Core_0_L2C_prefetch_accuracy 0.0342447
Core_0_L2C_prefetch_coverage 0.00172132
Core_0_L2C_total_eviction 2798883

Core_0_LLC_total_access 2799921
Core_0_LLC_total_hit 621413
Core_0_LLC_total_miss 2178508
Core_0_LLC_total_MPKI 43.5702
Core_0_LLC_total_miss_rate 0.778061
Core_0_LLC_demand_access 2689147
Core_0_LLC_demand_hit 595541
Core_0_LLC_demand_miss 2093606
Core_0_LLC_demand_MPKI 41.8721
Core_0_LLC_demand_miss_rate 0.778539
Core_0_LLC_load_access 2688829
Core_0_LLC_load_hit 595223
Core_0_LLC_load_miss 2093606
Core_0_LLC_load_MPKI 41.8721
Core_0_LLC_load_miss_rate 0.778631
Core_0_LLC_rfo_access 318
Core_0_LLC_rfo_hit 318
Core_0_LLC_rfo_miss 0
Core_0_LLC_rfo_MPKI 0
Core_0_LLC_rfo_miss_rate 0
Core_0_LLC_prefetch_access 109720
Core_0_LLC_prefetch_hit 24827
Core_0_LLC_prefetch_miss 84893
Core_0_LLC_prefetch_MPKI 1.69786
Core_0_LLC_prefetch_miss_rate 0.773724
Core_0_LLC_writeback_access 1054
Core_0_LLC_writeback_hit 1045
Core_0_LLC_writeback_miss 9
Core_0_LLC_writeback_MPKI 0.00018
Core_0_LLC_writeback_miss_rate 0.0085389
Core_0_LLC_prefetch_requested 0
Core_0_LLC_prefetch_issued 0
Core_0_LLC_prefetch_useful 0
Core_0_LLC_prefetch_useless 0
Core_0_LLC_prefetch_late 0
Core_0_LLC_prefetch_accuracy 0
Core_0_LLC_prefetch_coverage 0
Core_0_LLC_total_eviction 2178505

[DRAM Statistics]
Channel_0_RQ_row_buffer_hit 29174
Channel_0_RQ_row_buffer_miss 2149322
Channel_0_WQ_row_buffer_hit 2
Channel_0_WQ_row_buffer_miss 8
Channel_0_WQ_full 0
Channel_0_dbus_congested 2804078
DRAM_total_RQ_row_buffer_hit 29174
DRAM_total_RQ_row_buffer_miss 2149322
DRAM_total_WQ_row_buffer_hit 2
DRAM_total_WQ_row_buffer_miss 8
DRAM_total_WQ_full 0
DRAM_total_dbus_congested 2804078
DRAM_avg_congested_cycle 2.96386

======STLB miss causes ========
Core_0_STLB_miss_cause_breakdown
Core_0_STLB_cause_Demand_Data_miss 0
Core_0_STLB_cause_Demand_Data_miss_rate 0
Core_0_STLB_cause_Demand_Instruction_miss 0
Core_0_STLB_cause_Demand_Instruction_miss_rate 0
Core_0_STLB_cause_L1D_Prefetch_miss 0
Core_0_STLB_cause_L1D_Prefetch_miss_rate 0
Core_0_STLB_cause_L1I_Prefetch_miss 0
Core_0_STLB_cause_L1I_Prefetch_miss_rate 0
Core_0_STLB_cause_Other_miss 0
Core_0_STLB_cause_Other_miss_rate 0
Core_0_STLB_Demand_miss 0
Core_0_STLB_Demand_miss_rate 0
Core_0_STLB_L1D_Prefetch_miss 0
Core_0_STLB_L1D_Prefetch_miss_rate 0
Core_0_STLB_Other_miss 0
Core_0_STLB_Other_miss_rate 0
BERTI TO_L1: 1275382 TO_L2: 959402 TO_L2_BC_MSHR: 0
BERTI AVG_LAT: 121.733 NUM_TRACK_LATENCY: 4148106 NUM_CANT_TRACK_LATENCY: 0
BERTI CROSS_PAGE 244203 NO_CROSS_PAGE: 1990581
BERTI FOUND_BERTI: 5633455 NO_FOUND_BERTI: 2411731
BERTI AVERAGE_ISSUED: 3.60145
