[VMEM] WARNING: physical memory size is smaller than virtual memory size.

*** ChampSim Multicore Out-of-Order Simulator ***
Warmup Instructions: 20000000
Simulation Instructions: 50000000
Number of CPUs: 1
Page size: 4096
STLB ideal mode: all
STLB ideal fill: on
Core 0: /data2/zcq/champsim_traces_xsbench/xs.XXL100nuclide-861B.champsimtrace.xz
VBerti Prefetcher
BERTI HASH ENTANGLING
BERTI IP MASK ffff
Off-chip DRAM Size: 16 GiB Channels: 1 Width: 64-bit Data Rate: 3205 MT/s
Warmup halting CPU 0 at instruction 20000001 cycle 4227585 for remainder of phase
Warmup finished CPU 0 instructions: 20000001 cycles: 4227585 cumulative IPC: 4.731 (Simulation time: 00 hr 00 min 58 sec)
Warmup complete CPU 0 instructions: 20000001 cycles: 4227585 cumulative IPC: 4.731 (Simulation time: 00 hr 00 min 58 sec)
Simulation finished CPU 0 instructions: 50000000 cycles: 258604932 cumulative IPC: 0.1933 (Simulation time: 00 hr 17 min 06 sec)
Simulation complete CPU 0 instructions: 50000000 cycles: 258604932 cumulative IPC: 0.1933 (Simulation time: 00 hr 17 min 06 sec)

ChampSim completed all CPUs

=== Simulation ===
CPU 0 runs /data2/zcq/champsim_traces_xsbench/xs.XXL100nuclide-861B.champsimtrace.xz

Region of Interest Statistics

CPU 0 cumulative IPC: 0.1933 instructions: 50000000 cycles: 258604932
CPU 0 Branch Prediction Accuracy: 87.31% MPKI: 21.41 Average ROB Occupancy at Mispredict: 26.45
Branch type MPKI
BRANCH_DIRECT_JUMP: 4e-05
BRANCH_INDIRECT: 0
BRANCH_CONDITIONAL: 21.41
BRANCH_DIRECT_CALL: 0
BRANCH_INDIRECT_CALL: 0
BRANCH_RETURN: 0

cpu0->cpu0_STLB TOTAL        ACCESS:    1992336 HIT:    1992336 MISS:          0 MSHR_MERGE:          0
cpu0->cpu0_STLB LOAD         ACCESS:    1992336 HIT:    1992336 MISS:          0 MSHR_MERGE:          0
cpu0->cpu0_STLB RFO          ACCESS:          0 HIT:          0 MISS:          0 MSHR_MERGE:          0
cpu0->cpu0_STLB PREFETCH     ACCESS:          0 HIT:          0 MISS:          0 MSHR_MERGE:          0
cpu0->cpu0_STLB WRITE        ACCESS:          0 HIT:          0 MISS:          0 MSHR_MERGE:          0
cpu0->cpu0_STLB TRANSLATION  ACCESS:          0 HIT:          0 MISS:          0 MSHR_MERGE:          0
cpu0->cpu0_STLB PREFETCH REQUESTED:          0 ISSUED:          0 USEFUL:          0 USELESS:          0 LATE:          0
cpu0->cpu0_STLB AVERAGE MISS LATENCY: - cycles
cpu0->cpu0_L2C TOTAL        ACCESS:    3526586 HIT:     661137 MISS:    2865449 MSHR_MERGE:       3261
cpu0->cpu0_L2C LOAD         ACCESS:    2970590 HIT:     202198 MISS:    2768392 MSHR_MERGE:          1
cpu0->cpu0_L2C RFO          ACCESS:       7047 HIT:       6988 MISS:         59 MSHR_MERGE:          0
cpu0->cpu0_L2C PREFETCH     ACCESS:     540421 HIT:     443444 MISS:      96977 MSHR_MERGE:       3260
cpu0->cpu0_L2C WRITE        ACCESS:       8528 HIT:       8507 MISS:         21 MSHR_MERGE:          0
cpu0->cpu0_L2C TRANSLATION  ACCESS:          0 HIT:          0 MISS:          0 MSHR_MERGE:          0
cpu0->cpu0_L2C PREFETCH REQUESTED:     129564 ISSUED:     129564 USEFUL:       2490 USELESS:      66554 LATE:          0
cpu0->cpu0_L2C AVERAGE MISS LATENCY: 178.6 cycles
cpu0->cpu0_L1I TOTAL        ACCESS:      10915 HIT:      10914 MISS:          1 MSHR_MERGE:          0
cpu0->cpu0_L1I LOAD         ACCESS:      10915 HIT:      10914 MISS:          1 MSHR_MERGE:          0
cpu0->cpu0_L1I RFO          ACCESS:          0 HIT:          0 MISS:          0 MSHR_MERGE:          0
cpu0->cpu0_L1I PREFETCH     ACCESS:          0 HIT:          0 MISS:          0 MSHR_MERGE:          0
cpu0->cpu0_L1I WRITE        ACCESS:          0 HIT:          0 MISS:          0 MSHR_MERGE:          0
cpu0->cpu0_L1I TRANSLATION  ACCESS:          0 HIT:          0 MISS:          0 MSHR_MERGE:          0
cpu0->cpu0_L1I PREFETCH REQUESTED:          0 ISSUED:          0 USEFUL:          0 USELESS:          0 LATE:          0
cpu0->cpu0_L1I AVERAGE MISS LATENCY: 226 cycles
cpu0->cpu0_L1D TOTAL        ACCESS:    6784219 HIT:    3336210 MISS:    3448009 MSHR_MERGE:      59507
cpu0->cpu0_L1D LOAD         ACCESS:    4780954 HIT:    1761593 MISS:    3019361 MSHR_MERGE:      48772
cpu0->cpu0_L1D RFO          ACCESS:          0 HIT:          0 MISS:          0 MSHR_MERGE:          0
cpu0->cpu0_L1D PREFETCH     ACCESS:    1098582 HIT:     687725 MISS:     410857 MSHR_MERGE:          0
cpu0->cpu0_L1D WRITE        ACCESS:     904683 HIT:     886892 MISS:      17791 MSHR_MERGE:      10735
cpu0->cpu0_L1D TRANSLATION  ACCESS:          0 HIT:          0 MISS:          0 MSHR_MERGE:          0
cpu0->cpu0_L1D PREFETCH REQUESTED:    1230724 ISSUED:    1098577 USEFUL:      21733 USELESS:      19827 LATE:          0
cpu0->cpu0_L1D AVERAGE MISS LATENCY: 175 cycles
cpu0->cpu0_ITLB TOTAL        ACCESS:       8820 HIT:       8820 MISS:          0 MSHR_MERGE:          0
cpu0->cpu0_ITLB LOAD         ACCESS:       8820 HIT:       8820 MISS:          0 MSHR_MERGE:          0
cpu0->cpu0_ITLB RFO          ACCESS:          0 HIT:          0 MISS:          0 MSHR_MERGE:          0
cpu0->cpu0_ITLB PREFETCH     ACCESS:          0 HIT:          0 MISS:          0 MSHR_MERGE:          0
cpu0->cpu0_ITLB WRITE        ACCESS:          0 HIT:          0 MISS:          0 MSHR_MERGE:          0
cpu0->cpu0_ITLB TRANSLATION  ACCESS:          0 HIT:          0 MISS:          0 MSHR_MERGE:          0
cpu0->cpu0_ITLB PREFETCH REQUESTED:          0 ISSUED:          0 USEFUL:          0 USELESS:          0 LATE:          0
cpu0->cpu0_ITLB AVERAGE MISS LATENCY: - cycles
cpu0->cpu0_DTLB TOTAL        ACCESS:    6465785 HIT:    4414256 MISS:    2051529 MSHR_MERGE:      59193
cpu0->cpu0_DTLB LOAD         ACCESS:    6465785 HIT:    4414256 MISS:    2051529 MSHR_MERGE:      59193
cpu0->cpu0_DTLB RFO          ACCESS:          0 HIT:          0 MISS:          0 MSHR_MERGE:          0
cpu0->cpu0_DTLB PREFETCH     ACCESS:          0 HIT:          0 MISS:          0 MSHR_MERGE:          0
cpu0->cpu0_DTLB WRITE        ACCESS:          0 HIT:          0 MISS:          0 MSHR_MERGE:          0
cpu0->cpu0_DTLB TRANSLATION  ACCESS:          0 HIT:          0 MISS:          0 MSHR_MERGE:          0
cpu0->cpu0_DTLB PREFETCH REQUESTED:          0 ISSUED:          0 USEFUL:          0 USELESS:          0 LATE:          0
cpu0->cpu0_DTLB AVERAGE MISS LATENCY: 5.004 cycles
cpu0->LLC TOTAL        ACCESS:    2862734 HIT:     610114 MISS:    2252620 MSHR_MERGE:          0
cpu0->LLC LOAD         ACCESS:    2768391 HIT:     583529 MISS:    2184862 MSHR_MERGE:          0
cpu0->LLC RFO          ACCESS:         59 HIT:         59 MISS:          0 MSHR_MERGE:          0
cpu0->LLC PREFETCH     ACCESS:      93717 HIT:      25963 MISS:      67754 MSHR_MERGE:          0
cpu0->LLC WRITE        ACCESS:        567 HIT:        563 MISS:          4 MSHR_MERGE:          0
cpu0->LLC TRANSLATION  ACCESS:          0 HIT:          0 MISS:          0 MSHR_MERGE:          0
cpu0->LLC PREFETCH REQUESTED:          0 ISSUED:          0 USEFUL:          0 USELESS:          0 LATE:          0
cpu0->LLC AVERAGE MISS LATENCY: 206.3 cycles

DRAM Statistics

Channel 0 RQ ROW_BUFFER_HIT:      14738
  ROW_BUFFER_MISS:    2237878
  AVG DBUS CONGESTED CYCLE: 2.972
Channel 0 WQ ROW_BUFFER_HIT:          0
  ROW_BUFFER_MISS:          5
  FULL:          0
Channel 0 REFRESHES ISSUED:      21550

[ROI Statistics]
[System Configuration]
num_cpus 1
cpu_freq 4000
fetch_width 6
decode_width 6
dispatch_width 6
execute_width 6
lq_width 2
sq_width 2
retire_width 6
scheduler_size 128
branch_mispredict_penalty 15
rob_size 352
lq_size 128
sq_size 72
ifetch_buffer_size 64
decode_buffer_size 32
dispatch_buffer_size 32
register_file_size 288
decode_latency 1
dispatch_latency 1
schedule_latency 1
execute_latency 1
page_size 4096
block_size 64
core_0_itlb_set 16
core_0_itlb_way 4
core_0_itlb_rq_size 16
core_0_itlb_wq_size 16
core_0_itlb_pq_size 0
core_0_itlb_mshr_size 8
core_0_itlb_hit_latency 1
core_0_itlb_fill_latency 1
core_0_itlb_max_tag_check 2
core_0_itlb_max_fill 2
core_0_dtlb_set 16
core_0_dtlb_way 4
core_0_dtlb_rq_size 16
core_0_dtlb_wq_size 16
core_0_dtlb_pq_size 0
core_0_dtlb_mshr_size 8
core_0_dtlb_hit_latency 1
core_0_dtlb_fill_latency 1
core_0_dtlb_max_tag_check 2
core_0_dtlb_max_fill 2
core_0_stlb_set 128
core_0_stlb_way 12
core_0_stlb_rq_size 32
core_0_stlb_wq_size 32
core_0_stlb_pq_size 0
core_0_stlb_mshr_size 16
core_0_stlb_hit_latency 4
core_0_stlb_fill_latency 4
core_0_stlb_max_tag_check 1
core_0_stlb_max_fill 1
core_0_l1i_set 64
core_0_l1i_way 8
core_0_l1i_rq_size 64
core_0_l1i_wq_size 64
core_0_l1i_pq_size 32
core_0_l1i_mshr_size 8
core_0_l1i_hit_latency 2
core_0_l1i_fill_latency 2
core_0_l1i_max_tag_check 2
core_0_l1i_max_fill 2
core_0_l1d_set 64
core_0_l1d_way 12
core_0_l1d_rq_size 64
core_0_l1d_wq_size 64
core_0_l1d_pq_size 8
core_0_l1d_mshr_size 16
core_0_l1d_hit_latency 2
core_0_l1d_fill_latency 3
core_0_l1d_max_tag_check 2
core_0_l1d_max_fill 2
core_0_l2c_set 1024
core_0_l2c_way 8
core_0_l2c_rq_size 32
core_0_l2c_wq_size 32
core_0_l2c_pq_size 16
core_0_l2c_mshr_size 32
core_0_l2c_hit_latency 5
core_0_l2c_fill_latency 5
core_0_l2c_max_tag_check 1
core_0_l2c_max_fill 1
llc_set 2048
llc_way 16
llc_rq_size 32
llc_wq_size 32
llc_pq_size 32
llc_mshr_size 64
llc_hit_latency 10
llc_fill_latency 10
llc_max_tag_check 1
llc_max_fill 1
dram_channels 1
dram_ranks 1
dram_bankgroups 8
dram_banks 4
dram_rows 65536
dram_columns 1024
dram_channel_width 8
dram_rq_size 64
dram_wq_size 64
dram_size 17179869184
core_0_itlb_prefetcher no
core_0_dtlb_prefetcher no
core_0_stlb_prefetcher no
core_0_l1i_prefetcher next_line
core_0_l1d_prefetcher vberti
core_0_l2c_prefetcher ip_stride
llc_prefetcher no
llc_replacement drrip

Core_0_instructions 50000000
Core_0_cycles 258604932
Core_0_IPC 0.193345
Core_0_branch_prediction_accuracy 87.3089
Core_0_branch_MPKI 21.4064
Core_0_average_ROB_occupancy_at_mispredict 26.4522

Core_0_ITLB_total_access 8820
Core_0_ITLB_total_hit 8820
Core_0_ITLB_total_miss 0
Core_0_ITLB_total_MPKI 0
Core_0_ITLB_total_miss_rate 0
Core_0_ITLB_demand_access 8820
Core_0_ITLB_demand_hit 8820
Core_0_ITLB_demand_miss 0
Core_0_ITLB_demand_MPKI 0
Core_0_ITLB_demand_miss_rate 0
Core_0_ITLB_load_access 8820
Core_0_ITLB_load_hit 8820
Core_0_ITLB_load_miss 0
Core_0_ITLB_load_MPKI 0
Core_0_ITLB_load_miss_rate 0
Core_0_ITLB_rfo_access 0
Core_0_ITLB_rfo_hit 0
Core_0_ITLB_rfo_miss 0
Core_0_ITLB_rfo_MPKI 0
Core_0_ITLB_rfo_miss_rate 0
Core_0_ITLB_prefetch_access 0
Core_0_ITLB_prefetch_hit 0
Core_0_ITLB_prefetch_miss 0
Core_0_ITLB_prefetch_MPKI 0
Core_0_ITLB_prefetch_miss_rate 0
Core_0_ITLB_writeback_access 0
Core_0_ITLB_writeback_hit 0
Core_0_ITLB_writeback_miss 0
Core_0_ITLB_writeback_MPKI 0
Core_0_ITLB_writeback_miss_rate 0
Core_0_ITLB_prefetch_requested 0
Core_0_ITLB_prefetch_issued 0
Core_0_ITLB_prefetch_useful 0
Core_0_ITLB_prefetch_useless 0
Core_0_ITLB_prefetch_late 0
Core_0_ITLB_prefetch_accuracy 0
Core_0_ITLB_prefetch_coverage 0
Core_0_ITLB_total_eviction 0

Core_0_DTLB_total_access 6465785
Core_0_DTLB_total_hit 4414256
Core_0_DTLB_total_miss 2051529
Core_0_DTLB_total_MPKI 41.0306
Core_0_DTLB_total_miss_rate 0.31729
Core_0_DTLB_demand_access 6465785
Core_0_DTLB_demand_hit 4414256
Core_0_DTLB_demand_miss 2051529
Core_0_DTLB_demand_MPKI 41.0306
Core_0_DTLB_demand_miss_rate 0.31729
Core_0_DTLB_load_access 6465785
Core_0_DTLB_load_hit 4414256
Core_0_DTLB_load_miss 2051529
Core_0_DTLB_load_MPKI 41.0306
Core_0_DTLB_load_miss_rate 0.31729
Core_0_DTLB_rfo_access 0
Core_0_DTLB_rfo_hit 0
Core_0_DTLB_rfo_miss 0
Core_0_DTLB_rfo_MPKI 0
Core_0_DTLB_rfo_miss_rate 0
Core_0_DTLB_prefetch_access 0
Core_0_DTLB_prefetch_hit 0
Core_0_DTLB_prefetch_miss 0
Core_0_DTLB_prefetch_MPKI 0
Core_0_DTLB_prefetch_miss_rate 0
Core_0_DTLB_writeback_access 0
Core_0_DTLB_writeback_hit 0
Core_0_DTLB_writeback_miss 0
Core_0_DTLB_writeback_MPKI 0
Core_0_DTLB_writeback_miss_rate 0
Core_0_DTLB_prefetch_requested 0
Core_0_DTLB_prefetch_issued 0
Core_0_DTLB_prefetch_useful 0
Core_0_DTLB_prefetch_useless 0
Core_0_DTLB_prefetch_late 0
Core_0_DTLB_prefetch_accuracy 0
Core_0_DTLB_prefetch_coverage 0
Core_0_DTLB_total_eviction 1992336

Core_0_STLB_total_access 1992336
Core_0_STLB_total_hit 1992336
Core_0_STLB_total_miss 0
Core_0_STLB_total_MPKI 0
Core_0_STLB_total_miss_rate 0
Core_0_STLB_demand_access 1992336
Core_0_STLB_demand_hit 1992336
Core_0_STLB_demand_miss 0
Core_0_STLB_demand_MPKI 0
Core_0_STLB_demand_miss_rate 0
Core_0_STLB_load_access 1992336
Core_0_STLB_load_hit 1992336
Core_0_STLB_load_miss 0
Core_0_STLB_load_MPKI 0
Core_0_STLB_load_miss_rate 0
Core_0_STLB_rfo_access 0
Core_0_STLB_rfo_hit 0
Core_0_STLB_rfo_miss 0
Core_0_STLB_rfo_MPKI 0
Core_0_STLB_rfo_miss_rate 0
Core_0_STLB_prefetch_access 0
Core_0_STLB_prefetch_hit 0
Core_0_STLB_prefetch_miss 0
Core_0_STLB_prefetch_MPKI 0
Core_0_STLB_prefetch_miss_rate 0
Core_0_STLB_writeback_access 0
Core_0_STLB_writeback_hit 0
Core_0_STLB_writeback_miss 0
Core_0_STLB_writeback_MPKI 0
Core_0_STLB_writeback_miss_rate 0
Core_0_STLB_prefetch_requested 0
Core_0_STLB_prefetch_issued 0
Core_0_STLB_prefetch_useful 0
Core_0_STLB_prefetch_useless 0
Core_0_STLB_prefetch_late 0
Core_0_STLB_prefetch_accuracy 0
Core_0_STLB_prefetch_coverage 0
Core_0_STLB_total_eviction 1931684

Core_0_L1I_total_access 10915
Core_0_L1I_total_hit 10914
Core_0_L1I_total_miss 1
Core_0_L1I_total_MPKI 2e-05
Core_0_L1I_total_miss_rate 9.1617e-05
Core_0_L1I_demand_access 10915
Core_0_L1I_demand_hit 10914
Core_0_L1I_demand_miss 1
Core_0_L1I_demand_MPKI 2e-05
Core_0_L1I_demand_miss_rate 9.1617e-05
Core_0_L1I_load_access 10915
Core_0_L1I_load_hit 10914
Core_0_L1I_load_miss 1
Core_0_L1I_load_MPKI 2e-05
Core_0_L1I_load_miss_rate 9.1617e-05
Core_0_L1I_rfo_access 0
Core_0_L1I_rfo_hit 0
Core_0_L1I_rfo_miss 0
Core_0_L1I_rfo_MPKI 0
Core_0_L1I_rfo_miss_rate 0
Core_0_L1I_prefetch_access 0
Core_0_L1I_prefetch_hit 0
Core_0_L1I_prefetch_miss 0
Core_0_L1I_prefetch_MPKI 0
Core_0_L1I_prefetch_miss_rate 0
Core_0_L1I_writeback_access 0
Core_0_L1I_writeback_hit 0
Core_0_L1I_writeback_miss 0
Core_0_L1I_writeback_MPKI 0
Core_0_L1I_writeback_miss_rate 0
Core_0_L1I_prefetch_requested 0
Core_0_L1I_prefetch_issued 0
Core_0_L1I_prefetch_useful 0
Core_0_L1I_prefetch_useless 0
Core_0_L1I_prefetch_late 0
Core_0_L1I_prefetch_accuracy 0
Core_0_L1I_prefetch_coverage 0
Core_0_L1I_total_eviction 0

Core_0_L1D_total_access 6784219
Core_0_L1D_total_hit 3336210
Core_0_L1D_total_miss 3448009
Core_0_L1D_total_MPKI 68.9602
Core_0_L1D_total_miss_rate 0.50824
Core_0_L1D_demand_access 4780954
Core_0_L1D_demand_hit 1761593
Core_0_L1D_demand_miss 3019361
Core_0_L1D_demand_MPKI 60.3872
Core_0_L1D_demand_miss_rate 0.631539
Core_0_L1D_load_access 4780954
Core_0_L1D_load_hit 1761593
Core_0_L1D_load_miss 3019361
Core_0_L1D_load_MPKI 60.3872
Core_0_L1D_load_miss_rate 0.631539
Core_0_L1D_rfo_access 0
Core_0_L1D_rfo_hit 0
Core_0_L1D_rfo_miss 0
Core_0_L1D_rfo_MPKI 0
Core_0_L1D_rfo_miss_rate 0
Core_0_L1D_prefetch_access 1098582
Core_0_L1D_prefetch_hit 687725
Core_0_L1D_prefetch_miss 410857
Core_0_L1D_prefetch_MPKI 8.21714
Core_0_L1D_prefetch_miss_rate 0.373988
Core_0_L1D_writeback_access 904683
Core_0_L1D_writeback_hit 886892
Core_0_L1D_writeback_miss 17791
Core_0_L1D_writeback_MPKI 0.35582
Core_0_L1D_writeback_miss_rate 0.0196655
Core_0_L1D_prefetch_requested 1230724
Core_0_L1D_prefetch_issued 1098577
Core_0_L1D_prefetch_useful 21733
Core_0_L1D_prefetch_useless 19827
Core_0_L1D_prefetch_late 0
Core_0_L1D_prefetch_accuracy 0.0197829
Core_0_L1D_prefetch_coverage 0.00714644
Core_0_L1D_total_eviction 3019203

Core_0_L2C_total_access 3526586
Core_0_L2C_total_hit 661137
Core_0_L2C_total_miss 2865449
Core_0_L2C_total_MPKI 57.309
Core_0_L2C_total_miss_rate 0.812528
Core_0_L2C_demand_access 2977637
Core_0_L2C_demand_hit 209186
Core_0_L2C_demand_miss 2768451
Core_0_L2C_demand_MPKI 55.369
Core_0_L2C_demand_miss_rate 0.929748
Core_0_L2C_load_access 2970590
Core_0_L2C_load_hit 202198
Core_0_L2C_load_miss 2768392
Core_0_L2C_load_MPKI 55.3678
Core_0_L2C_load_miss_rate 0.931933
Core_0_L2C_rfo_access 7047
Core_0_L2C_rfo_hit 6988
Core_0_L2C_rfo_miss 59
Core_0_L2C_rfo_MPKI 0.00118
Core_0_L2C_rfo_miss_rate 0.00837236
Core_0_L2C_prefetch_access 540421
Core_0_L2C_prefetch_hit 443444
Core_0_L2C_prefetch_miss 96977
Core_0_L2C_prefetch_MPKI 1.93954
Core_0_L2C_prefetch_miss_rate 0.179447
Core_0_L2C_writeback_access 8528
Core_0_L2C_writeback_hit 8507
Core_0_L2C_writeback_miss 21
Core_0_L2C_writeback_MPKI 0.00042
Core_0_L2C_writeback_miss_rate 0.00246248
Core_0_L2C_prefetch_requested 129564
Core_0_L2C_prefetch_issued 129564
Core_0_L2C_prefetch_useful 2490
Core_0_L2C_prefetch_useless 66554
Core_0_L2C_prefetch_late 0
Core_0_L2C_prefetch_accuracy 0.0192183
Core_0_L2C_prefetch_coverage 0.000898612
Core_0_L2C_total_eviction 2862182

Core_0_LLC_total_access 2862734
Core_0_LLC_total_hit 610114
Core_0_LLC_total_miss 2252620
Core_0_LLC_total_MPKI 45.0524
Core_0_LLC_total_miss_rate 0.786877
Core_0_LLC_demand_access 2768450
Core_0_LLC_demand_hit 583588
Core_0_LLC_demand_miss 2184862
Core_0_LLC_demand_MPKI 43.6972
Core_0_LLC_demand_miss_rate 0.7892
Core_0_LLC_load_access 2768391
Core_0_LLC_load_hit 583529
Core_0_LLC_load_miss 2184862
Core_0_LLC_load_MPKI 43.6972
Core_0_LLC_load_miss_rate 0.789217
Core_0_LLC_rfo_access 59
Core_0_LLC_rfo_hit 59
Core_0_LLC_rfo_miss 0
Core_0_LLC_rfo_MPKI 0
Core_0_LLC_rfo_miss_rate 0
Core_0_LLC_prefetch_access 93717
Core_0_LLC_prefetch_hit 25963
Core_0_LLC_prefetch_miss 67754
Core_0_LLC_prefetch_MPKI 1.35508
Core_0_LLC_prefetch_miss_rate 0.722964
Core_0_LLC_writeback_access 567
Core_0_LLC_writeback_hit 563
Core_0_LLC_writeback_miss 4
Core_0_LLC_writeback_MPKI 8e-05
Core_0_LLC_writeback_miss_rate 0.00705467
Core_0_LLC_prefetch_requested 0
Core_0_LLC_prefetch_issued 0
Core_0_LLC_prefetch_useful 0
Core_0_LLC_prefetch_useless 0
Core_0_LLC_prefetch_late 0
Core_0_LLC_prefetch_accuracy 0
Core_0_LLC_prefetch_coverage 0
Core_0_LLC_total_eviction 2252620

[DRAM Statistics]
Channel_0_RQ_row_buffer_hit 14738
Channel_0_RQ_row_buffer_miss 2237878
Channel_0_WQ_row_buffer_hit 0
Channel_0_WQ_row_buffer_miss 5
Channel_0_WQ_full 0
Channel_0_dbus_congested 2982073
DRAM_total_RQ_row_buffer_hit 14738
DRAM_total_RQ_row_buffer_miss 2237878
DRAM_total_WQ_row_buffer_hit 0
DRAM_total_WQ_row_buffer_miss 5
DRAM_total_WQ_full 0
DRAM_total_dbus_congested 2982073
DRAM_avg_congested_cycle 2.9716

======STLB miss causes ========
Core_0_STLB_miss_cause_breakdown
Core_0_STLB_cause_Demand_Data_miss 0
Core_0_STLB_cause_Demand_Data_miss_rate 0
Core_0_STLB_cause_Demand_Instruction_miss 0
Core_0_STLB_cause_Demand_Instruction_miss_rate 0
Core_0_STLB_cause_L1D_Prefetch_miss 0
Core_0_STLB_cause_L1D_Prefetch_miss_rate 0
Core_0_STLB_cause_L1I_Prefetch_miss 0
Core_0_STLB_cause_L1I_Prefetch_miss_rate 0
Core_0_STLB_cause_Other_miss 0
Core_0_STLB_cause_Other_miss_rate 0
Core_0_STLB_Demand_miss 0
Core_0_STLB_Demand_miss_rate 0
Core_0_STLB_L1D_Prefetch_miss 0
Core_0_STLB_L1D_Prefetch_miss_rate 0
Core_0_STLB_Other_miss 0
Core_0_STLB_Other_miss_rate 0
BERTI TO_L1: 1185727 TO_L2: 870680 TO_L2_BC_MSHR: 0
BERTI AVG_LAT: 125.388 NUM_TRACK_LATENCY: 4213348 NUM_CANT_TRACK_LATENCY: 0
BERTI CROSS_PAGE 226247 NO_CROSS_PAGE: 1830160
BERTI FOUND_BERTI: 5524911 NO_FOUND_BERTI: 2417396
BERTI AVERAGE_ISSUED: 3.56559
