[VMEM] WARNING: physical memory size is smaller than virtual memory size.

*** ChampSim Multicore Out-of-Order Simulator ***
Warmup Instructions: 50000000
Simulation Instructions: 100000000
Number of CPUs: 1
Page size: 4096
Core 0: /data0/tzh/champsim_traces/SPEC06/401.bzip2-277B.champsimtrace.xz
Off-chip DRAM Size: 16 GiB Channels: 1 Width: 64-bit Data Rate: 3205 MT/s
Warmup halting CPU 0 at instruction 50000005 cycle 10223753 for remainder of phase
Warmup finished CPU 0 instructions: 50000005 cycles: 10223753 cumulative IPC: 4.891 (Simulation time: 00 hr 02 min 52 sec)
Warmup complete CPU 0 instructions: 50000005 cycles: 10223753 cumulative IPC: 4.891 (Simulation time: 00 hr 02 min 52 sec)
Simulation finished CPU 0 instructions: 100000003 cycles: 71270494 cumulative IPC: 1.403 (Simulation time: 00 hr 11 min 54 sec)
Simulation complete CPU 0 instructions: 100000003 cycles: 71270494 cumulative IPC: 1.403 (Simulation time: 00 hr 11 min 54 sec)

ChampSim completed all CPUs

=== Simulation ===
CPU 0 runs /data0/tzh/champsim_traces/SPEC06/401.bzip2-277B.champsimtrace.xz

Region of Interest Statistics

CPU 0 cumulative IPC: 1.403 instructions: 100000003 cycles: 71270494
CPU 0 Branch Prediction Accuracy: 94.88% MPKI: 7.843 Average ROB Occupancy at Mispredict: 45.22
Branch type MPKI
BRANCH_DIRECT_JUMP: 0.01973
BRANCH_INDIRECT: 0.00025
BRANCH_CONDITIONAL: 7.823
BRANCH_DIRECT_CALL: 0
BRANCH_INDIRECT_CALL: 0
BRANCH_RETURN: 0

cpu0->cpu0_STLB TOTAL        ACCESS:     513559 HIT:     513229 MISS:        330 MSHR_MERGE:          0
cpu0->cpu0_STLB LOAD         ACCESS:     513559 HIT:     513229 MISS:        330 MSHR_MERGE:          0
cpu0->cpu0_STLB RFO          ACCESS:          0 HIT:          0 MISS:          0 MSHR_MERGE:          0
cpu0->cpu0_STLB PREFETCH     ACCESS:          0 HIT:          0 MISS:          0 MSHR_MERGE:          0
cpu0->cpu0_STLB WRITE        ACCESS:          0 HIT:          0 MISS:          0 MSHR_MERGE:          0
cpu0->cpu0_STLB TRANSLATION  ACCESS:          0 HIT:          0 MISS:          0 MSHR_MERGE:          0
cpu0->cpu0_STLB PREFETCH REQUESTED:          0 ISSUED:          0 USEFUL:          0 USELESS:          0 LATE:          0
cpu0->cpu0_STLB AVERAGE MISS LATENCY: 247.7 cycles
cpu0->cpu0_L2C TOTAL        ACCESS:     955810 HIT:     521582 MISS:     434228 MSHR_MERGE:          0
cpu0->cpu0_L2C LOAD         ACCESS:     672250 HIT:     314419 MISS:     357831 MSHR_MERGE:          0
cpu0->cpu0_L2C RFO          ACCESS:      91578 HIT:      15327 MISS:      76251 MSHR_MERGE:          0
cpu0->cpu0_L2C PREFETCH     ACCESS:          0 HIT:          0 MISS:          0 MSHR_MERGE:          0
cpu0->cpu0_L2C WRITE        ACCESS:     191708 HIT:     191608 MISS:        100 MSHR_MERGE:          0
cpu0->cpu0_L2C TRANSLATION  ACCESS:        274 HIT:        228 MISS:         46 MSHR_MERGE:          0
cpu0->cpu0_L2C PREFETCH REQUESTED:          0 ISSUED:          0 USEFUL:          0 USELESS:          0 LATE:          0
cpu0->cpu0_L2C AVERAGE MISS LATENCY: 101.3 cycles
cpu0->cpu0_L1I TOTAL        ACCESS:    4960438 HIT:    4960431 MISS:          7 MSHR_MERGE:          0
cpu0->cpu0_L1I LOAD         ACCESS:    4960438 HIT:    4960431 MISS:          7 MSHR_MERGE:          0
cpu0->cpu0_L1I RFO          ACCESS:          0 HIT:          0 MISS:          0 MSHR_MERGE:          0
cpu0->cpu0_L1I PREFETCH     ACCESS:          0 HIT:          0 MISS:          0 MSHR_MERGE:          0
cpu0->cpu0_L1I WRITE        ACCESS:          0 HIT:          0 MISS:          0 MSHR_MERGE:          0
cpu0->cpu0_L1I TRANSLATION  ACCESS:          0 HIT:          0 MISS:          0 MSHR_MERGE:          0
cpu0->cpu0_L1I PREFETCH REQUESTED:          0 ISSUED:          0 USEFUL:          0 USELESS:          0 LATE:          0
cpu0->cpu0_L1I AVERAGE MISS LATENCY: 193.4 cycles
cpu0->cpu0_L1D TOTAL        ACCESS:   24020112 HIT:   22116900 MISS:    1903212 MSHR_MERGE:    1139088
cpu0->cpu0_L1D LOAD         ACCESS:   13865934 HIT:   12648073 MISS:    1217861 MSHR_MERGE:     545618
cpu0->cpu0_L1D RFO          ACCESS:          0 HIT:          0 MISS:          0 MSHR_MERGE:          0
cpu0->cpu0_L1D PREFETCH     ACCESS:          0 HIT:          0 MISS:          0 MSHR_MERGE:          0
cpu0->cpu0_L1D WRITE        ACCESS:   10153518 HIT:    9468441 MISS:     685077 MSHR_MERGE:     593470
cpu0->cpu0_L1D TRANSLATION  ACCESS:        660 HIT:        386 MISS:        274 MSHR_MERGE:          0
cpu0->cpu0_L1D PREFETCH REQUESTED:          0 ISSUED:          0 USEFUL:          0 USELESS:          0 LATE:          0
cpu0->cpu0_L1D AVERAGE MISS LATENCY: 66.15 cycles
cpu0->cpu0_ITLB TOTAL        ACCESS:    4847354 HIT:    4847354 MISS:          0 MSHR_MERGE:          0
cpu0->cpu0_ITLB LOAD         ACCESS:    4847354 HIT:    4847354 MISS:          0 MSHR_MERGE:          0
cpu0->cpu0_ITLB RFO          ACCESS:          0 HIT:          0 MISS:          0 MSHR_MERGE:          0
cpu0->cpu0_ITLB PREFETCH     ACCESS:          0 HIT:          0 MISS:          0 MSHR_MERGE:          0
cpu0->cpu0_ITLB WRITE        ACCESS:          0 HIT:          0 MISS:          0 MSHR_MERGE:          0
cpu0->cpu0_ITLB TRANSLATION  ACCESS:          0 HIT:          0 MISS:          0 MSHR_MERGE:          0
cpu0->cpu0_ITLB PREFETCH REQUESTED:          0 ISSUED:          0 USEFUL:          0 USELESS:          0 LATE:          0
cpu0->cpu0_ITLB AVERAGE MISS LATENCY: - cycles
cpu0->cpu0_DTLB TOTAL        ACCESS:   22996929 HIT:   22472352 MISS:     524577 MSHR_MERGE:      11018
cpu0->cpu0_DTLB LOAD         ACCESS:   22996929 HIT:   22472352 MISS:     524577 MSHR_MERGE:      11018
cpu0->cpu0_DTLB RFO          ACCESS:          0 HIT:          0 MISS:          0 MSHR_MERGE:          0
cpu0->cpu0_DTLB PREFETCH     ACCESS:          0 HIT:          0 MISS:          0 MSHR_MERGE:          0
cpu0->cpu0_DTLB WRITE        ACCESS:          0 HIT:          0 MISS:          0 MSHR_MERGE:          0
cpu0->cpu0_DTLB TRANSLATION  ACCESS:          0 HIT:          0 MISS:          0 MSHR_MERGE:          0
cpu0->cpu0_DTLB PREFETCH REQUESTED:          0 ISSUED:          0 USEFUL:          0 USELESS:          0 LATE:          0
cpu0->cpu0_DTLB AVERAGE MISS LATENCY: 5.16 cycles
cpu0->LLC TOTAL        ACCESS:     604926 HIT:     361520 MISS:     243406 MSHR_MERGE:          0
cpu0->LLC LOAD         ACCESS:     357831 HIT:     218623 MISS:     139208 MSHR_MERGE:          0
cpu0->LLC RFO          ACCESS:      76251 HIT:      24228 MISS:      52023 MSHR_MERGE:          0
cpu0->LLC PREFETCH     ACCESS:          0 HIT:          0 MISS:          0 MSHR_MERGE:          0
cpu0->LLC WRITE        ACCESS:     170798 HIT:     118668 MISS:      52130 MSHR_MERGE:          0
cpu0->LLC TRANSLATION  ACCESS:         46 HIT:          1 MISS:         45 MSHR_MERGE:          0
cpu0->LLC PREFETCH REQUESTED:          0 ISSUED:          0 USEFUL:          0 USELESS:          0 LATE:          0
cpu0->LLC AVERAGE MISS LATENCY: 155.1 cycles

DRAM Statistics

Channel 0 RQ ROW_BUFFER_HIT:       7290
  ROW_BUFFER_MISS:     183857
  AVG DBUS CONGESTED CYCLE: 13.34
Channel 0 WQ ROW_BUFFER_HIT:      25506
  ROW_BUFFER_MISS:      88451
  FULL:          0
Channel 0 REFRESHES ISSUED:       5940

[ROI Statistics]
[System Configuration]
num_cpus 1
cpu_freq 4000
fetch_width 6
decode_width 6
dispatch_width 6
execute_width 6
lq_width 2
sq_width 2
retire_width 6
scheduler_size 128
branch_mispredict_penalty 15
rob_size 352
lq_size 128
sq_size 72
ifetch_buffer_size 64
decode_buffer_size 32
dispatch_buffer_size 32
register_file_size 288
decode_latency 1
dispatch_latency 1
schedule_latency 1
execute_latency 1
page_size 4096
block_size 64
core_0_itlb_set 16
core_0_itlb_way 4
core_0_itlb_rq_size 16
core_0_itlb_wq_size 16
core_0_itlb_pq_size 0
core_0_itlb_mshr_size 8
core_0_itlb_hit_latency 1
core_0_itlb_fill_latency 1
core_0_itlb_max_tag_check 2
core_0_itlb_max_fill 2
core_0_dtlb_set 16
core_0_dtlb_way 4
core_0_dtlb_rq_size 16
core_0_dtlb_wq_size 16
core_0_dtlb_pq_size 0
core_0_dtlb_mshr_size 8
core_0_dtlb_hit_latency 1
core_0_dtlb_fill_latency 1
core_0_dtlb_max_tag_check 2
core_0_dtlb_max_fill 2
core_0_stlb_set 128
core_0_stlb_way 12
core_0_stlb_rq_size 32
core_0_stlb_wq_size 32
core_0_stlb_pq_size 0
core_0_stlb_mshr_size 16
core_0_stlb_hit_latency 4
core_0_stlb_fill_latency 4
core_0_stlb_max_tag_check 1
core_0_stlb_max_fill 1
core_0_l1i_set 64
core_0_l1i_way 8
core_0_l1i_rq_size 64
core_0_l1i_wq_size 64
core_0_l1i_pq_size 32
core_0_l1i_mshr_size 8
core_0_l1i_hit_latency 2
core_0_l1i_fill_latency 2
core_0_l1i_max_tag_check 2
core_0_l1i_max_fill 2
core_0_l1d_set 64
core_0_l1d_way 12
core_0_l1d_rq_size 64
core_0_l1d_wq_size 64
core_0_l1d_pq_size 8
core_0_l1d_mshr_size 16
core_0_l1d_hit_latency 2
core_0_l1d_fill_latency 3
core_0_l1d_max_tag_check 2
core_0_l1d_max_fill 2
core_0_l2c_set 1024
core_0_l2c_way 8
core_0_l2c_rq_size 32
core_0_l2c_wq_size 32
core_0_l2c_pq_size 16
core_0_l2c_mshr_size 32
core_0_l2c_hit_latency 5
core_0_l2c_fill_latency 5
core_0_l2c_max_tag_check 1
core_0_l2c_max_fill 1
llc_set 2048
llc_way 16
llc_rq_size 32
llc_wq_size 32
llc_pq_size 32
llc_mshr_size 64
llc_hit_latency 10
llc_fill_latency 10
llc_max_tag_check 1
llc_max_fill 1
dram_channels 1
dram_ranks 1
dram_bankgroups 8
dram_banks 4
dram_rows 65536
dram_columns 1024
dram_channel_width 8
dram_rq_size 64
dram_wq_size 64
dram_size 17179869184
core_0_itlb_prefetcher no
core_0_dtlb_prefetcher no
core_0_stlb_prefetcher no
core_0_l1i_prefetcher no
core_0_l1d_prefetcher no
core_0_l2c_prefetcher no
llc_prefetcher no
llc_replacement drrip

Core_0_instructions 100000003
Core_0_cycles 71270494
Core_0_IPC 1.40311
Core_0_branch_prediction_accuracy 94.8819
Core_0_branch_MPKI 7.84315
Core_0_average_ROB_occupancy_at_mispredict 45.224

Core_0_ITLB_total_access 4847354
Core_0_ITLB_total_hit 4847354
Core_0_ITLB_total_miss 0
Core_0_ITLB_total_MPKI 0
Core_0_ITLB_total_miss_rate 0
Core_0_ITLB_demand_access 4847354
Core_0_ITLB_demand_hit 4847354
Core_0_ITLB_demand_miss 0
Core_0_ITLB_demand_MPKI 0
Core_0_ITLB_demand_miss_rate 0
Core_0_ITLB_load_access 4847354
Core_0_ITLB_load_hit 4847354
Core_0_ITLB_load_miss 0
Core_0_ITLB_load_MPKI 0
Core_0_ITLB_load_miss_rate 0
Core_0_ITLB_rfo_access 0
Core_0_ITLB_rfo_hit 0
Core_0_ITLB_rfo_miss 0
Core_0_ITLB_rfo_MPKI 0
Core_0_ITLB_rfo_miss_rate 0
Core_0_ITLB_prefetch_access 0
Core_0_ITLB_prefetch_hit 0
Core_0_ITLB_prefetch_miss 0
Core_0_ITLB_prefetch_MPKI 0
Core_0_ITLB_prefetch_miss_rate 0
Core_0_ITLB_writeback_access 0
Core_0_ITLB_writeback_hit 0
Core_0_ITLB_writeback_miss 0
Core_0_ITLB_writeback_MPKI 0
Core_0_ITLB_writeback_miss_rate 0
Core_0_ITLB_prefetch_requested 0
Core_0_ITLB_prefetch_issued 0
Core_0_ITLB_prefetch_useful 0
Core_0_ITLB_prefetch_useless 0
Core_0_ITLB_prefetch_late 0
Core_0_ITLB_prefetch_accuracy 0
Core_0_ITLB_prefetch_coverage 0

Core_0_DTLB_total_access 22996929
Core_0_DTLB_total_hit 22472352
Core_0_DTLB_total_miss 524577
Core_0_DTLB_total_MPKI 5.24577
Core_0_DTLB_total_miss_rate 0.0228107
Core_0_DTLB_demand_access 22996929
Core_0_DTLB_demand_hit 22472352
Core_0_DTLB_demand_miss 524577
Core_0_DTLB_demand_MPKI 5.24577
Core_0_DTLB_demand_miss_rate 0.0228107
Core_0_DTLB_load_access 22996929
Core_0_DTLB_load_hit 22472352
Core_0_DTLB_load_miss 524577
Core_0_DTLB_load_MPKI 5.24577
Core_0_DTLB_load_miss_rate 0.0228107
Core_0_DTLB_rfo_access 0
Core_0_DTLB_rfo_hit 0
Core_0_DTLB_rfo_miss 0
Core_0_DTLB_rfo_MPKI 0
Core_0_DTLB_rfo_miss_rate 0
Core_0_DTLB_prefetch_access 0
Core_0_DTLB_prefetch_hit 0
Core_0_DTLB_prefetch_miss 0
Core_0_DTLB_prefetch_MPKI 0
Core_0_DTLB_prefetch_miss_rate 0
Core_0_DTLB_writeback_access 0
Core_0_DTLB_writeback_hit 0
Core_0_DTLB_writeback_miss 0
Core_0_DTLB_writeback_MPKI 0
Core_0_DTLB_writeback_miss_rate 0
Core_0_DTLB_prefetch_requested 0
Core_0_DTLB_prefetch_issued 0
Core_0_DTLB_prefetch_useful 0
Core_0_DTLB_prefetch_useless 0
Core_0_DTLB_prefetch_late 0
Core_0_DTLB_prefetch_accuracy 0
Core_0_DTLB_prefetch_coverage 0

Core_0_STLB_total_access 513559
Core_0_STLB_total_hit 513229
Core_0_STLB_total_miss 330
Core_0_STLB_total_MPKI 0.0033
Core_0_STLB_total_miss_rate 0.000642575
Core_0_STLB_demand_access 513559
Core_0_STLB_demand_hit 513229
Core_0_STLB_demand_miss 330
Core_0_STLB_demand_MPKI 0.0033
Core_0_STLB_demand_miss_rate 0.000642575
Core_0_STLB_load_access 513559
Core_0_STLB_load_hit 513229
Core_0_STLB_load_miss 330
Core_0_STLB_load_MPKI 0.0033
Core_0_STLB_load_miss_rate 0.000642575
Core_0_STLB_rfo_access 0
Core_0_STLB_rfo_hit 0
Core_0_STLB_rfo_miss 0
Core_0_STLB_rfo_MPKI 0
Core_0_STLB_rfo_miss_rate 0
Core_0_STLB_prefetch_access 0
Core_0_STLB_prefetch_hit 0
Core_0_STLB_prefetch_miss 0
Core_0_STLB_prefetch_MPKI 0
Core_0_STLB_prefetch_miss_rate 0
Core_0_STLB_writeback_access 0
Core_0_STLB_writeback_hit 0
Core_0_STLB_writeback_miss 0
Core_0_STLB_writeback_MPKI 0
Core_0_STLB_writeback_miss_rate 0
Core_0_STLB_prefetch_requested 0
Core_0_STLB_prefetch_issued 0
Core_0_STLB_prefetch_useful 0
Core_0_STLB_prefetch_useless 0
Core_0_STLB_prefetch_late 0
Core_0_STLB_prefetch_accuracy 0
Core_0_STLB_prefetch_coverage 0

Core_0_L1I_total_access 4960438
Core_0_L1I_total_hit 4960431
Core_0_L1I_total_miss 7
Core_0_L1I_total_MPKI 7e-05
Core_0_L1I_total_miss_rate 1.41117e-06
Core_0_L1I_demand_access 4960438
Core_0_L1I_demand_hit 4960431
Core_0_L1I_demand_miss 7
Core_0_L1I_demand_MPKI 7e-05
Core_0_L1I_demand_miss_rate 1.41117e-06
Core_0_L1I_load_access 4960438
Core_0_L1I_load_hit 4960431
Core_0_L1I_load_miss 7
Core_0_L1I_load_MPKI 7e-05
Core_0_L1I_load_miss_rate 1.41117e-06
Core_0_L1I_rfo_access 0
Core_0_L1I_rfo_hit 0
Core_0_L1I_rfo_miss 0
Core_0_L1I_rfo_MPKI 0
Core_0_L1I_rfo_miss_rate 0
Core_0_L1I_prefetch_access 0
Core_0_L1I_prefetch_hit 0
Core_0_L1I_prefetch_miss 0
Core_0_L1I_prefetch_MPKI 0
Core_0_L1I_prefetch_miss_rate 0
Core_0_L1I_writeback_access 0
Core_0_L1I_writeback_hit 0
Core_0_L1I_writeback_miss 0
Core_0_L1I_writeback_MPKI 0
Core_0_L1I_writeback_miss_rate 0
Core_0_L1I_prefetch_requested 0
Core_0_L1I_prefetch_issued 0
Core_0_L1I_prefetch_useful 0
Core_0_L1I_prefetch_useless 0
Core_0_L1I_prefetch_late 0
Core_0_L1I_prefetch_accuracy 0
Core_0_L1I_prefetch_coverage 0

Core_0_L1D_total_access 24019452
Core_0_L1D_total_hit 22116514
Core_0_L1D_total_miss 1902938
Core_0_L1D_total_MPKI 19.0294
Core_0_L1D_total_miss_rate 0.0792249
Core_0_L1D_demand_access 13865934
Core_0_L1D_demand_hit 12648073
Core_0_L1D_demand_miss 1217861
Core_0_L1D_demand_MPKI 12.1786
Core_0_L1D_demand_miss_rate 0.0878312
Core_0_L1D_load_access 13865934
Core_0_L1D_load_hit 12648073
Core_0_L1D_load_miss 1217861
Core_0_L1D_load_MPKI 12.1786
Core_0_L1D_load_miss_rate 0.0878312
Core_0_L1D_rfo_access 0
Core_0_L1D_rfo_hit 0
Core_0_L1D_rfo_miss 0
Core_0_L1D_rfo_MPKI 0
Core_0_L1D_rfo_miss_rate 0
Core_0_L1D_prefetch_access 0
Core_0_L1D_prefetch_hit 0
Core_0_L1D_prefetch_miss 0
Core_0_L1D_prefetch_MPKI 0
Core_0_L1D_prefetch_miss_rate 0
Core_0_L1D_writeback_access 10153518
Core_0_L1D_writeback_hit 9468441
Core_0_L1D_writeback_miss 685077
Core_0_L1D_writeback_MPKI 6.85077
Core_0_L1D_writeback_miss_rate 0.0674719
Core_0_L1D_prefetch_requested 0
Core_0_L1D_prefetch_issued 0
Core_0_L1D_prefetch_useful 0
Core_0_L1D_prefetch_useless 0
Core_0_L1D_prefetch_late 0
Core_0_L1D_prefetch_accuracy 0
Core_0_L1D_prefetch_coverage 0

Core_0_L2C_total_access 955536
Core_0_L2C_total_hit 521354
Core_0_L2C_total_miss 434182
Core_0_L2C_total_MPKI 4.34182
Core_0_L2C_total_miss_rate 0.454386
Core_0_L2C_demand_access 763828
Core_0_L2C_demand_hit 329746
Core_0_L2C_demand_miss 434082
Core_0_L2C_demand_MPKI 4.34082
Core_0_L2C_demand_miss_rate 0.568298
Core_0_L2C_load_access 672250
Core_0_L2C_load_hit 314419
Core_0_L2C_load_miss 357831
Core_0_L2C_load_MPKI 3.57831
Core_0_L2C_load_miss_rate 0.532289
Core_0_L2C_rfo_access 91578
Core_0_L2C_rfo_hit 15327
Core_0_L2C_rfo_miss 76251
Core_0_L2C_rfo_MPKI 0.76251
Core_0_L2C_rfo_miss_rate 0.832634
Core_0_L2C_prefetch_access 0
Core_0_L2C_prefetch_hit 0
Core_0_L2C_prefetch_miss 0
Core_0_L2C_prefetch_MPKI 0
Core_0_L2C_prefetch_miss_rate 0
Core_0_L2C_writeback_access 191708
Core_0_L2C_writeback_hit 191608
Core_0_L2C_writeback_miss 100
Core_0_L2C_writeback_MPKI 0.001
Core_0_L2C_writeback_miss_rate 0.000521627
Core_0_L2C_prefetch_requested 0
Core_0_L2C_prefetch_issued 0
Core_0_L2C_prefetch_useful 0
Core_0_L2C_prefetch_useless 0
Core_0_L2C_prefetch_late 0
Core_0_L2C_prefetch_accuracy 0
Core_0_L2C_prefetch_coverage 0

Core_0_LLC_total_access 604880
Core_0_LLC_total_hit 361519
Core_0_LLC_total_miss 243361
Core_0_LLC_total_MPKI 2.43361
Core_0_LLC_total_miss_rate 0.402329
Core_0_LLC_demand_access 434082
Core_0_LLC_demand_hit 242851
Core_0_LLC_demand_miss 191231
Core_0_LLC_demand_MPKI 1.91231
Core_0_LLC_demand_miss_rate 0.440541
Core_0_LLC_load_access 357831
Core_0_LLC_load_hit 218623
Core_0_LLC_load_miss 139208
Core_0_LLC_load_MPKI 1.39208
Core_0_LLC_load_miss_rate 0.389033
Core_0_LLC_rfo_access 76251
Core_0_LLC_rfo_hit 24228
Core_0_LLC_rfo_miss 52023
Core_0_LLC_rfo_MPKI 0.52023
Core_0_LLC_rfo_miss_rate 0.68226
Core_0_LLC_prefetch_access 0
Core_0_LLC_prefetch_hit 0
Core_0_LLC_prefetch_miss 0
Core_0_LLC_prefetch_MPKI 0
Core_0_LLC_prefetch_miss_rate 0
Core_0_LLC_writeback_access 170798
Core_0_LLC_writeback_hit 118668
Core_0_LLC_writeback_miss 52130
Core_0_LLC_writeback_MPKI 0.5213
Core_0_LLC_writeback_miss_rate 0.305214
Core_0_LLC_prefetch_requested 0
Core_0_LLC_prefetch_issued 0
Core_0_LLC_prefetch_useful 0
Core_0_LLC_prefetch_useless 0
Core_0_LLC_prefetch_late 0
Core_0_LLC_prefetch_accuracy 0
Core_0_LLC_prefetch_coverage 0

[DRAM Statistics]
Channel_0_RQ_row_buffer_hit 7290
Channel_0_RQ_row_buffer_miss 183857
Channel_0_WQ_row_buffer_hit 25506
Channel_0_WQ_row_buffer_miss 88451
Channel_0_WQ_full 0
Channel_0_dbus_congested 895307
DRAM_total_RQ_row_buffer_hit 7290
DRAM_total_RQ_row_buffer_miss 183857
DRAM_total_WQ_row_buffer_hit 25506
DRAM_total_WQ_row_buffer_miss 88451
DRAM_total_WQ_full 0
DRAM_total_dbus_congested 895307
DRAM_avg_congested_cycle 13.3428

====== DRAM_RQ_TRAFFIC ========
DRAM_RQ_READ_TRAFFIC_BREAKDOWN:
data_demand_read.count = 191224
data_demand_read.share = 99.97%

inst_demand_read.count = 7
inst_demand_read.share = 0.00%

cache_inst_prefetch.count = 0
cache_inst_prefetch.share = 0.00%

cache_data_prefetch.count = 0
cache_data_prefetch.share = 0.00%

stlb_data_demand.count = 45
stlb_data_demand.share = 0.02%

stlb_inst_demand.count = 0
stlb_inst_demand.share = 0.00%

stlb_l1i_pref.count = 0
stlb_l1i_pref.share = 0.00%

stlb_l1d_pref.count = 0
stlb_l1d_pref.share = 0.00%

DRAM_RQ_READ_TRAFFIC_SUMMARY:
cache_demand.count = 191231
cache_demand.share = 99.98%

cache_prefetch.count = 0
cache_prefetch.share = 0.00%

stlb_demand.count = 45
stlb_demand.share = 0.02%

stlb_prefetch.count = 0
stlb_prefetch.share = 0.00%

DRAM_RQ_READ_TRAFFIC_DEBUG:
total_classified_read.count = 191276
unclassified_read.count = 0
total_read_with_other.count = 191276

classified_plus_unclassified_check.count = 191276
dram_rq_read_total_observed.count = 191276
dram_rq_read_total_observed.per_1K_instructions = 1.91276

STLB_MISS_PTW_DRAM_TOUCH_BREAKDOWN:
stlb_miss_total.count = 330

stlb_miss_touch_dram.count = 45
stlb_miss_touch_dram.share = 13.64%

stlb_miss_no_dram_touch.count = 285
stlb_miss_no_dram_touch.share = 86.36%

STLB_MISS_PTW_DRAM_TOUCH_DEBUG:
stlb_miss_touch_plus_no_touch.count = 330
stlb_miss_total_check.count = 330

======STLB miss causes ========
Core_0_STLB_miss_cause_breakdown
Core_0_STLB_cause_Demand_Data_miss 330
Core_0_STLB_cause_Demand_Data_miss_rate 0.000642575
Core_0_STLB_cause_Demand_Instruction_miss 0
Core_0_STLB_cause_Demand_Instruction_miss_rate 0
Core_0_STLB_cause_L1D_Prefetch_miss 0
Core_0_STLB_cause_L1D_Prefetch_miss_rate 0
Core_0_STLB_cause_L1I_Prefetch_miss 0
Core_0_STLB_cause_L1I_Prefetch_miss_rate 0
Core_0_STLB_cause_Other_miss 0
Core_0_STLB_cause_Other_miss_rate 0
Core_0_STLB_Demand_miss 330
Core_0_STLB_Demand_miss_rate 0.000642575
Core_0_STLB_L1D_Prefetch_miss 0
Core_0_STLB_L1D_Prefetch_miss_rate 0
Core_0_STLB_Other_miss 0
Core_0_STLB_Other_miss_rate 0
