[VMEM] WARNING: physical memory size is smaller than virtual memory size.

*** ChampSim Multicore Out-of-Order Simulator ***
Warmup Instructions: 50000000
Simulation Instructions: 100000000
Number of CPUs: 1
Page size: 4096
Core 0: /data0/tzh/champsim_traces/SPEC06/464.h264ref-97B.champsimtrace.xz
Off-chip DRAM Size: 16 GiB Channels: 1 Width: 64-bit Data Rate: 3205 MT/s
Warmup halting CPU 0 at instruction 50000005 cycle 12158715 for remainder of phase
Warmup finished CPU 0 instructions: 50000005 cycles: 12158715 cumulative IPC: 4.112 (Simulation time: 00 hr 02 min 35 sec)
Warmup complete CPU 0 instructions: 50000005 cycles: 12158715 cumulative IPC: 4.112 (Simulation time: 00 hr 02 min 35 sec)
Simulation finished CPU 0 instructions: 100000001 cycles: 40375553 cumulative IPC: 2.477 (Simulation time: 00 hr 09 min 32 sec)
Simulation complete CPU 0 instructions: 100000001 cycles: 40375553 cumulative IPC: 2.477 (Simulation time: 00 hr 09 min 32 sec)

ChampSim completed all CPUs

=== Simulation ===
CPU 0 runs /data0/tzh/champsim_traces/SPEC06/464.h264ref-97B.champsimtrace.xz

Region of Interest Statistics

CPU 0 cumulative IPC: 2.477 instructions: 100000001 cycles: 40375553
CPU 0 Branch Prediction Accuracy: 98.71% MPKI: 1.359 Average ROB Occupancy at Mispredict: 132.5
Branch type MPKI
BRANCH_DIRECT_JUMP: 0.01677
BRANCH_INDIRECT: 0.00103
BRANCH_CONDITIONAL: 1.151
BRANCH_DIRECT_CALL: 0.1876
BRANCH_INDIRECT_CALL: 0.00049
BRANCH_RETURN: 0.00201

cpu0->cpu0_STLB TOTAL        ACCESS:      30088 HIT:      29928 MISS:        160 MSHR_MERGE:          0
cpu0->cpu0_STLB LOAD         ACCESS:      30088 HIT:      29928 MISS:        160 MSHR_MERGE:          0
cpu0->cpu0_STLB RFO          ACCESS:          0 HIT:          0 MISS:          0 MSHR_MERGE:          0
cpu0->cpu0_STLB PREFETCH     ACCESS:          0 HIT:          0 MISS:          0 MSHR_MERGE:          0
cpu0->cpu0_STLB WRITE        ACCESS:          0 HIT:          0 MISS:          0 MSHR_MERGE:          0
cpu0->cpu0_STLB TRANSLATION  ACCESS:          0 HIT:          0 MISS:          0 MSHR_MERGE:          0
cpu0->cpu0_STLB PREFETCH REQUESTED:          0 ISSUED:          0 USEFUL:          0 USELESS:          0 LATE:          0
cpu0->cpu0_STLB AVERAGE MISS LATENCY: 181.8 cycles
cpu0->cpu0_L2C TOTAL        ACCESS:     368749 HIT:     194984 MISS:     173765 MSHR_MERGE:          0
cpu0->cpu0_L2C LOAD         ACCESS:     225004 HIT:     114958 MISS:     110046 MSHR_MERGE:          0
cpu0->cpu0_L2C RFO          ACCESS:      70711 HIT:       7244 MISS:      63467 MSHR_MERGE:          0
cpu0->cpu0_L2C PREFETCH     ACCESS:          0 HIT:          0 MISS:          0 MSHR_MERGE:          0
cpu0->cpu0_L2C WRITE        ACCESS:      72905 HIT:      72780 MISS:        125 MSHR_MERGE:          0
cpu0->cpu0_L2C TRANSLATION  ACCESS:        129 HIT:          2 MISS:        127 MSHR_MERGE:          0
cpu0->cpu0_L2C PREFETCH REQUESTED:          0 ISSUED:          0 USEFUL:          0 USELESS:          0 LATE:          0
cpu0->cpu0_L2C AVERAGE MISS LATENCY: 57.47 cycles
cpu0->cpu0_L1I TOTAL        ACCESS:   11277769 HIT:   11266272 MISS:      11497 MSHR_MERGE:       5521
cpu0->cpu0_L1I LOAD         ACCESS:   11277769 HIT:   11266272 MISS:      11497 MSHR_MERGE:       5521
cpu0->cpu0_L1I RFO          ACCESS:          0 HIT:          0 MISS:          0 MSHR_MERGE:          0
cpu0->cpu0_L1I PREFETCH     ACCESS:          0 HIT:          0 MISS:          0 MSHR_MERGE:          0
cpu0->cpu0_L1I WRITE        ACCESS:          0 HIT:          0 MISS:          0 MSHR_MERGE:          0
cpu0->cpu0_L1I TRANSLATION  ACCESS:          0 HIT:          0 MISS:          0 MSHR_MERGE:          0
cpu0->cpu0_L1I PREFETCH REQUESTED:          0 ISSUED:          0 USEFUL:          0 USELESS:          0 LATE:          0
cpu0->cpu0_L1I AVERAGE MISS LATENCY: 86.91 cycles
cpu0->cpu0_L1D TOTAL        ACCESS:   27193594 HIT:   25718840 MISS:    1474754 MSHR_MERGE:    1184886
cpu0->cpu0_L1D LOAD         ACCESS:   20218743 HIT:   19260873 MISS:     957870 MSHR_MERGE:     738842
cpu0->cpu0_L1D RFO          ACCESS:          0 HIT:          0 MISS:          0 MSHR_MERGE:          0
cpu0->cpu0_L1D PREFETCH     ACCESS:          0 HIT:          0 MISS:          0 MSHR_MERGE:          0
cpu0->cpu0_L1D WRITE        ACCESS:    6974535 HIT:    6457783 MISS:     516752 MSHR_MERGE:     446041
cpu0->cpu0_L1D TRANSLATION  ACCESS:        316 HIT:        184 MISS:        132 MSHR_MERGE:          3
cpu0->cpu0_L1D PREFETCH REQUESTED:          0 ISSUED:          0 USEFUL:          0 USELESS:          0 LATE:          0
cpu0->cpu0_L1D AVERAGE MISS LATENCY: 41.43 cycles
cpu0->cpu0_ITLB TOTAL        ACCESS:    9964061 HIT:    9963999 MISS:         62 MSHR_MERGE:         42
cpu0->cpu0_ITLB LOAD         ACCESS:    9964061 HIT:    9963999 MISS:         62 MSHR_MERGE:         42
cpu0->cpu0_ITLB RFO          ACCESS:          0 HIT:          0 MISS:          0 MSHR_MERGE:          0
cpu0->cpu0_ITLB PREFETCH     ACCESS:          0 HIT:          0 MISS:          0 MSHR_MERGE:          0
cpu0->cpu0_ITLB WRITE        ACCESS:          0 HIT:          0 MISS:          0 MSHR_MERGE:          0
cpu0->cpu0_ITLB TRANSLATION  ACCESS:          0 HIT:          0 MISS:          0 MSHR_MERGE:          0
cpu0->cpu0_ITLB PREFETCH REQUESTED:          0 ISSUED:          0 USEFUL:          0 USELESS:          0 LATE:          0
cpu0->cpu0_ITLB AVERAGE MISS LATENCY: 40.65 cycles
cpu0->cpu0_DTLB TOTAL        ACCESS:   26254674 HIT:   26207885 MISS:      46789 MSHR_MERGE:      16721
cpu0->cpu0_DTLB LOAD         ACCESS:   26254674 HIT:   26207885 MISS:      46789 MSHR_MERGE:      16721
cpu0->cpu0_DTLB RFO          ACCESS:          0 HIT:          0 MISS:          0 MSHR_MERGE:          0
cpu0->cpu0_DTLB PREFETCH     ACCESS:          0 HIT:          0 MISS:          0 MSHR_MERGE:          0
cpu0->cpu0_DTLB WRITE        ACCESS:          0 HIT:          0 MISS:          0 MSHR_MERGE:          0
cpu0->cpu0_DTLB TRANSLATION  ACCESS:          0 HIT:          0 MISS:          0 MSHR_MERGE:          0
cpu0->cpu0_DTLB PREFETCH REQUESTED:          0 ISSUED:          0 USEFUL:          0 USELESS:          0 LATE:          0
cpu0->cpu0_DTLB AVERAGE MISS LATENCY: 5.949 cycles
cpu0->LLC TOTAL        ACCESS:     244444 HIT:     192413 MISS:      52031 MSHR_MERGE:          0
cpu0->LLC LOAD         ACCESS:     110046 HIT:      81386 MISS:      28660 MSHR_MERGE:          0
cpu0->LLC RFO          ACCESS:      63467 HIT:      49846 MISS:      13621 MSHR_MERGE:          0
cpu0->LLC PREFETCH     ACCESS:          0 HIT:          0 MISS:          0 MSHR_MERGE:          0
cpu0->LLC WRITE        ACCESS:      70804 HIT:      61121 MISS:       9683 MSHR_MERGE:          0
cpu0->LLC TRANSLATION  ACCESS:        127 HIT:         60 MISS:         67 MSHR_MERGE:          0
cpu0->LLC PREFETCH REQUESTED:          0 ISSUED:          0 USEFUL:          0 USELESS:          0 LATE:          0
cpu0->LLC AVERAGE MISS LATENCY: 142.7 cycles

DRAM Statistics

Channel 0 RQ ROW_BUFFER_HIT:       2074
  ROW_BUFFER_MISS:      40270
  AVG DBUS CONGESTED CYCLE: 16.03
Channel 0 WQ ROW_BUFFER_HIT:       2365
  ROW_BUFFER_MISS:      13324
  FULL:          0
Channel 0 REFRESHES ISSUED:       3364

[ROI Statistics]
[System Configuration]
num_cpus 1
cpu_freq 4000
fetch_width 6
decode_width 6
dispatch_width 6
execute_width 6
lq_width 2
sq_width 2
retire_width 6
scheduler_size 128
branch_mispredict_penalty 15
rob_size 352
lq_size 128
sq_size 72
ifetch_buffer_size 64
decode_buffer_size 32
dispatch_buffer_size 32
register_file_size 288
decode_latency 1
dispatch_latency 1
schedule_latency 1
execute_latency 1
page_size 4096
block_size 64
core_0_itlb_set 16
core_0_itlb_way 4
core_0_itlb_rq_size 16
core_0_itlb_wq_size 16
core_0_itlb_pq_size 0
core_0_itlb_mshr_size 8
core_0_itlb_hit_latency 1
core_0_itlb_fill_latency 1
core_0_itlb_max_tag_check 2
core_0_itlb_max_fill 2
core_0_dtlb_set 16
core_0_dtlb_way 4
core_0_dtlb_rq_size 16
core_0_dtlb_wq_size 16
core_0_dtlb_pq_size 0
core_0_dtlb_mshr_size 8
core_0_dtlb_hit_latency 1
core_0_dtlb_fill_latency 1
core_0_dtlb_max_tag_check 2
core_0_dtlb_max_fill 2
core_0_stlb_set 128
core_0_stlb_way 12
core_0_stlb_rq_size 32
core_0_stlb_wq_size 32
core_0_stlb_pq_size 0
core_0_stlb_mshr_size 16
core_0_stlb_hit_latency 4
core_0_stlb_fill_latency 4
core_0_stlb_max_tag_check 1
core_0_stlb_max_fill 1
core_0_l1i_set 64
core_0_l1i_way 8
core_0_l1i_rq_size 64
core_0_l1i_wq_size 64
core_0_l1i_pq_size 32
core_0_l1i_mshr_size 8
core_0_l1i_hit_latency 2
core_0_l1i_fill_latency 2
core_0_l1i_max_tag_check 2
core_0_l1i_max_fill 2
core_0_l1d_set 64
core_0_l1d_way 12
core_0_l1d_rq_size 64
core_0_l1d_wq_size 64
core_0_l1d_pq_size 8
core_0_l1d_mshr_size 16
core_0_l1d_hit_latency 2
core_0_l1d_fill_latency 3
core_0_l1d_max_tag_check 2
core_0_l1d_max_fill 2
core_0_l2c_set 1024
core_0_l2c_way 8
core_0_l2c_rq_size 32
core_0_l2c_wq_size 32
core_0_l2c_pq_size 16
core_0_l2c_mshr_size 32
core_0_l2c_hit_latency 5
core_0_l2c_fill_latency 5
core_0_l2c_max_tag_check 1
core_0_l2c_max_fill 1
llc_set 2048
llc_way 16
llc_rq_size 32
llc_wq_size 32
llc_pq_size 32
llc_mshr_size 64
llc_hit_latency 10
llc_fill_latency 10
llc_max_tag_check 1
llc_max_fill 1
dram_channels 1
dram_ranks 1
dram_bankgroups 8
dram_banks 4
dram_rows 65536
dram_columns 1024
dram_channel_width 8
dram_rq_size 64
dram_wq_size 64
dram_size 17179869184
core_0_itlb_prefetcher no
core_0_dtlb_prefetcher no
core_0_stlb_prefetcher no
core_0_l1i_prefetcher no
core_0_l1d_prefetcher no
core_0_l2c_prefetcher no
llc_prefetcher no
llc_replacement drrip

Core_0_instructions 100000001
Core_0_cycles 40375553
Core_0_IPC 2.47675
Core_0_branch_prediction_accuracy 98.7127
Core_0_branch_MPKI 1.35927
Core_0_average_ROB_occupancy_at_mispredict 132.466

Core_0_ITLB_total_access 9964061
Core_0_ITLB_total_hit 9963999
Core_0_ITLB_total_miss 62
Core_0_ITLB_total_MPKI 0.00062
Core_0_ITLB_total_miss_rate 6.22236e-06
Core_0_ITLB_demand_access 9964061
Core_0_ITLB_demand_hit 9963999
Core_0_ITLB_demand_miss 62
Core_0_ITLB_demand_MPKI 0.00062
Core_0_ITLB_demand_miss_rate 6.22236e-06
Core_0_ITLB_load_access 9964061
Core_0_ITLB_load_hit 9963999
Core_0_ITLB_load_miss 62
Core_0_ITLB_load_MPKI 0.00062
Core_0_ITLB_load_miss_rate 6.22236e-06
Core_0_ITLB_rfo_access 0
Core_0_ITLB_rfo_hit 0
Core_0_ITLB_rfo_miss 0
Core_0_ITLB_rfo_MPKI 0
Core_0_ITLB_rfo_miss_rate 0
Core_0_ITLB_prefetch_access 0
Core_0_ITLB_prefetch_hit 0
Core_0_ITLB_prefetch_miss 0
Core_0_ITLB_prefetch_MPKI 0
Core_0_ITLB_prefetch_miss_rate 0
Core_0_ITLB_writeback_access 0
Core_0_ITLB_writeback_hit 0
Core_0_ITLB_writeback_miss 0
Core_0_ITLB_writeback_MPKI 0
Core_0_ITLB_writeback_miss_rate 0
Core_0_ITLB_prefetch_requested 0
Core_0_ITLB_prefetch_issued 0
Core_0_ITLB_prefetch_useful 0
Core_0_ITLB_prefetch_useless 0
Core_0_ITLB_prefetch_late 0
Core_0_ITLB_prefetch_accuracy 0
Core_0_ITLB_prefetch_coverage 0

Core_0_DTLB_total_access 26254674
Core_0_DTLB_total_hit 26207885
Core_0_DTLB_total_miss 46789
Core_0_DTLB_total_MPKI 0.46789
Core_0_DTLB_total_miss_rate 0.00178212
Core_0_DTLB_demand_access 26254674
Core_0_DTLB_demand_hit 26207885
Core_0_DTLB_demand_miss 46789
Core_0_DTLB_demand_MPKI 0.46789
Core_0_DTLB_demand_miss_rate 0.00178212
Core_0_DTLB_load_access 26254674
Core_0_DTLB_load_hit 26207885
Core_0_DTLB_load_miss 46789
Core_0_DTLB_load_MPKI 0.46789
Core_0_DTLB_load_miss_rate 0.00178212
Core_0_DTLB_rfo_access 0
Core_0_DTLB_rfo_hit 0
Core_0_DTLB_rfo_miss 0
Core_0_DTLB_rfo_MPKI 0
Core_0_DTLB_rfo_miss_rate 0
Core_0_DTLB_prefetch_access 0
Core_0_DTLB_prefetch_hit 0
Core_0_DTLB_prefetch_miss 0
Core_0_DTLB_prefetch_MPKI 0
Core_0_DTLB_prefetch_miss_rate 0
Core_0_DTLB_writeback_access 0
Core_0_DTLB_writeback_hit 0
Core_0_DTLB_writeback_miss 0
Core_0_DTLB_writeback_MPKI 0
Core_0_DTLB_writeback_miss_rate 0
Core_0_DTLB_prefetch_requested 0
Core_0_DTLB_prefetch_issued 0
Core_0_DTLB_prefetch_useful 0
Core_0_DTLB_prefetch_useless 0
Core_0_DTLB_prefetch_late 0
Core_0_DTLB_prefetch_accuracy 0
Core_0_DTLB_prefetch_coverage 0

Core_0_STLB_total_access 30088
Core_0_STLB_total_hit 29928
Core_0_STLB_total_miss 160
Core_0_STLB_total_MPKI 0.0016
Core_0_STLB_total_miss_rate 0.00531773
Core_0_STLB_demand_access 30088
Core_0_STLB_demand_hit 29928
Core_0_STLB_demand_miss 160
Core_0_STLB_demand_MPKI 0.0016
Core_0_STLB_demand_miss_rate 0.00531773
Core_0_STLB_load_access 30088
Core_0_STLB_load_hit 29928
Core_0_STLB_load_miss 160
Core_0_STLB_load_MPKI 0.0016
Core_0_STLB_load_miss_rate 0.00531773
Core_0_STLB_rfo_access 0
Core_0_STLB_rfo_hit 0
Core_0_STLB_rfo_miss 0
Core_0_STLB_rfo_MPKI 0
Core_0_STLB_rfo_miss_rate 0
Core_0_STLB_prefetch_access 0
Core_0_STLB_prefetch_hit 0
Core_0_STLB_prefetch_miss 0
Core_0_STLB_prefetch_MPKI 0
Core_0_STLB_prefetch_miss_rate 0
Core_0_STLB_writeback_access 0
Core_0_STLB_writeback_hit 0
Core_0_STLB_writeback_miss 0
Core_0_STLB_writeback_MPKI 0
Core_0_STLB_writeback_miss_rate 0
Core_0_STLB_prefetch_requested 0
Core_0_STLB_prefetch_issued 0
Core_0_STLB_prefetch_useful 0
Core_0_STLB_prefetch_useless 0
Core_0_STLB_prefetch_late 0
Core_0_STLB_prefetch_accuracy 0
Core_0_STLB_prefetch_coverage 0

Core_0_L1I_total_access 11277769
Core_0_L1I_total_hit 11266272
Core_0_L1I_total_miss 11497
Core_0_L1I_total_MPKI 0.11497
Core_0_L1I_total_miss_rate 0.00101944
Core_0_L1I_demand_access 11277769
Core_0_L1I_demand_hit 11266272
Core_0_L1I_demand_miss 11497
Core_0_L1I_demand_MPKI 0.11497
Core_0_L1I_demand_miss_rate 0.00101944
Core_0_L1I_load_access 11277769
Core_0_L1I_load_hit 11266272
Core_0_L1I_load_miss 11497
Core_0_L1I_load_MPKI 0.11497
Core_0_L1I_load_miss_rate 0.00101944
Core_0_L1I_rfo_access 0
Core_0_L1I_rfo_hit 0
Core_0_L1I_rfo_miss 0
Core_0_L1I_rfo_MPKI 0
Core_0_L1I_rfo_miss_rate 0
Core_0_L1I_prefetch_access 0
Core_0_L1I_prefetch_hit 0
Core_0_L1I_prefetch_miss 0
Core_0_L1I_prefetch_MPKI 0
Core_0_L1I_prefetch_miss_rate 0
Core_0_L1I_writeback_access 0
Core_0_L1I_writeback_hit 0
Core_0_L1I_writeback_miss 0
Core_0_L1I_writeback_MPKI 0
Core_0_L1I_writeback_miss_rate 0
Core_0_L1I_prefetch_requested 0
Core_0_L1I_prefetch_issued 0
Core_0_L1I_prefetch_useful 0
Core_0_L1I_prefetch_useless 0
Core_0_L1I_prefetch_late 0
Core_0_L1I_prefetch_accuracy 0
Core_0_L1I_prefetch_coverage 0

Core_0_L1D_total_access 27193278
Core_0_L1D_total_hit 25718656
Core_0_L1D_total_miss 1474622
Core_0_L1D_total_MPKI 14.7462
Core_0_L1D_total_miss_rate 0.0542274
Core_0_L1D_demand_access 20218743
Core_0_L1D_demand_hit 19260873
Core_0_L1D_demand_miss 957870
Core_0_L1D_demand_MPKI 9.5787
Core_0_L1D_demand_miss_rate 0.0473753
Core_0_L1D_load_access 20218743
Core_0_L1D_load_hit 19260873
Core_0_L1D_load_miss 957870
Core_0_L1D_load_MPKI 9.5787
Core_0_L1D_load_miss_rate 0.0473753
Core_0_L1D_rfo_access 0
Core_0_L1D_rfo_hit 0
Core_0_L1D_rfo_miss 0
Core_0_L1D_rfo_MPKI 0
Core_0_L1D_rfo_miss_rate 0
Core_0_L1D_prefetch_access 0
Core_0_L1D_prefetch_hit 0
Core_0_L1D_prefetch_miss 0
Core_0_L1D_prefetch_MPKI 0
Core_0_L1D_prefetch_miss_rate 0
Core_0_L1D_writeback_access 6974535
Core_0_L1D_writeback_hit 6457783
Core_0_L1D_writeback_miss 516752
Core_0_L1D_writeback_MPKI 5.16752
Core_0_L1D_writeback_miss_rate 0.0740912
Core_0_L1D_prefetch_requested 0
Core_0_L1D_prefetch_issued 0
Core_0_L1D_prefetch_useful 0
Core_0_L1D_prefetch_useless 0
Core_0_L1D_prefetch_late 0
Core_0_L1D_prefetch_accuracy 0
Core_0_L1D_prefetch_coverage 0

Core_0_L2C_total_access 368620
Core_0_L2C_total_hit 194982
Core_0_L2C_total_miss 173638
Core_0_L2C_total_MPKI 1.73638
Core_0_L2C_total_miss_rate 0.471049
Core_0_L2C_demand_access 295715
Core_0_L2C_demand_hit 122202
Core_0_L2C_demand_miss 173513
Core_0_L2C_demand_MPKI 1.73513
Core_0_L2C_demand_miss_rate 0.586758
Core_0_L2C_load_access 225004
Core_0_L2C_load_hit 114958
Core_0_L2C_load_miss 110046
Core_0_L2C_load_MPKI 1.10046
Core_0_L2C_load_miss_rate 0.489085
Core_0_L2C_rfo_access 70711
Core_0_L2C_rfo_hit 7244
Core_0_L2C_rfo_miss 63467
Core_0_L2C_rfo_MPKI 0.63467
Core_0_L2C_rfo_miss_rate 0.897555
Core_0_L2C_prefetch_access 0
Core_0_L2C_prefetch_hit 0
Core_0_L2C_prefetch_miss 0
Core_0_L2C_prefetch_MPKI 0
Core_0_L2C_prefetch_miss_rate 0
Core_0_L2C_writeback_access 72905
Core_0_L2C_writeback_hit 72780
Core_0_L2C_writeback_miss 125
Core_0_L2C_writeback_MPKI 0.00125
Core_0_L2C_writeback_miss_rate 0.00171456
Core_0_L2C_prefetch_requested 0
Core_0_L2C_prefetch_issued 0
Core_0_L2C_prefetch_useful 0
Core_0_L2C_prefetch_useless 0
Core_0_L2C_prefetch_late 0
Core_0_L2C_prefetch_accuracy 0
Core_0_L2C_prefetch_coverage 0

Core_0_LLC_total_access 244317
Core_0_LLC_total_hit 192353
Core_0_LLC_total_miss 51964
Core_0_LLC_total_MPKI 0.51964
Core_0_LLC_total_miss_rate 0.212691
Core_0_LLC_demand_access 173513
Core_0_LLC_demand_hit 131232
Core_0_LLC_demand_miss 42281
Core_0_LLC_demand_MPKI 0.42281
Core_0_LLC_demand_miss_rate 0.243676
Core_0_LLC_load_access 110046
Core_0_LLC_load_hit 81386
Core_0_LLC_load_miss 28660
Core_0_LLC_load_MPKI 0.2866
Core_0_LLC_load_miss_rate 0.260437
Core_0_LLC_rfo_access 63467
Core_0_LLC_rfo_hit 49846
Core_0_LLC_rfo_miss 13621
Core_0_LLC_rfo_MPKI 0.13621
Core_0_LLC_rfo_miss_rate 0.214615
Core_0_LLC_prefetch_access 0
Core_0_LLC_prefetch_hit 0
Core_0_LLC_prefetch_miss 0
Core_0_LLC_prefetch_MPKI 0
Core_0_LLC_prefetch_miss_rate 0
Core_0_LLC_writeback_access 70804
Core_0_LLC_writeback_hit 61121
Core_0_LLC_writeback_miss 9683
Core_0_LLC_writeback_MPKI 0.09683
Core_0_LLC_writeback_miss_rate 0.136758
Core_0_LLC_prefetch_requested 0
Core_0_LLC_prefetch_issued 0
Core_0_LLC_prefetch_useful 0
Core_0_LLC_prefetch_useless 0
Core_0_LLC_prefetch_late 0
Core_0_LLC_prefetch_accuracy 0
Core_0_LLC_prefetch_coverage 0

[DRAM Statistics]
Channel_0_RQ_row_buffer_hit 2074
Channel_0_RQ_row_buffer_miss 40270
Channel_0_WQ_row_buffer_hit 2365
Channel_0_WQ_row_buffer_miss 13324
Channel_0_WQ_full 0
Channel_0_dbus_congested 122559
DRAM_total_RQ_row_buffer_hit 2074
DRAM_total_RQ_row_buffer_miss 40270
DRAM_total_WQ_row_buffer_hit 2365
DRAM_total_WQ_row_buffer_miss 13324
DRAM_total_WQ_full 0
DRAM_total_dbus_congested 122559
DRAM_avg_congested_cycle 16.0281

====== DRAM_RQ_TRAFFIC ========
DRAM_RQ_READ_TRAFFIC_BREAKDOWN:
data_demand_read.count = 40064
data_demand_read.share = 94.61%

inst_demand_read.count = 2217
inst_demand_read.share = 5.24%

cache_inst_prefetch.count = 0
cache_inst_prefetch.share = 0.00%

cache_data_prefetch.count = 0
cache_data_prefetch.share = 0.00%

stlb_data_demand.count = 64
stlb_data_demand.share = 0.15%

stlb_inst_demand.count = 3
stlb_inst_demand.share = 0.01%

stlb_l1i_pref.count = 0
stlb_l1i_pref.share = 0.00%

stlb_l1d_pref.count = 0
stlb_l1d_pref.share = 0.00%

DRAM_RQ_READ_TRAFFIC_SUMMARY:
cache_demand.count = 42281
cache_demand.share = 99.84%

cache_prefetch.count = 0
cache_prefetch.share = 0.00%

stlb_demand.count = 67
stlb_demand.share = 0.16%

stlb_prefetch.count = 0
stlb_prefetch.share = 0.00%

DRAM_RQ_READ_TRAFFIC_DEBUG:
total_classified_read.count = 42348
unclassified_read.count = 0
total_read_with_other.count = 42348

classified_plus_unclassified_check.count = 42348
dram_rq_read_total_observed.count = 42348
dram_rq_read_total_observed.per_1K_instructions = 0.42348

STLB_MISS_PTW_DRAM_TOUCH_BREAKDOWN:
stlb_miss_total.count = 160

stlb_miss_touch_dram.count = 67
stlb_miss_touch_dram.share = 41.88%

stlb_miss_no_dram_touch.count = 93
stlb_miss_no_dram_touch.share = 58.13%

STLB_MISS_PTW_DRAM_TOUCH_DEBUG:
stlb_miss_touch_plus_no_touch.count = 160
stlb_miss_total_check.count = 160

======STLB miss causes ========
Core_0_STLB_miss_cause_breakdown
Core_0_STLB_cause_Demand_Data_miss 157
Core_0_STLB_cause_Demand_Data_miss_rate 0.00521803
Core_0_STLB_cause_Demand_Instruction_miss 3
Core_0_STLB_cause_Demand_Instruction_miss_rate 9.97075e-05
Core_0_STLB_cause_L1D_Prefetch_miss 0
Core_0_STLB_cause_L1D_Prefetch_miss_rate 0
Core_0_STLB_cause_L1I_Prefetch_miss 0
Core_0_STLB_cause_L1I_Prefetch_miss_rate 0
Core_0_STLB_cause_Other_miss 0
Core_0_STLB_cause_Other_miss_rate 0
Core_0_STLB_Demand_miss 160
Core_0_STLB_Demand_miss_rate 0.00531773
Core_0_STLB_L1D_Prefetch_miss 0
Core_0_STLB_L1D_Prefetch_miss_rate 0
Core_0_STLB_Other_miss 0
Core_0_STLB_Other_miss_rate 0
