[VMEM] WARNING: physical memory size is smaller than virtual memory size.

*** ChampSim Multicore Out-of-Order Simulator ***
Warmup Instructions: 50000000
Simulation Instructions: 100000000
Number of CPUs: 1
Page size: 4096
Core 0: /data0/tzh/champsim_traces/SPEC17/605.mcf_s-1152B.champsimtrace.xz
Off-chip DRAM Size: 16 GiB Channels: 1 Width: 64-bit Data Rate: 3205 MT/s
Warmup halting CPU 0 at instruction 50000002 cycle 14130747 for remainder of phase
Warmup finished CPU 0 instructions: 50000002 cycles: 14130747 cumulative IPC: 3.538 (Simulation time: 00 hr 02 min 44 sec)
Warmup complete CPU 0 instructions: 50000002 cycles: 14130747 cumulative IPC: 3.538 (Simulation time: 00 hr 02 min 44 sec)
Simulation finished CPU 0 instructions: 100000001 cycles: 480990266 cumulative IPC: 0.2079 (Simulation time: 00 hr 32 min 44 sec)
Simulation complete CPU 0 instructions: 100000001 cycles: 480990266 cumulative IPC: 0.2079 (Simulation time: 00 hr 32 min 44 sec)

ChampSim completed all CPUs

=== Simulation ===
CPU 0 runs /data0/tzh/champsim_traces/SPEC17/605.mcf_s-1152B.champsimtrace.xz

Region of Interest Statistics

CPU 0 cumulative IPC: 0.2079 instructions: 100000001 cycles: 480990266
CPU 0 Branch Prediction Accuracy: 89.96% MPKI: 25.29 Average ROB Occupancy at Mispredict: 16.76
Branch type MPKI
BRANCH_DIRECT_JUMP: 0.2189
BRANCH_INDIRECT: 0
BRANCH_CONDITIONAL: 25.07
BRANCH_DIRECT_CALL: 0
BRANCH_INDIRECT_CALL: 0.00067
BRANCH_RETURN: 0

cpu0->cpu0_STLB TOTAL        ACCESS:    2943157 HIT:    2904894 MISS:      38263 MSHR_MERGE:          0
cpu0->cpu0_STLB LOAD         ACCESS:    2943157 HIT:    2904894 MISS:      38263 MSHR_MERGE:          0
cpu0->cpu0_STLB RFO          ACCESS:          0 HIT:          0 MISS:          0 MSHR_MERGE:          0
cpu0->cpu0_STLB PREFETCH     ACCESS:          0 HIT:          0 MISS:          0 MSHR_MERGE:          0
cpu0->cpu0_STLB WRITE        ACCESS:          0 HIT:          0 MISS:          0 MSHR_MERGE:          0
cpu0->cpu0_STLB TRANSLATION  ACCESS:          0 HIT:          0 MISS:          0 MSHR_MERGE:          0
cpu0->cpu0_STLB PREFETCH REQUESTED:          0 ISSUED:          0 USEFUL:          0 USELESS:          0 LATE:          0
cpu0->cpu0_STLB AVERAGE MISS LATENCY: 184.8 cycles
cpu0->cpu0_L2C TOTAL        ACCESS:    6240281 HIT:    1767898 MISS:    4472383 MSHR_MERGE:          0
cpu0->cpu0_L2C LOAD         ACCESS:    5395148 HIT:    1061565 MISS:    4333583 MSHR_MERGE:          0
cpu0->cpu0_L2C RFO          ACCESS:     340772 HIT:     216323 MISS:     124449 MSHR_MERGE:          0
cpu0->cpu0_L2C PREFETCH     ACCESS:          0 HIT:          0 MISS:          0 MSHR_MERGE:          0
cpu0->cpu0_L2C WRITE        ACCESS:     488416 HIT:     487709 MISS:        707 MSHR_MERGE:          0
cpu0->cpu0_L2C TRANSLATION  ACCESS:      15945 HIT:       2301 MISS:      13644 MSHR_MERGE:          0
cpu0->cpu0_L2C PREFETCH REQUESTED:          0 ISSUED:          0 USEFUL:          0 USELESS:          0 LATE:          0
cpu0->cpu0_L2C AVERAGE MISS LATENCY: 89.1 cycles
cpu0->cpu0_L1I TOTAL        ACCESS:     438641 HIT:     438641 MISS:          0 MSHR_MERGE:          0
cpu0->cpu0_L1I LOAD         ACCESS:     438641 HIT:     438641 MISS:          0 MSHR_MERGE:          0
cpu0->cpu0_L1I RFO          ACCESS:          0 HIT:          0 MISS:          0 MSHR_MERGE:          0
cpu0->cpu0_L1I PREFETCH     ACCESS:          0 HIT:          0 MISS:          0 MSHR_MERGE:          0
cpu0->cpu0_L1I WRITE        ACCESS:          0 HIT:          0 MISS:          0 MSHR_MERGE:          0
cpu0->cpu0_L1I TRANSLATION  ACCESS:          0 HIT:          0 MISS:          0 MSHR_MERGE:          0
cpu0->cpu0_L1I PREFETCH REQUESTED:          0 ISSUED:          0 USEFUL:          0 USELESS:          0 LATE:          0
cpu0->cpu0_L1I AVERAGE MISS LATENCY: - cycles
cpu0->cpu0_L1D TOTAL        ACCESS:   37217765 HIT:   29369038 MISS:    7848727 MSHR_MERGE:    2096856
cpu0->cpu0_L1D LOAD         ACCESS:   27252811 HIT:   20360290 MISS:    6892521 MSHR_MERGE:    1497367
cpu0->cpu0_L1D RFO          ACCESS:          0 HIT:          0 MISS:          0 MSHR_MERGE:          0
cpu0->cpu0_L1D PREFETCH     ACCESS:          0 HIT:          0 MISS:          0 MSHR_MERGE:          0
cpu0->cpu0_L1D WRITE        ACCESS:    9888132 HIT:    8947881 MISS:     940251 MSHR_MERGE:     599479
cpu0->cpu0_L1D TRANSLATION  ACCESS:      76822 HIT:      60867 MISS:      15955 MSHR_MERGE:         10
cpu0->cpu0_L1D PREFETCH REQUESTED:          0 ISSUED:          0 USEFUL:          0 USELESS:          0 LATE:          0
cpu0->cpu0_L1D AVERAGE MISS LATENCY: 78.07 cycles
cpu0->cpu0_ITLB TOTAL        ACCESS:     390159 HIT:     390159 MISS:          0 MSHR_MERGE:          0
cpu0->cpu0_ITLB LOAD         ACCESS:     390159 HIT:     390159 MISS:          0 MSHR_MERGE:          0
cpu0->cpu0_ITLB RFO          ACCESS:          0 HIT:          0 MISS:          0 MSHR_MERGE:          0
cpu0->cpu0_ITLB PREFETCH     ACCESS:          0 HIT:          0 MISS:          0 MSHR_MERGE:          0
cpu0->cpu0_ITLB WRITE        ACCESS:          0 HIT:          0 MISS:          0 MSHR_MERGE:          0
cpu0->cpu0_ITLB TRANSLATION  ACCESS:          0 HIT:          0 MISS:          0 MSHR_MERGE:          0
cpu0->cpu0_ITLB PREFETCH REQUESTED:          0 ISSUED:          0 USEFUL:          0 USELESS:          0 LATE:          0
cpu0->cpu0_ITLB AVERAGE MISS LATENCY: - cycles
cpu0->cpu0_DTLB TOTAL        ACCESS:   35655719 HIT:   31967697 MISS:    3688022 MSHR_MERGE:     744865
cpu0->cpu0_DTLB LOAD         ACCESS:   35655719 HIT:   31967697 MISS:    3688022 MSHR_MERGE:     744865
cpu0->cpu0_DTLB RFO          ACCESS:          0 HIT:          0 MISS:          0 MSHR_MERGE:          0
cpu0->cpu0_DTLB PREFETCH     ACCESS:          0 HIT:          0 MISS:          0 MSHR_MERGE:          0
cpu0->cpu0_DTLB WRITE        ACCESS:          0 HIT:          0 MISS:          0 MSHR_MERGE:          0
cpu0->cpu0_DTLB TRANSLATION  ACCESS:          0 HIT:          0 MISS:          0 MSHR_MERGE:          0
cpu0->cpu0_DTLB PREFETCH REQUESTED:          0 ISSUED:          0 USEFUL:          0 USELESS:          0 LATE:          0
cpu0->cpu0_DTLB AVERAGE MISS LATENCY: 7.415 cycles
cpu0->LLC TOTAL        ACCESS:    4752160 HIT:    2753568 MISS:    1998592 MSHR_MERGE:          0
cpu0->LLC LOAD         ACCESS:    4333582 HIT:    2344877 MISS:    1988705 MSHR_MERGE:          0
cpu0->LLC RFO          ACCESS:     124449 HIT:     122901 MISS:       1548 MSHR_MERGE:          0
cpu0->LLC PREFETCH     ACCESS:          0 HIT:          0 MISS:          0 MSHR_MERGE:          0
cpu0->LLC WRITE        ACCESS:     280485 HIT:     277905 MISS:       2580 MSHR_MERGE:          0
cpu0->LLC TRANSLATION  ACCESS:      13644 HIT:       7885 MISS:       5759 MSHR_MERGE:          0
cpu0->LLC PREFETCH REQUESTED:          0 ISSUED:          0 USEFUL:          0 USELESS:          0 LATE:          0
cpu0->LLC AVERAGE MISS LATENCY: 164.8 cycles

DRAM Statistics

Channel 0 RQ ROW_BUFFER_HIT:     279916
  ROW_BUFFER_MISS:    1716094
  AVG DBUS CONGESTED CYCLE: 7.536
Channel 0 WQ ROW_BUFFER_HIT:       1261
  ROW_BUFFER_MISS:       6183
  FULL:          0
Channel 0 REFRESHES ISSUED:      40083

[ROI Statistics]
[System Configuration]
num_cpus 1
cpu_freq 4000
fetch_width 6
decode_width 6
dispatch_width 6
execute_width 6
lq_width 2
sq_width 2
retire_width 6
scheduler_size 128
branch_mispredict_penalty 15
rob_size 352
lq_size 128
sq_size 72
ifetch_buffer_size 64
decode_buffer_size 32
dispatch_buffer_size 32
register_file_size 288
decode_latency 1
dispatch_latency 1
schedule_latency 1
execute_latency 1
page_size 4096
block_size 64
core_0_itlb_set 16
core_0_itlb_way 4
core_0_itlb_rq_size 16
core_0_itlb_wq_size 16
core_0_itlb_pq_size 0
core_0_itlb_mshr_size 8
core_0_itlb_hit_latency 1
core_0_itlb_fill_latency 1
core_0_itlb_max_tag_check 2
core_0_itlb_max_fill 2
core_0_dtlb_set 16
core_0_dtlb_way 4
core_0_dtlb_rq_size 16
core_0_dtlb_wq_size 16
core_0_dtlb_pq_size 0
core_0_dtlb_mshr_size 8
core_0_dtlb_hit_latency 1
core_0_dtlb_fill_latency 1
core_0_dtlb_max_tag_check 2
core_0_dtlb_max_fill 2
core_0_stlb_set 128
core_0_stlb_way 12
core_0_stlb_rq_size 32
core_0_stlb_wq_size 32
core_0_stlb_pq_size 0
core_0_stlb_mshr_size 16
core_0_stlb_hit_latency 4
core_0_stlb_fill_latency 4
core_0_stlb_max_tag_check 1
core_0_stlb_max_fill 1
core_0_l1i_set 64
core_0_l1i_way 8
core_0_l1i_rq_size 64
core_0_l1i_wq_size 64
core_0_l1i_pq_size 32
core_0_l1i_mshr_size 8
core_0_l1i_hit_latency 2
core_0_l1i_fill_latency 2
core_0_l1i_max_tag_check 2
core_0_l1i_max_fill 2
core_0_l1d_set 64
core_0_l1d_way 12
core_0_l1d_rq_size 64
core_0_l1d_wq_size 64
core_0_l1d_pq_size 8
core_0_l1d_mshr_size 16
core_0_l1d_hit_latency 2
core_0_l1d_fill_latency 3
core_0_l1d_max_tag_check 2
core_0_l1d_max_fill 2
core_0_l2c_set 1024
core_0_l2c_way 8
core_0_l2c_rq_size 32
core_0_l2c_wq_size 32
core_0_l2c_pq_size 16
core_0_l2c_mshr_size 32
core_0_l2c_hit_latency 5
core_0_l2c_fill_latency 5
core_0_l2c_max_tag_check 1
core_0_l2c_max_fill 1
llc_set 2048
llc_way 16
llc_rq_size 32
llc_wq_size 32
llc_pq_size 32
llc_mshr_size 64
llc_hit_latency 10
llc_fill_latency 10
llc_max_tag_check 1
llc_max_fill 1
dram_channels 1
dram_ranks 1
dram_bankgroups 8
dram_banks 4
dram_rows 65536
dram_columns 1024
dram_channel_width 8
dram_rq_size 64
dram_wq_size 64
dram_size 17179869184
core_0_itlb_prefetcher no
core_0_dtlb_prefetcher no
core_0_stlb_prefetcher no
core_0_l1i_prefetcher no
core_0_l1d_prefetcher no
core_0_l2c_prefetcher no
llc_prefetcher no
llc_replacement drrip

Core_0_instructions 100000001
Core_0_cycles 480990266
Core_0_IPC 0.207904
Core_0_branch_prediction_accuracy 89.9647
Core_0_branch_MPKI 25.2912
Core_0_average_ROB_occupancy_at_mispredict 16.7569

Core_0_ITLB_total_access 390159
Core_0_ITLB_total_hit 390159
Core_0_ITLB_total_miss 0
Core_0_ITLB_total_MPKI 0
Core_0_ITLB_total_miss_rate 0
Core_0_ITLB_demand_access 390159
Core_0_ITLB_demand_hit 390159
Core_0_ITLB_demand_miss 0
Core_0_ITLB_demand_MPKI 0
Core_0_ITLB_demand_miss_rate 0
Core_0_ITLB_load_access 390159
Core_0_ITLB_load_hit 390159
Core_0_ITLB_load_miss 0
Core_0_ITLB_load_MPKI 0
Core_0_ITLB_load_miss_rate 0
Core_0_ITLB_rfo_access 0
Core_0_ITLB_rfo_hit 0
Core_0_ITLB_rfo_miss 0
Core_0_ITLB_rfo_MPKI 0
Core_0_ITLB_rfo_miss_rate 0
Core_0_ITLB_prefetch_access 0
Core_0_ITLB_prefetch_hit 0
Core_0_ITLB_prefetch_miss 0
Core_0_ITLB_prefetch_MPKI 0
Core_0_ITLB_prefetch_miss_rate 0
Core_0_ITLB_writeback_access 0
Core_0_ITLB_writeback_hit 0
Core_0_ITLB_writeback_miss 0
Core_0_ITLB_writeback_MPKI 0
Core_0_ITLB_writeback_miss_rate 0
Core_0_ITLB_prefetch_requested 0
Core_0_ITLB_prefetch_issued 0
Core_0_ITLB_prefetch_useful 0
Core_0_ITLB_prefetch_useless 0
Core_0_ITLB_prefetch_late 0
Core_0_ITLB_prefetch_accuracy 0
Core_0_ITLB_prefetch_coverage 0

Core_0_DTLB_total_access 35655719
Core_0_DTLB_total_hit 31967697
Core_0_DTLB_total_miss 3688022
Core_0_DTLB_total_MPKI 36.8802
Core_0_DTLB_total_miss_rate 0.103434
Core_0_DTLB_demand_access 35655719
Core_0_DTLB_demand_hit 31967697
Core_0_DTLB_demand_miss 3688022
Core_0_DTLB_demand_MPKI 36.8802
Core_0_DTLB_demand_miss_rate 0.103434
Core_0_DTLB_load_access 35655719
Core_0_DTLB_load_hit 31967697
Core_0_DTLB_load_miss 3688022
Core_0_DTLB_load_MPKI 36.8802
Core_0_DTLB_load_miss_rate 0.103434
Core_0_DTLB_rfo_access 0
Core_0_DTLB_rfo_hit 0
Core_0_DTLB_rfo_miss 0
Core_0_DTLB_rfo_MPKI 0
Core_0_DTLB_rfo_miss_rate 0
Core_0_DTLB_prefetch_access 0
Core_0_DTLB_prefetch_hit 0
Core_0_DTLB_prefetch_miss 0
Core_0_DTLB_prefetch_MPKI 0
Core_0_DTLB_prefetch_miss_rate 0
Core_0_DTLB_writeback_access 0
Core_0_DTLB_writeback_hit 0
Core_0_DTLB_writeback_miss 0
Core_0_DTLB_writeback_MPKI 0
Core_0_DTLB_writeback_miss_rate 0
Core_0_DTLB_prefetch_requested 0
Core_0_DTLB_prefetch_issued 0
Core_0_DTLB_prefetch_useful 0
Core_0_DTLB_prefetch_useless 0
Core_0_DTLB_prefetch_late 0
Core_0_DTLB_prefetch_accuracy 0
Core_0_DTLB_prefetch_coverage 0

Core_0_STLB_total_access 2943157
Core_0_STLB_total_hit 2904894
Core_0_STLB_total_miss 38263
Core_0_STLB_total_MPKI 0.38263
Core_0_STLB_total_miss_rate 0.0130007
Core_0_STLB_demand_access 2943157
Core_0_STLB_demand_hit 2904894
Core_0_STLB_demand_miss 38263
Core_0_STLB_demand_MPKI 0.38263
Core_0_STLB_demand_miss_rate 0.0130007
Core_0_STLB_load_access 2943157
Core_0_STLB_load_hit 2904894
Core_0_STLB_load_miss 38263
Core_0_STLB_load_MPKI 0.38263
Core_0_STLB_load_miss_rate 0.0130007
Core_0_STLB_rfo_access 0
Core_0_STLB_rfo_hit 0
Core_0_STLB_rfo_miss 0
Core_0_STLB_rfo_MPKI 0
Core_0_STLB_rfo_miss_rate 0
Core_0_STLB_prefetch_access 0
Core_0_STLB_prefetch_hit 0
Core_0_STLB_prefetch_miss 0
Core_0_STLB_prefetch_MPKI 0
Core_0_STLB_prefetch_miss_rate 0
Core_0_STLB_writeback_access 0
Core_0_STLB_writeback_hit 0
Core_0_STLB_writeback_miss 0
Core_0_STLB_writeback_MPKI 0
Core_0_STLB_writeback_miss_rate 0
Core_0_STLB_prefetch_requested 0
Core_0_STLB_prefetch_issued 0
Core_0_STLB_prefetch_useful 0
Core_0_STLB_prefetch_useless 0
Core_0_STLB_prefetch_late 0
Core_0_STLB_prefetch_accuracy 0
Core_0_STLB_prefetch_coverage 0

Core_0_L1I_total_access 438641
Core_0_L1I_total_hit 438641
Core_0_L1I_total_miss 0
Core_0_L1I_total_MPKI 0
Core_0_L1I_total_miss_rate 0
Core_0_L1I_demand_access 438641
Core_0_L1I_demand_hit 438641
Core_0_L1I_demand_miss 0
Core_0_L1I_demand_MPKI 0
Core_0_L1I_demand_miss_rate 0
Core_0_L1I_load_access 438641
Core_0_L1I_load_hit 438641
Core_0_L1I_load_miss 0
Core_0_L1I_load_MPKI 0
Core_0_L1I_load_miss_rate 0
Core_0_L1I_rfo_access 0
Core_0_L1I_rfo_hit 0
Core_0_L1I_rfo_miss 0
Core_0_L1I_rfo_MPKI 0
Core_0_L1I_rfo_miss_rate 0
Core_0_L1I_prefetch_access 0
Core_0_L1I_prefetch_hit 0
Core_0_L1I_prefetch_miss 0
Core_0_L1I_prefetch_MPKI 0
Core_0_L1I_prefetch_miss_rate 0
Core_0_L1I_writeback_access 0
Core_0_L1I_writeback_hit 0
Core_0_L1I_writeback_miss 0
Core_0_L1I_writeback_MPKI 0
Core_0_L1I_writeback_miss_rate 0
Core_0_L1I_prefetch_requested 0
Core_0_L1I_prefetch_issued 0
Core_0_L1I_prefetch_useful 0
Core_0_L1I_prefetch_useless 0
Core_0_L1I_prefetch_late 0
Core_0_L1I_prefetch_accuracy 0
Core_0_L1I_prefetch_coverage 0

Core_0_L1D_total_access 37140943
Core_0_L1D_total_hit 29308171
Core_0_L1D_total_miss 7832772
Core_0_L1D_total_MPKI 78.3277
Core_0_L1D_total_miss_rate 0.210893
Core_0_L1D_demand_access 27252811
Core_0_L1D_demand_hit 20360290
Core_0_L1D_demand_miss 6892521
Core_0_L1D_demand_MPKI 68.9252
Core_0_L1D_demand_miss_rate 0.25291
Core_0_L1D_load_access 27252811
Core_0_L1D_load_hit 20360290
Core_0_L1D_load_miss 6892521
Core_0_L1D_load_MPKI 68.9252
Core_0_L1D_load_miss_rate 0.25291
Core_0_L1D_rfo_access 0
Core_0_L1D_rfo_hit 0
Core_0_L1D_rfo_miss 0
Core_0_L1D_rfo_MPKI 0
Core_0_L1D_rfo_miss_rate 0
Core_0_L1D_prefetch_access 0
Core_0_L1D_prefetch_hit 0
Core_0_L1D_prefetch_miss 0
Core_0_L1D_prefetch_MPKI 0
Core_0_L1D_prefetch_miss_rate 0
Core_0_L1D_writeback_access 9888132
Core_0_L1D_writeback_hit 8947881
Core_0_L1D_writeback_miss 940251
Core_0_L1D_writeback_MPKI 9.40251
Core_0_L1D_writeback_miss_rate 0.0950888
Core_0_L1D_prefetch_requested 0
Core_0_L1D_prefetch_issued 0
Core_0_L1D_prefetch_useful 0
Core_0_L1D_prefetch_useless 0
Core_0_L1D_prefetch_late 0
Core_0_L1D_prefetch_accuracy 0
Core_0_L1D_prefetch_coverage 0

Core_0_L2C_total_access 6224336
Core_0_L2C_total_hit 1765597
Core_0_L2C_total_miss 4458739
Core_0_L2C_total_MPKI 44.5874
Core_0_L2C_total_miss_rate 0.71634
Core_0_L2C_demand_access 5735920
Core_0_L2C_demand_hit 1277888
Core_0_L2C_demand_miss 4458032
Core_0_L2C_demand_MPKI 44.5803
Core_0_L2C_demand_miss_rate 0.777213
Core_0_L2C_load_access 5395148
Core_0_L2C_load_hit 1061565
Core_0_L2C_load_miss 4333583
Core_0_L2C_load_MPKI 43.3358
Core_0_L2C_load_miss_rate 0.803237
Core_0_L2C_rfo_access 340772
Core_0_L2C_rfo_hit 216323
Core_0_L2C_rfo_miss 124449
Core_0_L2C_rfo_MPKI 1.24449
Core_0_L2C_rfo_miss_rate 0.365197
Core_0_L2C_prefetch_access 0
Core_0_L2C_prefetch_hit 0
Core_0_L2C_prefetch_miss 0
Core_0_L2C_prefetch_MPKI 0
Core_0_L2C_prefetch_miss_rate 0
Core_0_L2C_writeback_access 488416
Core_0_L2C_writeback_hit 487709
Core_0_L2C_writeback_miss 707
Core_0_L2C_writeback_MPKI 0.00707
Core_0_L2C_writeback_miss_rate 0.00144754
Core_0_L2C_prefetch_requested 0
Core_0_L2C_prefetch_issued 0
Core_0_L2C_prefetch_useful 0
Core_0_L2C_prefetch_useless 0
Core_0_L2C_prefetch_late 0
Core_0_L2C_prefetch_accuracy 0
Core_0_L2C_prefetch_coverage 0

Core_0_LLC_total_access 4738516
Core_0_LLC_total_hit 2745683
Core_0_LLC_total_miss 1992833
Core_0_LLC_total_MPKI 19.9283
Core_0_LLC_total_miss_rate 0.420561
Core_0_LLC_demand_access 4458031
Core_0_LLC_demand_hit 2467778
Core_0_LLC_demand_miss 1990253
Core_0_LLC_demand_MPKI 19.9025
Core_0_LLC_demand_miss_rate 0.446442
Core_0_LLC_load_access 4333582
Core_0_LLC_load_hit 2344877
Core_0_LLC_load_miss 1988705
Core_0_LLC_load_MPKI 19.887
Core_0_LLC_load_miss_rate 0.458906
Core_0_LLC_rfo_access 124449
Core_0_LLC_rfo_hit 122901
Core_0_LLC_rfo_miss 1548
Core_0_LLC_rfo_MPKI 0.01548
Core_0_LLC_rfo_miss_rate 0.0124388
Core_0_LLC_prefetch_access 0
Core_0_LLC_prefetch_hit 0
Core_0_LLC_prefetch_miss 0
Core_0_LLC_prefetch_MPKI 0
Core_0_LLC_prefetch_miss_rate 0
Core_0_LLC_writeback_access 280485
Core_0_LLC_writeback_hit 277905
Core_0_LLC_writeback_miss 2580
Core_0_LLC_writeback_MPKI 0.0258
Core_0_LLC_writeback_miss_rate 0.00919835
Core_0_LLC_prefetch_requested 0
Core_0_LLC_prefetch_issued 0
Core_0_LLC_prefetch_useful 0
Core_0_LLC_prefetch_useless 0
Core_0_LLC_prefetch_late 0
Core_0_LLC_prefetch_accuracy 0
Core_0_LLC_prefetch_coverage 0

[DRAM Statistics]
Channel_0_RQ_row_buffer_hit 279916
Channel_0_RQ_row_buffer_miss 1716094
Channel_0_WQ_row_buffer_hit 1261
Channel_0_WQ_row_buffer_miss 6183
Channel_0_WQ_full 0
Channel_0_dbus_congested 1408606
DRAM_total_RQ_row_buffer_hit 279916
DRAM_total_RQ_row_buffer_miss 1716094
DRAM_total_WQ_row_buffer_hit 1261
DRAM_total_WQ_row_buffer_miss 6183
DRAM_total_WQ_full 0
DRAM_total_dbus_congested 1408606
DRAM_avg_congested_cycle 7.53596

====== DRAM_RQ_TRAFFIC ========
DRAM_RQ_READ_TRAFFIC_BREAKDOWN:
data_demand_read.count = 1990253
data_demand_read.share = 99.71%

inst_demand_read.count = 0
inst_demand_read.share = 0.00%

cache_inst_prefetch.count = 0
cache_inst_prefetch.share = 0.00%

cache_data_prefetch.count = 0
cache_data_prefetch.share = 0.00%

stlb_data_demand.count = 5759
stlb_data_demand.share = 0.29%

stlb_inst_demand.count = 0
stlb_inst_demand.share = 0.00%

stlb_l1i_pref.count = 0
stlb_l1i_pref.share = 0.00%

stlb_l1d_pref.count = 0
stlb_l1d_pref.share = 0.00%

DRAM_RQ_READ_TRAFFIC_SUMMARY:
cache_demand.count = 1990253
cache_demand.share = 99.71%

cache_prefetch.count = 0
cache_prefetch.share = 0.00%

stlb_demand.count = 5759
stlb_demand.share = 0.29%

stlb_prefetch.count = 0
stlb_prefetch.share = 0.00%

DRAM_RQ_READ_TRAFFIC_DEBUG:
total_classified_read.count = 1996012
unclassified_read.count = 0
total_read_with_other.count = 1996012

classified_plus_unclassified_check.count = 1996012
dram_rq_read_total_observed.count = 1996012
dram_rq_read_total_observed.per_1K_instructions = 19.9601

STLB_MISS_PTW_DRAM_TOUCH_BREAKDOWN:
stlb_miss_total.count = 38263

stlb_miss_touch_dram.count = 5479
stlb_miss_touch_dram.share = 14.32%

stlb_miss_no_dram_touch.count = 32784
stlb_miss_no_dram_touch.share = 85.68%

STLB_MISS_PTW_DRAM_TOUCH_DEBUG:
stlb_miss_touch_plus_no_touch.count = 38263
stlb_miss_total_check.count = 38263

======STLB miss causes ========
Core_0_STLB_miss_cause_breakdown
Core_0_STLB_cause_Demand_Data_miss 38263
Core_0_STLB_cause_Demand_Data_miss_rate 0.0130007
Core_0_STLB_cause_Demand_Instruction_miss 0
Core_0_STLB_cause_Demand_Instruction_miss_rate 0
Core_0_STLB_cause_L1D_Prefetch_miss 0
Core_0_STLB_cause_L1D_Prefetch_miss_rate 0
Core_0_STLB_cause_L1I_Prefetch_miss 0
Core_0_STLB_cause_L1I_Prefetch_miss_rate 0
Core_0_STLB_cause_Other_miss 0
Core_0_STLB_cause_Other_miss_rate 0
Core_0_STLB_Demand_miss 38263
Core_0_STLB_Demand_miss_rate 0.0130007
Core_0_STLB_L1D_Prefetch_miss 0
Core_0_STLB_L1D_Prefetch_miss_rate 0
Core_0_STLB_Other_miss 0
Core_0_STLB_Other_miss_rate 0
