[VMEM] WARNING: physical memory size is smaller than virtual memory size.

*** ChampSim Multicore Out-of-Order Simulator ***
Warmup Instructions: 50000000
Simulation Instructions: 100000000
Number of CPUs: 1
Page size: 4096
Core 0: /data0/tzh/champsim_traces/SPEC17/623.xalancbmk_s-592B.champsimtrace.xz
Off-chip DRAM Size: 16 GiB Channels: 1 Width: 64-bit Data Rate: 3205 MT/s
Warmup halting CPU 0 at instruction 50000000 cycle 11976916 for remainder of phase
Warmup finished CPU 0 instructions: 50000000 cycles: 11976916 cumulative IPC: 4.175 (Simulation time: 00 hr 02 min 38 sec)
Warmup complete CPU 0 instructions: 50000000 cycles: 11976916 cumulative IPC: 4.175 (Simulation time: 00 hr 02 min 38 sec)
Simulation finished CPU 0 instructions: 100000000 cycles: 85332557 cumulative IPC: 1.172 (Simulation time: 00 hr 12 min 54 sec)
Simulation complete CPU 0 instructions: 100000000 cycles: 85332557 cumulative IPC: 1.172 (Simulation time: 00 hr 12 min 54 sec)

ChampSim completed all CPUs

=== Simulation ===
CPU 0 runs /data0/tzh/champsim_traces/SPEC17/623.xalancbmk_s-592B.champsimtrace.xz

Region of Interest Statistics

CPU 0 cumulative IPC: 1.172 instructions: 100000000 cycles: 85332557
CPU 0 Branch Prediction Accuracy: 98.32% MPKI: 4.959 Average ROB Occupancy at Mispredict: 53.69
Branch type MPKI
BRANCH_DIRECT_JUMP: 0.09886
BRANCH_INDIRECT: 0.3208
BRANCH_CONDITIONAL: 2.904
BRANCH_DIRECT_CALL: 0.0002
BRANCH_INDIRECT_CALL: 0.3342
BRANCH_RETURN: 1.302

cpu0->cpu0_STLB TOTAL        ACCESS:    2330794 HIT:    2202286 MISS:     128508 MSHR_MERGE:          0
cpu0->cpu0_STLB LOAD         ACCESS:    2330794 HIT:    2202286 MISS:     128508 MSHR_MERGE:          0
cpu0->cpu0_STLB RFO          ACCESS:          0 HIT:          0 MISS:          0 MSHR_MERGE:          0
cpu0->cpu0_STLB PREFETCH     ACCESS:          0 HIT:          0 MISS:          0 MSHR_MERGE:          0
cpu0->cpu0_STLB WRITE        ACCESS:          0 HIT:          0 MISS:          0 MSHR_MERGE:          0
cpu0->cpu0_STLB TRANSLATION  ACCESS:          0 HIT:          0 MISS:          0 MSHR_MERGE:          0
cpu0->cpu0_STLB PREFETCH REQUESTED:          0 ISSUED:          0 USEFUL:          0 USELESS:          0 LATE:          0
cpu0->cpu0_STLB AVERAGE MISS LATENCY: 23.03 cycles
cpu0->cpu0_L2C TOTAL        ACCESS:    4690299 HIT:    4395971 MISS:     294328 MSHR_MERGE:          0
cpu0->cpu0_L2C LOAD         ACCESS:    4151839 HIT:    4008918 MISS:     142921 MSHR_MERGE:          0
cpu0->cpu0_L2C RFO          ACCESS:     169723 HIT:      24855 MISS:     144868 MSHR_MERGE:          0
cpu0->cpu0_L2C PREFETCH     ACCESS:          0 HIT:          0 MISS:          0 MSHR_MERGE:          0
cpu0->cpu0_L2C WRITE        ACCESS:     247276 HIT:     247274 MISS:          2 MSHR_MERGE:          0
cpu0->cpu0_L2C TRANSLATION  ACCESS:     121461 HIT:     114924 MISS:       6537 MSHR_MERGE:          0
cpu0->cpu0_L2C PREFETCH REQUESTED:          0 ISSUED:          0 USEFUL:          0 USELESS:          0 LATE:          0
cpu0->cpu0_L2C AVERAGE MISS LATENCY: 125.3 cycles
cpu0->cpu0_L1I TOTAL        ACCESS:   18897729 HIT:   18571208 MISS:     326521 MSHR_MERGE:      98623
cpu0->cpu0_L1I LOAD         ACCESS:   18897729 HIT:   18571208 MISS:     326521 MSHR_MERGE:      98623
cpu0->cpu0_L1I RFO          ACCESS:          0 HIT:          0 MISS:          0 MSHR_MERGE:          0
cpu0->cpu0_L1I PREFETCH     ACCESS:          0 HIT:          0 MISS:          0 MSHR_MERGE:          0
cpu0->cpu0_L1I WRITE        ACCESS:          0 HIT:          0 MISS:          0 MSHR_MERGE:          0
cpu0->cpu0_L1I TRANSLATION  ACCESS:          0 HIT:          0 MISS:          0 MSHR_MERGE:          0
cpu0->cpu0_L1I PREFETCH REQUESTED:          0 ISSUED:          0 USEFUL:          0 USELESS:          0 LATE:          0
cpu0->cpu0_L1I AVERAGE MISS LATENCY: 8.588 cycles
cpu0->cpu0_L1D TOTAL        ACCESS:   24367410 HIT:   18091641 MISS:    6275769 MSHR_MERGE:    2060642
cpu0->cpu0_L1D LOAD         ACCESS:   17744233 HIT:   12239171 MISS:    5505062 MSHR_MERGE:    1581121
cpu0->cpu0_L1D RFO          ACCESS:          0 HIT:          0 MISS:          0 MSHR_MERGE:          0
cpu0->cpu0_L1D PREFETCH     ACCESS:          0 HIT:          0 MISS:          0 MSHR_MERGE:          0
cpu0->cpu0_L1D WRITE        ACCESS:    6366145 HIT:    5717324 MISS:     648821 MSHR_MERGE:     479096
cpu0->cpu0_L1D TRANSLATION  ACCESS:     257032 HIT:     135146 MISS:     121886 MSHR_MERGE:        425
cpu0->cpu0_L1D PREFETCH REQUESTED:          0 ISSUED:          0 USEFUL:          0 USELESS:          0 LATE:          0
cpu0->cpu0_L1D AVERAGE MISS LATENCY: 16.89 cycles
cpu0->cpu0_ITLB TOTAL        ACCESS:   17712643 HIT:   17634869 MISS:      77774 MSHR_MERGE:      45018
cpu0->cpu0_ITLB LOAD         ACCESS:   17712643 HIT:   17634869 MISS:      77774 MSHR_MERGE:      45018
cpu0->cpu0_ITLB RFO          ACCESS:          0 HIT:          0 MISS:          0 MSHR_MERGE:          0
cpu0->cpu0_ITLB PREFETCH     ACCESS:          0 HIT:          0 MISS:          0 MSHR_MERGE:          0
cpu0->cpu0_ITLB WRITE        ACCESS:          0 HIT:          0 MISS:          0 MSHR_MERGE:          0
cpu0->cpu0_ITLB TRANSLATION  ACCESS:          0 HIT:          0 MISS:          0 MSHR_MERGE:          0
cpu0->cpu0_ITLB PREFETCH REQUESTED:          0 ISSUED:          0 USEFUL:          0 USELESS:          0 LATE:          0
cpu0->cpu0_ITLB AVERAGE MISS LATENCY: 6.333 cycles
cpu0->cpu0_DTLB TOTAL        ACCESS:   23417373 HIT:   19942383 MISS:    3474990 MSHR_MERGE:    1176952
cpu0->cpu0_DTLB LOAD         ACCESS:   23417373 HIT:   19942383 MISS:    3474990 MSHR_MERGE:    1176952
cpu0->cpu0_DTLB RFO          ACCESS:          0 HIT:          0 MISS:          0 MSHR_MERGE:          0
cpu0->cpu0_DTLB PREFETCH     ACCESS:          0 HIT:          0 MISS:          0 MSHR_MERGE:          0
cpu0->cpu0_DTLB WRITE        ACCESS:          0 HIT:          0 MISS:          0 MSHR_MERGE:          0
cpu0->cpu0_DTLB TRANSLATION  ACCESS:          0 HIT:          0 MISS:          0 MSHR_MERGE:          0
cpu0->cpu0_DTLB PREFETCH REQUESTED:          0 ISSUED:          0 USEFUL:          0 USELESS:          0 LATE:          0
cpu0->cpu0_DTLB AVERAGE MISS LATENCY: 6.325 cycles
cpu0->LLC TOTAL        ACCESS:     462592 HIT:     229713 MISS:     232879 MSHR_MERGE:          0
cpu0->LLC LOAD         ACCESS:     142921 HIT:     118315 MISS:      24606 MSHR_MERGE:          0
cpu0->LLC RFO          ACCESS:     144868 HIT:       3172 MISS:     141696 MSHR_MERGE:          0
cpu0->LLC PREFETCH     ACCESS:          0 HIT:          0 MISS:          0 MSHR_MERGE:          0
cpu0->LLC WRITE        ACCESS:     168266 HIT:     103373 MISS:      64893 MSHR_MERGE:          0
cpu0->LLC TRANSLATION  ACCESS:       6537 HIT:       4853 MISS:       1684 MSHR_MERGE:          0
cpu0->LLC PREFETCH REQUESTED:          0 ISSUED:          0 USEFUL:          0 USELESS:          0 LATE:          0
cpu0->LLC AVERAGE MISS LATENCY: 141.2 cycles

DRAM Statistics

Channel 0 RQ ROW_BUFFER_HIT:      13848
  ROW_BUFFER_MISS:     154138
  AVG DBUS CONGESTED CYCLE: 8.004
Channel 0 WQ ROW_BUFFER_HIT:      14546
  ROW_BUFFER_MISS:     143510
  FULL:          0
Channel 0 REFRESHES ISSUED:       7111

[ROI Statistics]
[System Configuration]
num_cpus 1
cpu_freq 4000
fetch_width 6
decode_width 6
dispatch_width 6
execute_width 6
lq_width 2
sq_width 2
retire_width 6
scheduler_size 128
branch_mispredict_penalty 15
rob_size 352
lq_size 128
sq_size 72
ifetch_buffer_size 64
decode_buffer_size 32
dispatch_buffer_size 32
register_file_size 288
decode_latency 1
dispatch_latency 1
schedule_latency 1
execute_latency 1
page_size 4096
block_size 64
core_0_itlb_set 16
core_0_itlb_way 4
core_0_itlb_rq_size 16
core_0_itlb_wq_size 16
core_0_itlb_pq_size 0
core_0_itlb_mshr_size 8
core_0_itlb_hit_latency 1
core_0_itlb_fill_latency 1
core_0_itlb_max_tag_check 2
core_0_itlb_max_fill 2
core_0_dtlb_set 16
core_0_dtlb_way 4
core_0_dtlb_rq_size 16
core_0_dtlb_wq_size 16
core_0_dtlb_pq_size 0
core_0_dtlb_mshr_size 8
core_0_dtlb_hit_latency 1
core_0_dtlb_fill_latency 1
core_0_dtlb_max_tag_check 2
core_0_dtlb_max_fill 2
core_0_stlb_set 128
core_0_stlb_way 12
core_0_stlb_rq_size 32
core_0_stlb_wq_size 32
core_0_stlb_pq_size 0
core_0_stlb_mshr_size 16
core_0_stlb_hit_latency 4
core_0_stlb_fill_latency 4
core_0_stlb_max_tag_check 1
core_0_stlb_max_fill 1
core_0_l1i_set 64
core_0_l1i_way 8
core_0_l1i_rq_size 64
core_0_l1i_wq_size 64
core_0_l1i_pq_size 32
core_0_l1i_mshr_size 8
core_0_l1i_hit_latency 2
core_0_l1i_fill_latency 2
core_0_l1i_max_tag_check 2
core_0_l1i_max_fill 2
core_0_l1d_set 64
core_0_l1d_way 12
core_0_l1d_rq_size 64
core_0_l1d_wq_size 64
core_0_l1d_pq_size 8
core_0_l1d_mshr_size 16
core_0_l1d_hit_latency 2
core_0_l1d_fill_latency 3
core_0_l1d_max_tag_check 2
core_0_l1d_max_fill 2
core_0_l2c_set 1024
core_0_l2c_way 8
core_0_l2c_rq_size 32
core_0_l2c_wq_size 32
core_0_l2c_pq_size 16
core_0_l2c_mshr_size 32
core_0_l2c_hit_latency 5
core_0_l2c_fill_latency 5
core_0_l2c_max_tag_check 1
core_0_l2c_max_fill 1
llc_set 2048
llc_way 16
llc_rq_size 32
llc_wq_size 32
llc_pq_size 32
llc_mshr_size 64
llc_hit_latency 10
llc_fill_latency 10
llc_max_tag_check 1
llc_max_fill 1
dram_channels 1
dram_ranks 1
dram_bankgroups 8
dram_banks 4
dram_rows 65536
dram_columns 1024
dram_channel_width 8
dram_rq_size 64
dram_wq_size 64
dram_size 17179869184
core_0_itlb_prefetcher no
core_0_dtlb_prefetcher no
core_0_stlb_prefetcher no
core_0_l1i_prefetcher no
core_0_l1d_prefetcher no
core_0_l2c_prefetcher no
llc_prefetcher no
llc_replacement drrip

Core_0_instructions 100000000
Core_0_cycles 85332557
Core_0_IPC 1.17189
Core_0_branch_prediction_accuracy 98.3246
Core_0_branch_MPKI 4.95945
Core_0_average_ROB_occupancy_at_mispredict 53.6924

Core_0_ITLB_total_access 17712643
Core_0_ITLB_total_hit 17634869
Core_0_ITLB_total_miss 77774
Core_0_ITLB_total_MPKI 0.77774
Core_0_ITLB_total_miss_rate 0.00439087
Core_0_ITLB_demand_access 17712643
Core_0_ITLB_demand_hit 17634869
Core_0_ITLB_demand_miss 77774
Core_0_ITLB_demand_MPKI 0.77774
Core_0_ITLB_demand_miss_rate 0.00439087
Core_0_ITLB_load_access 17712643
Core_0_ITLB_load_hit 17634869
Core_0_ITLB_load_miss 77774
Core_0_ITLB_load_MPKI 0.77774
Core_0_ITLB_load_miss_rate 0.00439087
Core_0_ITLB_rfo_access 0
Core_0_ITLB_rfo_hit 0
Core_0_ITLB_rfo_miss 0
Core_0_ITLB_rfo_MPKI 0
Core_0_ITLB_rfo_miss_rate 0
Core_0_ITLB_prefetch_access 0
Core_0_ITLB_prefetch_hit 0
Core_0_ITLB_prefetch_miss 0
Core_0_ITLB_prefetch_MPKI 0
Core_0_ITLB_prefetch_miss_rate 0
Core_0_ITLB_writeback_access 0
Core_0_ITLB_writeback_hit 0
Core_0_ITLB_writeback_miss 0
Core_0_ITLB_writeback_MPKI 0
Core_0_ITLB_writeback_miss_rate 0
Core_0_ITLB_prefetch_requested 0
Core_0_ITLB_prefetch_issued 0
Core_0_ITLB_prefetch_useful 0
Core_0_ITLB_prefetch_useless 0
Core_0_ITLB_prefetch_late 0
Core_0_ITLB_prefetch_accuracy 0
Core_0_ITLB_prefetch_coverage 0

Core_0_DTLB_total_access 23417373
Core_0_DTLB_total_hit 19942383
Core_0_DTLB_total_miss 3474990
Core_0_DTLB_total_MPKI 34.7499
Core_0_DTLB_total_miss_rate 0.148394
Core_0_DTLB_demand_access 23417373
Core_0_DTLB_demand_hit 19942383
Core_0_DTLB_demand_miss 3474990
Core_0_DTLB_demand_MPKI 34.7499
Core_0_DTLB_demand_miss_rate 0.148394
Core_0_DTLB_load_access 23417373
Core_0_DTLB_load_hit 19942383
Core_0_DTLB_load_miss 3474990
Core_0_DTLB_load_MPKI 34.7499
Core_0_DTLB_load_miss_rate 0.148394
Core_0_DTLB_rfo_access 0
Core_0_DTLB_rfo_hit 0
Core_0_DTLB_rfo_miss 0
Core_0_DTLB_rfo_MPKI 0
Core_0_DTLB_rfo_miss_rate 0
Core_0_DTLB_prefetch_access 0
Core_0_DTLB_prefetch_hit 0
Core_0_DTLB_prefetch_miss 0
Core_0_DTLB_prefetch_MPKI 0
Core_0_DTLB_prefetch_miss_rate 0
Core_0_DTLB_writeback_access 0
Core_0_DTLB_writeback_hit 0
Core_0_DTLB_writeback_miss 0
Core_0_DTLB_writeback_MPKI 0
Core_0_DTLB_writeback_miss_rate 0
Core_0_DTLB_prefetch_requested 0
Core_0_DTLB_prefetch_issued 0
Core_0_DTLB_prefetch_useful 0
Core_0_DTLB_prefetch_useless 0
Core_0_DTLB_prefetch_late 0
Core_0_DTLB_prefetch_accuracy 0
Core_0_DTLB_prefetch_coverage 0

Core_0_STLB_total_access 2330794
Core_0_STLB_total_hit 2202286
Core_0_STLB_total_miss 128508
Core_0_STLB_total_MPKI 1.28508
Core_0_STLB_total_miss_rate 0.0551349
Core_0_STLB_demand_access 2330794
Core_0_STLB_demand_hit 2202286
Core_0_STLB_demand_miss 128508
Core_0_STLB_demand_MPKI 1.28508
Core_0_STLB_demand_miss_rate 0.0551349
Core_0_STLB_load_access 2330794
Core_0_STLB_load_hit 2202286
Core_0_STLB_load_miss 128508
Core_0_STLB_load_MPKI 1.28508
Core_0_STLB_load_miss_rate 0.0551349
Core_0_STLB_rfo_access 0
Core_0_STLB_rfo_hit 0
Core_0_STLB_rfo_miss 0
Core_0_STLB_rfo_MPKI 0
Core_0_STLB_rfo_miss_rate 0
Core_0_STLB_prefetch_access 0
Core_0_STLB_prefetch_hit 0
Core_0_STLB_prefetch_miss 0
Core_0_STLB_prefetch_MPKI 0
Core_0_STLB_prefetch_miss_rate 0
Core_0_STLB_writeback_access 0
Core_0_STLB_writeback_hit 0
Core_0_STLB_writeback_miss 0
Core_0_STLB_writeback_MPKI 0
Core_0_STLB_writeback_miss_rate 0
Core_0_STLB_prefetch_requested 0
Core_0_STLB_prefetch_issued 0
Core_0_STLB_prefetch_useful 0
Core_0_STLB_prefetch_useless 0
Core_0_STLB_prefetch_late 0
Core_0_STLB_prefetch_accuracy 0
Core_0_STLB_prefetch_coverage 0

Core_0_L1I_total_access 18897729
Core_0_L1I_total_hit 18571208
Core_0_L1I_total_miss 326521
Core_0_L1I_total_MPKI 3.26521
Core_0_L1I_total_miss_rate 0.0172783
Core_0_L1I_demand_access 18897729
Core_0_L1I_demand_hit 18571208
Core_0_L1I_demand_miss 326521
Core_0_L1I_demand_MPKI 3.26521
Core_0_L1I_demand_miss_rate 0.0172783
Core_0_L1I_load_access 18897729
Core_0_L1I_load_hit 18571208
Core_0_L1I_load_miss 326521
Core_0_L1I_load_MPKI 3.26521
Core_0_L1I_load_miss_rate 0.0172783
Core_0_L1I_rfo_access 0
Core_0_L1I_rfo_hit 0
Core_0_L1I_rfo_miss 0
Core_0_L1I_rfo_MPKI 0
Core_0_L1I_rfo_miss_rate 0
Core_0_L1I_prefetch_access 0
Core_0_L1I_prefetch_hit 0
Core_0_L1I_prefetch_miss 0
Core_0_L1I_prefetch_MPKI 0
Core_0_L1I_prefetch_miss_rate 0
Core_0_L1I_writeback_access 0
Core_0_L1I_writeback_hit 0
Core_0_L1I_writeback_miss 0
Core_0_L1I_writeback_MPKI 0
Core_0_L1I_writeback_miss_rate 0
Core_0_L1I_prefetch_requested 0
Core_0_L1I_prefetch_issued 0
Core_0_L1I_prefetch_useful 0
Core_0_L1I_prefetch_useless 0
Core_0_L1I_prefetch_late 0
Core_0_L1I_prefetch_accuracy 0
Core_0_L1I_prefetch_coverage 0

Core_0_L1D_total_access 24110378
Core_0_L1D_total_hit 17956495
Core_0_L1D_total_miss 6153883
Core_0_L1D_total_MPKI 61.5388
Core_0_L1D_total_miss_rate 0.255238
Core_0_L1D_demand_access 17744233
Core_0_L1D_demand_hit 12239171
Core_0_L1D_demand_miss 5505062
Core_0_L1D_demand_MPKI 55.0506
Core_0_L1D_demand_miss_rate 0.310245
Core_0_L1D_load_access 17744233
Core_0_L1D_load_hit 12239171
Core_0_L1D_load_miss 5505062
Core_0_L1D_load_MPKI 55.0506
Core_0_L1D_load_miss_rate 0.310245
Core_0_L1D_rfo_access 0
Core_0_L1D_rfo_hit 0
Core_0_L1D_rfo_miss 0
Core_0_L1D_rfo_MPKI 0
Core_0_L1D_rfo_miss_rate 0
Core_0_L1D_prefetch_access 0
Core_0_L1D_prefetch_hit 0
Core_0_L1D_prefetch_miss 0
Core_0_L1D_prefetch_MPKI 0
Core_0_L1D_prefetch_miss_rate 0
Core_0_L1D_writeback_access 6366145
Core_0_L1D_writeback_hit 5717324
Core_0_L1D_writeback_miss 648821
Core_0_L1D_writeback_MPKI 6.48821
Core_0_L1D_writeback_miss_rate 0.101917
Core_0_L1D_prefetch_requested 0
Core_0_L1D_prefetch_issued 0
Core_0_L1D_prefetch_useful 0
Core_0_L1D_prefetch_useless 0
Core_0_L1D_prefetch_late 0
Core_0_L1D_prefetch_accuracy 0
Core_0_L1D_prefetch_coverage 0

Core_0_L2C_total_access 4568838
Core_0_L2C_total_hit 4281047
Core_0_L2C_total_miss 287791
Core_0_L2C_total_MPKI 2.87791
Core_0_L2C_total_miss_rate 0.06299
Core_0_L2C_demand_access 4321562
Core_0_L2C_demand_hit 4033773
Core_0_L2C_demand_miss 287789
Core_0_L2C_demand_MPKI 2.87789
Core_0_L2C_demand_miss_rate 0.0665937
Core_0_L2C_load_access 4151839
Core_0_L2C_load_hit 4008918
Core_0_L2C_load_miss 142921
Core_0_L2C_load_MPKI 1.42921
Core_0_L2C_load_miss_rate 0.0344235
Core_0_L2C_rfo_access 169723
Core_0_L2C_rfo_hit 24855
Core_0_L2C_rfo_miss 144868
Core_0_L2C_rfo_MPKI 1.44868
Core_0_L2C_rfo_miss_rate 0.853555
Core_0_L2C_prefetch_access 0
Core_0_L2C_prefetch_hit 0
Core_0_L2C_prefetch_miss 0
Core_0_L2C_prefetch_MPKI 0
Core_0_L2C_prefetch_miss_rate 0
Core_0_L2C_writeback_access 247276
Core_0_L2C_writeback_hit 247274
Core_0_L2C_writeback_miss 2
Core_0_L2C_writeback_MPKI 2e-05
Core_0_L2C_writeback_miss_rate 8.08813e-06
Core_0_L2C_prefetch_requested 0
Core_0_L2C_prefetch_issued 0
Core_0_L2C_prefetch_useful 0
Core_0_L2C_prefetch_useless 0
Core_0_L2C_prefetch_late 0
Core_0_L2C_prefetch_accuracy 0
Core_0_L2C_prefetch_coverage 0

Core_0_LLC_total_access 456055
Core_0_LLC_total_hit 224860
Core_0_LLC_total_miss 231195
Core_0_LLC_total_MPKI 2.31195
Core_0_LLC_total_miss_rate 0.506945
Core_0_LLC_demand_access 287789
Core_0_LLC_demand_hit 121487
Core_0_LLC_demand_miss 166302
Core_0_LLC_demand_MPKI 1.66302
Core_0_LLC_demand_miss_rate 0.577861
Core_0_LLC_load_access 142921
Core_0_LLC_load_hit 118315
Core_0_LLC_load_miss 24606
Core_0_LLC_load_MPKI 0.24606
Core_0_LLC_load_miss_rate 0.172165
Core_0_LLC_rfo_access 144868
Core_0_LLC_rfo_hit 3172
Core_0_LLC_rfo_miss 141696
Core_0_LLC_rfo_MPKI 1.41696
Core_0_LLC_rfo_miss_rate 0.978104
Core_0_LLC_prefetch_access 0
Core_0_LLC_prefetch_hit 0
Core_0_LLC_prefetch_miss 0
Core_0_LLC_prefetch_MPKI 0
Core_0_LLC_prefetch_miss_rate 0
Core_0_LLC_writeback_access 168266
Core_0_LLC_writeback_hit 103373
Core_0_LLC_writeback_miss 64893
Core_0_LLC_writeback_MPKI 0.64893
Core_0_LLC_writeback_miss_rate 0.385657
Core_0_LLC_prefetch_requested 0
Core_0_LLC_prefetch_issued 0
Core_0_LLC_prefetch_useful 0
Core_0_LLC_prefetch_useless 0
Core_0_LLC_prefetch_late 0
Core_0_LLC_prefetch_accuracy 0
Core_0_LLC_prefetch_coverage 0

[DRAM Statistics]
Channel_0_RQ_row_buffer_hit 13848
Channel_0_RQ_row_buffer_miss 154138
Channel_0_WQ_row_buffer_hit 14546
Channel_0_WQ_row_buffer_miss 143510
Channel_0_WQ_full 0
Channel_0_dbus_congested 805810
DRAM_total_RQ_row_buffer_hit 13848
DRAM_total_RQ_row_buffer_miss 154138
DRAM_total_WQ_row_buffer_hit 14546
DRAM_total_WQ_row_buffer_miss 143510
DRAM_total_WQ_full 0
DRAM_total_dbus_congested 805810
DRAM_avg_congested_cycle 8.00447

====== DRAM_RQ_TRAFFIC ========
DRAM_RQ_READ_TRAFFIC_BREAKDOWN:
data_demand_read.count = 165044
data_demand_read.share = 98.25%

inst_demand_read.count = 1258
inst_demand_read.share = 0.75%

cache_inst_prefetch.count = 0
cache_inst_prefetch.share = 0.00%

cache_data_prefetch.count = 0
cache_data_prefetch.share = 0.00%

stlb_data_demand.count = 1619
stlb_data_demand.share = 0.96%

stlb_inst_demand.count = 65
stlb_inst_demand.share = 0.04%

stlb_l1i_pref.count = 0
stlb_l1i_pref.share = 0.00%

stlb_l1d_pref.count = 0
stlb_l1d_pref.share = 0.00%

DRAM_RQ_READ_TRAFFIC_SUMMARY:
cache_demand.count = 166302
cache_demand.share = 99.00%

cache_prefetch.count = 0
cache_prefetch.share = 0.00%

stlb_demand.count = 1684
stlb_demand.share = 1.00%

stlb_prefetch.count = 0
stlb_prefetch.share = 0.00%

DRAM_RQ_READ_TRAFFIC_DEBUG:
total_classified_read.count = 167986
unclassified_read.count = 0
total_read_with_other.count = 167986

classified_plus_unclassified_check.count = 167986
dram_rq_read_total_observed.count = 167986
dram_rq_read_total_observed.per_1K_instructions = 1.67986

STLB_MISS_PTW_DRAM_TOUCH_BREAKDOWN:
stlb_miss_total.count = 128508

stlb_miss_touch_dram.count = 1677
stlb_miss_touch_dram.share = 1.30%

stlb_miss_no_dram_touch.count = 126831
stlb_miss_no_dram_touch.share = 98.70%

STLB_MISS_PTW_DRAM_TOUCH_DEBUG:
stlb_miss_touch_plus_no_touch.count = 128508
stlb_miss_total_check.count = 128508

======STLB miss causes ========
Core_0_STLB_miss_cause_breakdown
Core_0_STLB_cause_Demand_Data_miss 126723
Core_0_STLB_cause_Demand_Data_miss_rate 0.054369
Core_0_STLB_cause_Demand_Instruction_miss 1785
Core_0_STLB_cause_Demand_Instruction_miss_rate 0.000765833
Core_0_STLB_cause_L1D_Prefetch_miss 0
Core_0_STLB_cause_L1D_Prefetch_miss_rate 0
Core_0_STLB_cause_L1I_Prefetch_miss 0
Core_0_STLB_cause_L1I_Prefetch_miss_rate 0
Core_0_STLB_cause_Other_miss 0
Core_0_STLB_cause_Other_miss_rate 0
Core_0_STLB_Demand_miss 128508
Core_0_STLB_Demand_miss_rate 0.0551349
Core_0_STLB_L1D_Prefetch_miss 0
Core_0_STLB_L1D_Prefetch_miss_rate 0
Core_0_STLB_Other_miss 0
Core_0_STLB_Other_miss_rate 0
