[VMEM] WARNING: physical memory size is smaller than virtual memory size.

*** ChampSim Multicore Out-of-Order Simulator ***
Warmup Instructions: 50000000
Simulation Instructions: 100000000
Number of CPUs: 1
Page size: 4096
Core 0: /data0/tzh/champsim_traces/SPEC17/654.roms_s-294B.champsimtrace.xz
Off-chip DRAM Size: 16 GiB Channels: 1 Width: 64-bit Data Rate: 3205 MT/s
Warmup halting CPU 0 at instruction 50000003 cycle 10880125 for remainder of phase
Warmup finished CPU 0 instructions: 50000003 cycles: 10880125 cumulative IPC: 4.596 (Simulation time: 00 hr 02 min 08 sec)
Warmup complete CPU 0 instructions: 50000003 cycles: 10880125 cumulative IPC: 4.596 (Simulation time: 00 hr 02 min 08 sec)
Simulation finished CPU 0 instructions: 100000003 cycles: 89481456 cumulative IPC: 1.118 (Simulation time: 00 hr 13 min 31 sec)
Simulation complete CPU 0 instructions: 100000003 cycles: 89481456 cumulative IPC: 1.118 (Simulation time: 00 hr 13 min 31 sec)

ChampSim completed all CPUs

=== Simulation ===
CPU 0 runs /data0/tzh/champsim_traces/SPEC17/654.roms_s-294B.champsimtrace.xz

Region of Interest Statistics

CPU 0 cumulative IPC: 1.118 instructions: 100000003 cycles: 89481456
CPU 0 Branch Prediction Accuracy: 99.93% MPKI: 0.03474 Average ROB Occupancy at Mispredict: 337.4
Branch type MPKI
BRANCH_DIRECT_JUMP: 0
BRANCH_INDIRECT: 0
BRANCH_CONDITIONAL: 0.03474
BRANCH_DIRECT_CALL: 0
BRANCH_INDIRECT_CALL: 0
BRANCH_RETURN: 0

cpu0->cpu0_STLB TOTAL        ACCESS:      40628 HIT:       7752 MISS:      32876 MSHR_MERGE:          0
cpu0->cpu0_STLB LOAD         ACCESS:      40628 HIT:       7752 MISS:      32876 MSHR_MERGE:          0
cpu0->cpu0_STLB RFO          ACCESS:          0 HIT:          0 MISS:          0 MSHR_MERGE:          0
cpu0->cpu0_STLB PREFETCH     ACCESS:          0 HIT:          0 MISS:          0 MSHR_MERGE:          0
cpu0->cpu0_STLB WRITE        ACCESS:          0 HIT:          0 MISS:          0 MSHR_MERGE:          0
cpu0->cpu0_STLB TRANSLATION  ACCESS:          0 HIT:          0 MISS:          0 MSHR_MERGE:          0
cpu0->cpu0_STLB PREFETCH REQUESTED:          0 ISSUED:          0 USEFUL:          0 USELESS:          0 LATE:          0
cpu0->cpu0_STLB AVERAGE MISS LATENCY: 301.7 cycles
cpu0->cpu0_L2C TOTAL        ACCESS:    1353249 HIT:      33136 MISS:    1320113 MSHR_MERGE:          0
cpu0->cpu0_L2C LOAD         ACCESS:    1292341 HIT:      19202 MISS:    1273139 MSHR_MERGE:          0
cpu0->cpu0_L2C RFO          ACCESS:      10550 HIT:          2 MISS:      10548 MSHR_MERGE:          0
cpu0->cpu0_L2C PREFETCH     ACCESS:          0 HIT:          0 MISS:          0 MSHR_MERGE:          0
cpu0->cpu0_L2C WRITE        ACCESS:      22968 HIT:      13587 MISS:       9381 MSHR_MERGE:          0
cpu0->cpu0_L2C TRANSLATION  ACCESS:      27390 HIT:        345 MISS:      27045 MSHR_MERGE:          0
cpu0->cpu0_L2C PREFETCH REQUESTED:          0 ISSUED:          0 USEFUL:          0 USELESS:          0 LATE:          0
cpu0->cpu0_L2C AVERAGE MISS LATENCY: 200.6 cycles
cpu0->cpu0_L1I TOTAL        ACCESS:   19602507 HIT:   19602507 MISS:          0 MSHR_MERGE:          0
cpu0->cpu0_L1I LOAD         ACCESS:   19602507 HIT:   19602507 MISS:          0 MSHR_MERGE:          0
cpu0->cpu0_L1I RFO          ACCESS:          0 HIT:          0 MISS:          0 MSHR_MERGE:          0
cpu0->cpu0_L1I PREFETCH     ACCESS:          0 HIT:          0 MISS:          0 MSHR_MERGE:          0
cpu0->cpu0_L1I WRITE        ACCESS:          0 HIT:          0 MISS:          0 MSHR_MERGE:          0
cpu0->cpu0_L1I TRANSLATION  ACCESS:          0 HIT:          0 MISS:          0 MSHR_MERGE:          0
cpu0->cpu0_L1I PREFETCH REQUESTED:          0 ISSUED:          0 USEFUL:          0 USELESS:          0 LATE:          0
cpu0->cpu0_L1I AVERAGE MISS LATENCY: - cycles
cpu0->cpu0_L1D TOTAL        ACCESS:   29692614 HIT:   25343181 MISS:    4349433 MSHR_MERGE:    3019150
cpu0->cpu0_L1D LOAD         ACCESS:   26209978 HIT:   21949929 MISS:    4260049 MSHR_MERGE:    2967706
cpu0->cpu0_L1D RFO          ACCESS:          0 HIT:          0 MISS:          0 MSHR_MERGE:          0
cpu0->cpu0_L1D PREFETCH     ACCESS:          0 HIT:          0 MISS:          0 MSHR_MERGE:          0
cpu0->cpu0_L1D WRITE        ACCESS:    3400350 HIT:    3338418 MISS:      61932 MSHR_MERGE:      51382
cpu0->cpu0_L1D TRANSLATION  ACCESS:      82286 HIT:      54834 MISS:      27452 MSHR_MERGE:         62
cpu0->cpu0_L1D PREFETCH REQUESTED:          0 ISSUED:          0 USEFUL:          0 USELESS:          0 LATE:          0
cpu0->cpu0_L1D AVERAGE MISS LATENCY: 208 cycles
cpu0->cpu0_ITLB TOTAL        ACCESS:   15933537 HIT:   15933537 MISS:          0 MSHR_MERGE:          0
cpu0->cpu0_ITLB LOAD         ACCESS:   15933537 HIT:   15933537 MISS:          0 MSHR_MERGE:          0
cpu0->cpu0_ITLB RFO          ACCESS:          0 HIT:          0 MISS:          0 MSHR_MERGE:          0
cpu0->cpu0_ITLB PREFETCH     ACCESS:          0 HIT:          0 MISS:          0 MSHR_MERGE:          0
cpu0->cpu0_ITLB WRITE        ACCESS:          0 HIT:          0 MISS:          0 MSHR_MERGE:          0
cpu0->cpu0_ITLB TRANSLATION  ACCESS:          0 HIT:          0 MISS:          0 MSHR_MERGE:          0
cpu0->cpu0_ITLB PREFETCH REQUESTED:          0 ISSUED:          0 USEFUL:          0 USELESS:          0 LATE:          0
cpu0->cpu0_ITLB AVERAGE MISS LATENCY: - cycles
cpu0->cpu0_DTLB TOTAL        ACCESS:   29122018 HIT:   28987748 MISS:     134270 MSHR_MERGE:      93642
cpu0->cpu0_DTLB LOAD         ACCESS:   29122018 HIT:   28987748 MISS:     134270 MSHR_MERGE:      93642
cpu0->cpu0_DTLB RFO          ACCESS:          0 HIT:          0 MISS:          0 MSHR_MERGE:          0
cpu0->cpu0_DTLB PREFETCH     ACCESS:          0 HIT:          0 MISS:          0 MSHR_MERGE:          0
cpu0->cpu0_DTLB WRITE        ACCESS:          0 HIT:          0 MISS:          0 MSHR_MERGE:          0
cpu0->cpu0_DTLB TRANSLATION  ACCESS:          0 HIT:          0 MISS:          0 MSHR_MERGE:          0
cpu0->cpu0_DTLB PREFETCH REQUESTED:          0 ISSUED:          0 USEFUL:          0 USELESS:          0 LATE:          0
cpu0->cpu0_DTLB AVERAGE MISS LATENCY: 250 cycles
cpu0->LLC TOTAL        ACCESS:    1324527 HIT:     192970 MISS:    1131557 MSHR_MERGE:          0
cpu0->LLC LOAD         ACCESS:    1273139 HIT:     166055 MISS:    1107084 MSHR_MERGE:          0
cpu0->LLC RFO          ACCESS:      10548 HIT:         78 MISS:      10470 MSHR_MERGE:          0
cpu0->LLC PREFETCH     ACCESS:          0 HIT:          0 MISS:          0 MSHR_MERGE:          0
cpu0->LLC WRITE        ACCESS:      13795 HIT:      10018 MISS:       3777 MSHR_MERGE:          0
cpu0->LLC TRANSLATION  ACCESS:      27045 HIT:      16819 MISS:      10226 MSHR_MERGE:          0
cpu0->LLC PREFETCH REQUESTED:          0 ISSUED:          0 USEFUL:          0 USELESS:          0 LATE:          0
cpu0->LLC AVERAGE MISS LATENCY: 215.7 cycles

DRAM Statistics

Channel 0 RQ ROW_BUFFER_HIT:       1492
  ROW_BUFFER_MISS:    1126287
  AVG DBUS CONGESTED CYCLE: 6.638
Channel 0 WQ ROW_BUFFER_HIT:       2227
  ROW_BUFFER_MISS:       8678
  FULL:          0
Channel 0 REFRESHES ISSUED:       7457

[ROI Statistics]
[System Configuration]
num_cpus 1
cpu_freq 4000
fetch_width 6
decode_width 6
dispatch_width 6
execute_width 6
lq_width 2
sq_width 2
retire_width 6
scheduler_size 128
branch_mispredict_penalty 15
rob_size 352
lq_size 128
sq_size 72
ifetch_buffer_size 64
decode_buffer_size 32
dispatch_buffer_size 32
register_file_size 288
decode_latency 1
dispatch_latency 1
schedule_latency 1
execute_latency 1
page_size 4096
block_size 64
core_0_itlb_set 16
core_0_itlb_way 4
core_0_itlb_rq_size 16
core_0_itlb_wq_size 16
core_0_itlb_pq_size 0
core_0_itlb_mshr_size 8
core_0_itlb_hit_latency 1
core_0_itlb_fill_latency 1
core_0_itlb_max_tag_check 2
core_0_itlb_max_fill 2
core_0_dtlb_set 16
core_0_dtlb_way 4
core_0_dtlb_rq_size 16
core_0_dtlb_wq_size 16
core_0_dtlb_pq_size 0
core_0_dtlb_mshr_size 8
core_0_dtlb_hit_latency 1
core_0_dtlb_fill_latency 1
core_0_dtlb_max_tag_check 2
core_0_dtlb_max_fill 2
core_0_stlb_set 128
core_0_stlb_way 12
core_0_stlb_rq_size 32
core_0_stlb_wq_size 32
core_0_stlb_pq_size 0
core_0_stlb_mshr_size 16
core_0_stlb_hit_latency 4
core_0_stlb_fill_latency 4
core_0_stlb_max_tag_check 1
core_0_stlb_max_fill 1
core_0_l1i_set 64
core_0_l1i_way 8
core_0_l1i_rq_size 64
core_0_l1i_wq_size 64
core_0_l1i_pq_size 32
core_0_l1i_mshr_size 8
core_0_l1i_hit_latency 2
core_0_l1i_fill_latency 2
core_0_l1i_max_tag_check 2
core_0_l1i_max_fill 2
core_0_l1d_set 64
core_0_l1d_way 12
core_0_l1d_rq_size 64
core_0_l1d_wq_size 64
core_0_l1d_pq_size 8
core_0_l1d_mshr_size 16
core_0_l1d_hit_latency 2
core_0_l1d_fill_latency 3
core_0_l1d_max_tag_check 2
core_0_l1d_max_fill 2
core_0_l2c_set 1024
core_0_l2c_way 8
core_0_l2c_rq_size 32
core_0_l2c_wq_size 32
core_0_l2c_pq_size 16
core_0_l2c_mshr_size 32
core_0_l2c_hit_latency 5
core_0_l2c_fill_latency 5
core_0_l2c_max_tag_check 1
core_0_l2c_max_fill 1
llc_set 2048
llc_way 16
llc_rq_size 32
llc_wq_size 32
llc_pq_size 32
llc_mshr_size 64
llc_hit_latency 10
llc_fill_latency 10
llc_max_tag_check 1
llc_max_fill 1
dram_channels 1
dram_ranks 1
dram_bankgroups 8
dram_banks 4
dram_rows 65536
dram_columns 1024
dram_channel_width 8
dram_rq_size 64
dram_wq_size 64
dram_size 17179869184
core_0_itlb_prefetcher no
core_0_dtlb_prefetcher no
core_0_stlb_prefetcher no
core_0_l1i_prefetcher no
core_0_l1d_prefetcher no
core_0_l2c_prefetcher no
llc_prefetcher no
llc_replacement drrip

Core_0_instructions 100000003
Core_0_cycles 89481456
Core_0_IPC 1.11755
Core_0_branch_prediction_accuracy 99.9308
Core_0_branch_MPKI 0.03474
Core_0_average_ROB_occupancy_at_mispredict 337.44

Core_0_ITLB_total_access 15933537
Core_0_ITLB_total_hit 15933537
Core_0_ITLB_total_miss 0
Core_0_ITLB_total_MPKI 0
Core_0_ITLB_total_miss_rate 0
Core_0_ITLB_demand_access 15933537
Core_0_ITLB_demand_hit 15933537
Core_0_ITLB_demand_miss 0
Core_0_ITLB_demand_MPKI 0
Core_0_ITLB_demand_miss_rate 0
Core_0_ITLB_load_access 15933537
Core_0_ITLB_load_hit 15933537
Core_0_ITLB_load_miss 0
Core_0_ITLB_load_MPKI 0
Core_0_ITLB_load_miss_rate 0
Core_0_ITLB_rfo_access 0
Core_0_ITLB_rfo_hit 0
Core_0_ITLB_rfo_miss 0
Core_0_ITLB_rfo_MPKI 0
Core_0_ITLB_rfo_miss_rate 0
Core_0_ITLB_prefetch_access 0
Core_0_ITLB_prefetch_hit 0
Core_0_ITLB_prefetch_miss 0
Core_0_ITLB_prefetch_MPKI 0
Core_0_ITLB_prefetch_miss_rate 0
Core_0_ITLB_writeback_access 0
Core_0_ITLB_writeback_hit 0
Core_0_ITLB_writeback_miss 0
Core_0_ITLB_writeback_MPKI 0
Core_0_ITLB_writeback_miss_rate 0
Core_0_ITLB_prefetch_requested 0
Core_0_ITLB_prefetch_issued 0
Core_0_ITLB_prefetch_useful 0
Core_0_ITLB_prefetch_useless 0
Core_0_ITLB_prefetch_late 0
Core_0_ITLB_prefetch_accuracy 0
Core_0_ITLB_prefetch_coverage 0

Core_0_DTLB_total_access 29122018
Core_0_DTLB_total_hit 28987748
Core_0_DTLB_total_miss 134270
Core_0_DTLB_total_MPKI 1.3427
Core_0_DTLB_total_miss_rate 0.0046106
Core_0_DTLB_demand_access 29122018
Core_0_DTLB_demand_hit 28987748
Core_0_DTLB_demand_miss 134270
Core_0_DTLB_demand_MPKI 1.3427
Core_0_DTLB_demand_miss_rate 0.0046106
Core_0_DTLB_load_access 29122018
Core_0_DTLB_load_hit 28987748
Core_0_DTLB_load_miss 134270
Core_0_DTLB_load_MPKI 1.3427
Core_0_DTLB_load_miss_rate 0.0046106
Core_0_DTLB_rfo_access 0
Core_0_DTLB_rfo_hit 0
Core_0_DTLB_rfo_miss 0
Core_0_DTLB_rfo_MPKI 0
Core_0_DTLB_rfo_miss_rate 0
Core_0_DTLB_prefetch_access 0
Core_0_DTLB_prefetch_hit 0
Core_0_DTLB_prefetch_miss 0
Core_0_DTLB_prefetch_MPKI 0
Core_0_DTLB_prefetch_miss_rate 0
Core_0_DTLB_writeback_access 0
Core_0_DTLB_writeback_hit 0
Core_0_DTLB_writeback_miss 0
Core_0_DTLB_writeback_MPKI 0
Core_0_DTLB_writeback_miss_rate 0
Core_0_DTLB_prefetch_requested 0
Core_0_DTLB_prefetch_issued 0
Core_0_DTLB_prefetch_useful 0
Core_0_DTLB_prefetch_useless 0
Core_0_DTLB_prefetch_late 0
Core_0_DTLB_prefetch_accuracy 0
Core_0_DTLB_prefetch_coverage 0

Core_0_STLB_total_access 40628
Core_0_STLB_total_hit 7752
Core_0_STLB_total_miss 32876
Core_0_STLB_total_MPKI 0.32876
Core_0_STLB_total_miss_rate 0.809196
Core_0_STLB_demand_access 40628
Core_0_STLB_demand_hit 7752
Core_0_STLB_demand_miss 32876
Core_0_STLB_demand_MPKI 0.32876
Core_0_STLB_demand_miss_rate 0.809196
Core_0_STLB_load_access 40628
Core_0_STLB_load_hit 7752
Core_0_STLB_load_miss 32876
Core_0_STLB_load_MPKI 0.32876
Core_0_STLB_load_miss_rate 0.809196
Core_0_STLB_rfo_access 0
Core_0_STLB_rfo_hit 0
Core_0_STLB_rfo_miss 0
Core_0_STLB_rfo_MPKI 0
Core_0_STLB_rfo_miss_rate 0
Core_0_STLB_prefetch_access 0
Core_0_STLB_prefetch_hit 0
Core_0_STLB_prefetch_miss 0
Core_0_STLB_prefetch_MPKI 0
Core_0_STLB_prefetch_miss_rate 0
Core_0_STLB_writeback_access 0
Core_0_STLB_writeback_hit 0
Core_0_STLB_writeback_miss 0
Core_0_STLB_writeback_MPKI 0
Core_0_STLB_writeback_miss_rate 0
Core_0_STLB_prefetch_requested 0
Core_0_STLB_prefetch_issued 0
Core_0_STLB_prefetch_useful 0
Core_0_STLB_prefetch_useless 0
Core_0_STLB_prefetch_late 0
Core_0_STLB_prefetch_accuracy 0
Core_0_STLB_prefetch_coverage 0

Core_0_L1I_total_access 19602507
Core_0_L1I_total_hit 19602507
Core_0_L1I_total_miss 0
Core_0_L1I_total_MPKI 0
Core_0_L1I_total_miss_rate 0
Core_0_L1I_demand_access 19602507
Core_0_L1I_demand_hit 19602507
Core_0_L1I_demand_miss 0
Core_0_L1I_demand_MPKI 0
Core_0_L1I_demand_miss_rate 0
Core_0_L1I_load_access 19602507
Core_0_L1I_load_hit 19602507
Core_0_L1I_load_miss 0
Core_0_L1I_load_MPKI 0
Core_0_L1I_load_miss_rate 0
Core_0_L1I_rfo_access 0
Core_0_L1I_rfo_hit 0
Core_0_L1I_rfo_miss 0
Core_0_L1I_rfo_MPKI 0
Core_0_L1I_rfo_miss_rate 0
Core_0_L1I_prefetch_access 0
Core_0_L1I_prefetch_hit 0
Core_0_L1I_prefetch_miss 0
Core_0_L1I_prefetch_MPKI 0
Core_0_L1I_prefetch_miss_rate 0
Core_0_L1I_writeback_access 0
Core_0_L1I_writeback_hit 0
Core_0_L1I_writeback_miss 0
Core_0_L1I_writeback_MPKI 0
Core_0_L1I_writeback_miss_rate 0
Core_0_L1I_prefetch_requested 0
Core_0_L1I_prefetch_issued 0
Core_0_L1I_prefetch_useful 0
Core_0_L1I_prefetch_useless 0
Core_0_L1I_prefetch_late 0
Core_0_L1I_prefetch_accuracy 0
Core_0_L1I_prefetch_coverage 0

Core_0_L1D_total_access 29610328
Core_0_L1D_total_hit 25288347
Core_0_L1D_total_miss 4321981
Core_0_L1D_total_MPKI 43.2198
Core_0_L1D_total_miss_rate 0.145962
Core_0_L1D_demand_access 26209978
Core_0_L1D_demand_hit 21949929
Core_0_L1D_demand_miss 4260049
Core_0_L1D_demand_MPKI 42.6005
Core_0_L1D_demand_miss_rate 0.162535
Core_0_L1D_load_access 26209978
Core_0_L1D_load_hit 21949929
Core_0_L1D_load_miss 4260049
Core_0_L1D_load_MPKI 42.6005
Core_0_L1D_load_miss_rate 0.162535
Core_0_L1D_rfo_access 0
Core_0_L1D_rfo_hit 0
Core_0_L1D_rfo_miss 0
Core_0_L1D_rfo_MPKI 0
Core_0_L1D_rfo_miss_rate 0
Core_0_L1D_prefetch_access 0
Core_0_L1D_prefetch_hit 0
Core_0_L1D_prefetch_miss 0
Core_0_L1D_prefetch_MPKI 0
Core_0_L1D_prefetch_miss_rate 0
Core_0_L1D_writeback_access 3400350
Core_0_L1D_writeback_hit 3338418
Core_0_L1D_writeback_miss 61932
Core_0_L1D_writeback_MPKI 0.61932
Core_0_L1D_writeback_miss_rate 0.0182134
Core_0_L1D_prefetch_requested 0
Core_0_L1D_prefetch_issued 0
Core_0_L1D_prefetch_useful 0
Core_0_L1D_prefetch_useless 0
Core_0_L1D_prefetch_late 0
Core_0_L1D_prefetch_accuracy 0
Core_0_L1D_prefetch_coverage 0

Core_0_L2C_total_access 1325859
Core_0_L2C_total_hit 32791
Core_0_L2C_total_miss 1293068
Core_0_L2C_total_MPKI 12.9307
Core_0_L2C_total_miss_rate 0.975268
Core_0_L2C_demand_access 1302891
Core_0_L2C_demand_hit 19204
Core_0_L2C_demand_miss 1283687
Core_0_L2C_demand_MPKI 12.8369
Core_0_L2C_demand_miss_rate 0.98526
Core_0_L2C_load_access 1292341
Core_0_L2C_load_hit 19202
Core_0_L2C_load_miss 1273139
Core_0_L2C_load_MPKI 12.7314
Core_0_L2C_load_miss_rate 0.985142
Core_0_L2C_rfo_access 10550
Core_0_L2C_rfo_hit 2
Core_0_L2C_rfo_miss 10548
Core_0_L2C_rfo_MPKI 0.10548
Core_0_L2C_rfo_miss_rate 0.99981
Core_0_L2C_prefetch_access 0
Core_0_L2C_prefetch_hit 0
Core_0_L2C_prefetch_miss 0
Core_0_L2C_prefetch_MPKI 0
Core_0_L2C_prefetch_miss_rate 0
Core_0_L2C_writeback_access 22968
Core_0_L2C_writeback_hit 13587
Core_0_L2C_writeback_miss 9381
Core_0_L2C_writeback_MPKI 0.09381
Core_0_L2C_writeback_miss_rate 0.408438
Core_0_L2C_prefetch_requested 0
Core_0_L2C_prefetch_issued 0
Core_0_L2C_prefetch_useful 0
Core_0_L2C_prefetch_useless 0
Core_0_L2C_prefetch_late 0
Core_0_L2C_prefetch_accuracy 0
Core_0_L2C_prefetch_coverage 0

Core_0_LLC_total_access 1297482
Core_0_LLC_total_hit 176151
Core_0_LLC_total_miss 1121331
Core_0_LLC_total_MPKI 11.2133
Core_0_LLC_total_miss_rate 0.864236
Core_0_LLC_demand_access 1283687
Core_0_LLC_demand_hit 166133
Core_0_LLC_demand_miss 1117554
Core_0_LLC_demand_MPKI 11.1755
Core_0_LLC_demand_miss_rate 0.870581
Core_0_LLC_load_access 1273139
Core_0_LLC_load_hit 166055
Core_0_LLC_load_miss 1107084
Core_0_LLC_load_MPKI 11.0708
Core_0_LLC_load_miss_rate 0.86957
Core_0_LLC_rfo_access 10548
Core_0_LLC_rfo_hit 78
Core_0_LLC_rfo_miss 10470
Core_0_LLC_rfo_MPKI 0.1047
Core_0_LLC_rfo_miss_rate 0.992605
Core_0_LLC_prefetch_access 0
Core_0_LLC_prefetch_hit 0
Core_0_LLC_prefetch_miss 0
Core_0_LLC_prefetch_MPKI 0
Core_0_LLC_prefetch_miss_rate 0
Core_0_LLC_writeback_access 13795
Core_0_LLC_writeback_hit 10018
Core_0_LLC_writeback_miss 3777
Core_0_LLC_writeback_MPKI 0.03777
Core_0_LLC_writeback_miss_rate 0.273795
Core_0_LLC_prefetch_requested 0
Core_0_LLC_prefetch_issued 0
Core_0_LLC_prefetch_useful 0
Core_0_LLC_prefetch_useless 0
Core_0_LLC_prefetch_late 0
Core_0_LLC_prefetch_accuracy 0
Core_0_LLC_prefetch_coverage 0

[DRAM Statistics]
Channel_0_RQ_row_buffer_hit 1492
Channel_0_RQ_row_buffer_miss 1126287
Channel_0_WQ_row_buffer_hit 2227
Channel_0_WQ_row_buffer_miss 8678
Channel_0_WQ_full 0
Channel_0_dbus_congested 2024954
DRAM_total_RQ_row_buffer_hit 1492
DRAM_total_RQ_row_buffer_miss 1126287
DRAM_total_WQ_row_buffer_hit 2227
DRAM_total_WQ_row_buffer_miss 8678
DRAM_total_WQ_full 0
DRAM_total_dbus_congested 2024954
DRAM_avg_congested_cycle 6.63795

====== DRAM_RQ_TRAFFIC ========
DRAM_RQ_READ_TRAFFIC_BREAKDOWN:
data_demand_read.count = 1117554
data_demand_read.share = 99.09%

inst_demand_read.count = 0
inst_demand_read.share = 0.00%

cache_inst_prefetch.count = 0
cache_inst_prefetch.share = 0.00%

cache_data_prefetch.count = 0
cache_data_prefetch.share = 0.00%

stlb_data_demand.count = 10226
stlb_data_demand.share = 0.91%

stlb_inst_demand.count = 0
stlb_inst_demand.share = 0.00%

stlb_l1i_pref.count = 0
stlb_l1i_pref.share = 0.00%

stlb_l1d_pref.count = 0
stlb_l1d_pref.share = 0.00%

DRAM_RQ_READ_TRAFFIC_SUMMARY:
cache_demand.count = 1117554
cache_demand.share = 99.09%

cache_prefetch.count = 0
cache_prefetch.share = 0.00%

stlb_demand.count = 10226
stlb_demand.share = 0.91%

stlb_prefetch.count = 0
stlb_prefetch.share = 0.00%

DRAM_RQ_READ_TRAFFIC_DEBUG:
total_classified_read.count = 1127780
unclassified_read.count = 0
total_read_with_other.count = 1127780

classified_plus_unclassified_check.count = 1127780
dram_rq_read_total_observed.count = 1127780
dram_rq_read_total_observed.per_1K_instructions = 11.2778

STLB_MISS_PTW_DRAM_TOUCH_BREAKDOWN:
stlb_miss_total.count = 32876

stlb_miss_touch_dram.count = 10236
stlb_miss_touch_dram.share = 31.14%

stlb_miss_no_dram_touch.count = 22640
stlb_miss_no_dram_touch.share = 68.86%

STLB_MISS_PTW_DRAM_TOUCH_DEBUG:
stlb_miss_touch_plus_no_touch.count = 32876
stlb_miss_total_check.count = 32876

======STLB miss causes ========
Core_0_STLB_miss_cause_breakdown
Core_0_STLB_cause_Demand_Data_miss 32876
Core_0_STLB_cause_Demand_Data_miss_rate 0.809196
Core_0_STLB_cause_Demand_Instruction_miss 0
Core_0_STLB_cause_Demand_Instruction_miss_rate 0
Core_0_STLB_cause_L1D_Prefetch_miss 0
Core_0_STLB_cause_L1D_Prefetch_miss_rate 0
Core_0_STLB_cause_L1I_Prefetch_miss 0
Core_0_STLB_cause_L1I_Prefetch_miss_rate 0
Core_0_STLB_cause_Other_miss 0
Core_0_STLB_cause_Other_miss_rate 0
Core_0_STLB_Demand_miss 32876
Core_0_STLB_Demand_miss_rate 0.809196
Core_0_STLB_L1D_Prefetch_miss 0
Core_0_STLB_L1D_Prefetch_miss_rate 0
Core_0_STLB_Other_miss 0
Core_0_STLB_Other_miss_rate 0
