[VMEM] WARNING: physical memory size is smaller than virtual memory size.

*** ChampSim Multicore Out-of-Order Simulator ***
Warmup Instructions: 50000000
Simulation Instructions: 100000000
Number of CPUs: 1
Page size: 4096
Core 0: /data2/zcq/champsim_traces_gap/bfs.twitter-10B.champsimtrace.xz
Off-chip DRAM Size: 16 GiB Channels: 1 Width: 64-bit Data Rate: 3205 MT/s
Warmup halting CPU 0 at instruction 50000005 cycle 18239450 for remainder of phase
Warmup finished CPU 0 instructions: 50000005 cycles: 18239450 cumulative IPC: 2.741 (Simulation time: 00 hr 03 min 01 sec)
Warmup complete CPU 0 instructions: 50000005 cycles: 18239450 cumulative IPC: 2.741 (Simulation time: 00 hr 03 min 01 sec)
Simulation finished CPU 0 instructions: 100000004 cycles: 550101323 cumulative IPC: 0.1818 (Simulation time: 00 hr 37 min 03 sec)
Simulation complete CPU 0 instructions: 100000004 cycles: 550101323 cumulative IPC: 0.1818 (Simulation time: 00 hr 37 min 03 sec)

ChampSim completed all CPUs

=== Simulation ===
CPU 0 runs /data2/zcq/champsim_traces_gap/bfs.twitter-10B.champsimtrace.xz

Region of Interest Statistics

CPU 0 cumulative IPC: 0.1818 instructions: 100000004 cycles: 550101323
CPU 0 Branch Prediction Accuracy: 87.43% MPKI: 27.17 Average ROB Occupancy at Mispredict: 20.79
Branch type MPKI
BRANCH_DIRECT_JUMP: 0
BRANCH_INDIRECT: 0
BRANCH_CONDITIONAL: 27.17
BRANCH_DIRECT_CALL: 0
BRANCH_INDIRECT_CALL: 0
BRANCH_RETURN: 0

cpu0->cpu0_STLB TOTAL        ACCESS:     472396 HIT:     194969 MISS:     277427 MSHR_MERGE:          0
cpu0->cpu0_STLB LOAD         ACCESS:     472396 HIT:     194969 MISS:     277427 MSHR_MERGE:          0
cpu0->cpu0_STLB RFO          ACCESS:          0 HIT:          0 MISS:          0 MSHR_MERGE:          0
cpu0->cpu0_STLB PREFETCH     ACCESS:          0 HIT:          0 MISS:          0 MSHR_MERGE:          0
cpu0->cpu0_STLB WRITE        ACCESS:          0 HIT:          0 MISS:          0 MSHR_MERGE:          0
cpu0->cpu0_STLB TRANSLATION  ACCESS:          0 HIT:          0 MISS:          0 MSHR_MERGE:          0
cpu0->cpu0_STLB PREFETCH REQUESTED:          0 ISSUED:          0 USEFUL:          0 USELESS:          0 LATE:          0
cpu0->cpu0_STLB AVERAGE MISS LATENCY: 183 cycles
cpu0->cpu0_L2C TOTAL        ACCESS:    2507089 HIT:     245869 MISS:    2261220 MSHR_MERGE:          0
cpu0->cpu0_L2C LOAD         ACCESS:    2234927 HIT:      40348 MISS:    2194579 MSHR_MERGE:          0
cpu0->cpu0_L2C RFO          ACCESS:       2730 HIT:       2730 MISS:          0 MSHR_MERGE:          0
cpu0->cpu0_L2C PREFETCH     ACCESS:          0 HIT:          0 MISS:          0 MSHR_MERGE:          0
cpu0->cpu0_L2C WRITE        ACCESS:     144297 HIT:     144297 MISS:          0 MSHR_MERGE:          0
cpu0->cpu0_L2C TRANSLATION  ACCESS:     125135 HIT:      58494 MISS:      66641 MSHR_MERGE:          0
cpu0->cpu0_L2C PREFETCH REQUESTED:          0 ISSUED:          0 USEFUL:          0 USELESS:          0 LATE:          0
cpu0->cpu0_L2C AVERAGE MISS LATENCY: 188.5 cycles
cpu0->cpu0_L1I TOTAL        ACCESS:        143 HIT:        143 MISS:          0 MSHR_MERGE:          0
cpu0->cpu0_L1I LOAD         ACCESS:        143 HIT:        143 MISS:          0 MSHR_MERGE:          0
cpu0->cpu0_L1I RFO          ACCESS:          0 HIT:          0 MISS:          0 MSHR_MERGE:          0
cpu0->cpu0_L1I PREFETCH     ACCESS:          0 HIT:          0 MISS:          0 MSHR_MERGE:          0
cpu0->cpu0_L1I WRITE        ACCESS:          0 HIT:          0 MISS:          0 MSHR_MERGE:          0
cpu0->cpu0_L1I TRANSLATION  ACCESS:          0 HIT:          0 MISS:          0 MSHR_MERGE:          0
cpu0->cpu0_L1I PREFETCH REQUESTED:          0 ISSUED:          0 USEFUL:          0 USELESS:          0 LATE:          0
cpu0->cpu0_L1I AVERAGE MISS LATENCY: - cycles
cpu0->cpu0_L1D TOTAL        ACCESS:   16511501 HIT:   12315184 MISS:    4196317 MSHR_MERGE:    1833525
cpu0->cpu0_L1D LOAD         ACCESS:   15506331 HIT:   11440661 MISS:    4065670 MSHR_MERGE:    1830743
cpu0->cpu0_L1D RFO          ACCESS:          0 HIT:          0 MISS:          0 MSHR_MERGE:          0
cpu0->cpu0_L1D PREFETCH     ACCESS:          0 HIT:          0 MISS:          0 MSHR_MERGE:          0
cpu0->cpu0_L1D WRITE        ACCESS:     449656 HIT:     444196 MISS:       5460 MSHR_MERGE:       2730
cpu0->cpu0_L1D TRANSLATION  ACCESS:     555514 HIT:     430327 MISS:     125187 MSHR_MERGE:         52
cpu0->cpu0_L1D PREFETCH REQUESTED:          0 ISSUED:          0 USEFUL:          0 USELESS:          0 LATE:          0
cpu0->cpu0_L1D AVERAGE MISS LATENCY: 189.4 cycles
cpu0->cpu0_ITLB TOTAL        ACCESS:        142 HIT:        142 MISS:          0 MSHR_MERGE:          0
cpu0->cpu0_ITLB LOAD         ACCESS:        142 HIT:        142 MISS:          0 MSHR_MERGE:          0
cpu0->cpu0_ITLB RFO          ACCESS:          0 HIT:          0 MISS:          0 MSHR_MERGE:          0
cpu0->cpu0_ITLB PREFETCH     ACCESS:          0 HIT:          0 MISS:          0 MSHR_MERGE:          0
cpu0->cpu0_ITLB WRITE        ACCESS:          0 HIT:          0 MISS:          0 MSHR_MERGE:          0
cpu0->cpu0_ITLB TRANSLATION  ACCESS:          0 HIT:          0 MISS:          0 MSHR_MERGE:          0
cpu0->cpu0_ITLB PREFETCH REQUESTED:          0 ISSUED:          0 USEFUL:          0 USELESS:          0 LATE:          0
cpu0->cpu0_ITLB AVERAGE MISS LATENCY: - cycles
cpu0->cpu0_DTLB TOTAL        ACCESS:   15894757 HIT:   15398506 MISS:     496251 MSHR_MERGE:      23855
cpu0->cpu0_DTLB LOAD         ACCESS:   15894757 HIT:   15398506 MISS:     496251 MSHR_MERGE:      23855
cpu0->cpu0_DTLB RFO          ACCESS:          0 HIT:          0 MISS:          0 MSHR_MERGE:          0
cpu0->cpu0_DTLB PREFETCH     ACCESS:          0 HIT:          0 MISS:          0 MSHR_MERGE:          0
cpu0->cpu0_DTLB WRITE        ACCESS:          0 HIT:          0 MISS:          0 MSHR_MERGE:          0
cpu0->cpu0_DTLB TRANSLATION  ACCESS:          0 HIT:          0 MISS:          0 MSHR_MERGE:          0
cpu0->cpu0_DTLB PREFETCH REQUESTED:          0 ISSUED:          0 USEFUL:          0 USELESS:          0 LATE:          0
cpu0->cpu0_DTLB AVERAGE MISS LATENCY: 113 cycles
cpu0->LLC TOTAL        ACCESS:    2402861 HIT:     191838 MISS:    2211023 MSHR_MERGE:          0
cpu0->LLC LOAD         ACCESS:    2194579 HIT:      46046 MISS:    2148533 MSHR_MERGE:          0
cpu0->LLC RFO          ACCESS:          0 HIT:          0 MISS:          0 MSHR_MERGE:          0
cpu0->LLC PREFETCH     ACCESS:          0 HIT:          0 MISS:          0 MSHR_MERGE:          0
cpu0->LLC WRITE        ACCESS:     141641 HIT:     124578 MISS:      17063 MSHR_MERGE:          0
cpu0->LLC TRANSLATION  ACCESS:      66641 HIT:      21214 MISS:      45427 MSHR_MERGE:          0
cpu0->LLC PREFETCH REQUESTED:          0 ISSUED:          0 USEFUL:          0 USELESS:          0 LATE:          0
cpu0->LLC AVERAGE MISS LATENCY: 176.6 cycles

DRAM Statistics

Channel 0 RQ ROW_BUFFER_HIT:       1906
  ROW_BUFFER_MISS:    2192054
  AVG DBUS CONGESTED CYCLE: 17.85
Channel 0 WQ ROW_BUFFER_HIT:      21469
  ROW_BUFFER_MISS:     120268
  FULL:          0
Channel 0 REFRESHES ISSUED:      45842

[ROI Statistics]
[System Configuration]
num_cpus 1
cpu_freq 4000
fetch_width 6
decode_width 6
dispatch_width 6
execute_width 6
lq_width 2
sq_width 2
retire_width 6
scheduler_size 128
branch_mispredict_penalty 15
rob_size 352
lq_size 128
sq_size 72
ifetch_buffer_size 64
decode_buffer_size 32
dispatch_buffer_size 32
register_file_size 288
decode_latency 1
dispatch_latency 1
schedule_latency 1
execute_latency 1
page_size 4096
block_size 64
core_0_itlb_set 16
core_0_itlb_way 4
core_0_itlb_rq_size 16
core_0_itlb_wq_size 16
core_0_itlb_pq_size 0
core_0_itlb_mshr_size 8
core_0_itlb_hit_latency 1
core_0_itlb_fill_latency 1
core_0_itlb_max_tag_check 2
core_0_itlb_max_fill 2
core_0_dtlb_set 16
core_0_dtlb_way 4
core_0_dtlb_rq_size 16
core_0_dtlb_wq_size 16
core_0_dtlb_pq_size 0
core_0_dtlb_mshr_size 8
core_0_dtlb_hit_latency 1
core_0_dtlb_fill_latency 1
core_0_dtlb_max_tag_check 2
core_0_dtlb_max_fill 2
core_0_stlb_set 128
core_0_stlb_way 12
core_0_stlb_rq_size 32
core_0_stlb_wq_size 32
core_0_stlb_pq_size 0
core_0_stlb_mshr_size 16
core_0_stlb_hit_latency 4
core_0_stlb_fill_latency 4
core_0_stlb_max_tag_check 1
core_0_stlb_max_fill 1
core_0_l1i_set 64
core_0_l1i_way 8
core_0_l1i_rq_size 64
core_0_l1i_wq_size 64
core_0_l1i_pq_size 32
core_0_l1i_mshr_size 8
core_0_l1i_hit_latency 2
core_0_l1i_fill_latency 2
core_0_l1i_max_tag_check 2
core_0_l1i_max_fill 2
core_0_l1d_set 64
core_0_l1d_way 12
core_0_l1d_rq_size 64
core_0_l1d_wq_size 64
core_0_l1d_pq_size 8
core_0_l1d_mshr_size 16
core_0_l1d_hit_latency 2
core_0_l1d_fill_latency 3
core_0_l1d_max_tag_check 2
core_0_l1d_max_fill 2
core_0_l2c_set 1024
core_0_l2c_way 8
core_0_l2c_rq_size 32
core_0_l2c_wq_size 32
core_0_l2c_pq_size 16
core_0_l2c_mshr_size 32
core_0_l2c_hit_latency 5
core_0_l2c_fill_latency 5
core_0_l2c_max_tag_check 1
core_0_l2c_max_fill 1
llc_set 2048
llc_way 16
llc_rq_size 32
llc_wq_size 32
llc_pq_size 32
llc_mshr_size 64
llc_hit_latency 10
llc_fill_latency 10
llc_max_tag_check 1
llc_max_fill 1
dram_channels 1
dram_ranks 1
dram_bankgroups 8
dram_banks 4
dram_rows 65536
dram_columns 1024
dram_channel_width 8
dram_rq_size 64
dram_wq_size 64
dram_size 17179869184
core_0_itlb_prefetcher no
core_0_dtlb_prefetcher no
core_0_stlb_prefetcher no
core_0_l1i_prefetcher no
core_0_l1d_prefetcher no
core_0_l2c_prefetcher no
llc_prefetcher no
llc_replacement drrip

Core_0_instructions 100000004
Core_0_cycles 550101323
Core_0_IPC 0.181785
Core_0_branch_prediction_accuracy 87.4312
Core_0_branch_MPKI 27.168
Core_0_average_ROB_occupancy_at_mispredict 20.7852

Core_0_ITLB_total_access 142
Core_0_ITLB_total_hit 142
Core_0_ITLB_total_miss 0
Core_0_ITLB_total_MPKI 0
Core_0_ITLB_total_miss_rate 0
Core_0_ITLB_demand_access 142
Core_0_ITLB_demand_hit 142
Core_0_ITLB_demand_miss 0
Core_0_ITLB_demand_MPKI 0
Core_0_ITLB_demand_miss_rate 0
Core_0_ITLB_load_access 142
Core_0_ITLB_load_hit 142
Core_0_ITLB_load_miss 0
Core_0_ITLB_load_MPKI 0
Core_0_ITLB_load_miss_rate 0
Core_0_ITLB_rfo_access 0
Core_0_ITLB_rfo_hit 0
Core_0_ITLB_rfo_miss 0
Core_0_ITLB_rfo_MPKI 0
Core_0_ITLB_rfo_miss_rate 0
Core_0_ITLB_prefetch_access 0
Core_0_ITLB_prefetch_hit 0
Core_0_ITLB_prefetch_miss 0
Core_0_ITLB_prefetch_MPKI 0
Core_0_ITLB_prefetch_miss_rate 0
Core_0_ITLB_writeback_access 0
Core_0_ITLB_writeback_hit 0
Core_0_ITLB_writeback_miss 0
Core_0_ITLB_writeback_MPKI 0
Core_0_ITLB_writeback_miss_rate 0
Core_0_ITLB_prefetch_requested 0
Core_0_ITLB_prefetch_issued 0
Core_0_ITLB_prefetch_useful 0
Core_0_ITLB_prefetch_useless 0
Core_0_ITLB_prefetch_late 0
Core_0_ITLB_prefetch_accuracy 0
Core_0_ITLB_prefetch_coverage 0

Core_0_DTLB_total_access 15894757
Core_0_DTLB_total_hit 15398506
Core_0_DTLB_total_miss 496251
Core_0_DTLB_total_MPKI 4.96251
Core_0_DTLB_total_miss_rate 0.031221
Core_0_DTLB_demand_access 15894757
Core_0_DTLB_demand_hit 15398506
Core_0_DTLB_demand_miss 496251
Core_0_DTLB_demand_MPKI 4.96251
Core_0_DTLB_demand_miss_rate 0.031221
Core_0_DTLB_load_access 15894757
Core_0_DTLB_load_hit 15398506
Core_0_DTLB_load_miss 496251
Core_0_DTLB_load_MPKI 4.96251
Core_0_DTLB_load_miss_rate 0.031221
Core_0_DTLB_rfo_access 0
Core_0_DTLB_rfo_hit 0
Core_0_DTLB_rfo_miss 0
Core_0_DTLB_rfo_MPKI 0
Core_0_DTLB_rfo_miss_rate 0
Core_0_DTLB_prefetch_access 0
Core_0_DTLB_prefetch_hit 0
Core_0_DTLB_prefetch_miss 0
Core_0_DTLB_prefetch_MPKI 0
Core_0_DTLB_prefetch_miss_rate 0
Core_0_DTLB_writeback_access 0
Core_0_DTLB_writeback_hit 0
Core_0_DTLB_writeback_miss 0
Core_0_DTLB_writeback_MPKI 0
Core_0_DTLB_writeback_miss_rate 0
Core_0_DTLB_prefetch_requested 0
Core_0_DTLB_prefetch_issued 0
Core_0_DTLB_prefetch_useful 0
Core_0_DTLB_prefetch_useless 0
Core_0_DTLB_prefetch_late 0
Core_0_DTLB_prefetch_accuracy 0
Core_0_DTLB_prefetch_coverage 0

Core_0_STLB_total_access 472396
Core_0_STLB_total_hit 194969
Core_0_STLB_total_miss 277427
Core_0_STLB_total_MPKI 2.77427
Core_0_STLB_total_miss_rate 0.587276
Core_0_STLB_demand_access 472396
Core_0_STLB_demand_hit 194969
Core_0_STLB_demand_miss 277427
Core_0_STLB_demand_MPKI 2.77427
Core_0_STLB_demand_miss_rate 0.587276
Core_0_STLB_load_access 472396
Core_0_STLB_load_hit 194969
Core_0_STLB_load_miss 277427
Core_0_STLB_load_MPKI 2.77427
Core_0_STLB_load_miss_rate 0.587276
Core_0_STLB_rfo_access 0
Core_0_STLB_rfo_hit 0
Core_0_STLB_rfo_miss 0
Core_0_STLB_rfo_MPKI 0
Core_0_STLB_rfo_miss_rate 0
Core_0_STLB_prefetch_access 0
Core_0_STLB_prefetch_hit 0
Core_0_STLB_prefetch_miss 0
Core_0_STLB_prefetch_MPKI 0
Core_0_STLB_prefetch_miss_rate 0
Core_0_STLB_writeback_access 0
Core_0_STLB_writeback_hit 0
Core_0_STLB_writeback_miss 0
Core_0_STLB_writeback_MPKI 0
Core_0_STLB_writeback_miss_rate 0
Core_0_STLB_prefetch_requested 0
Core_0_STLB_prefetch_issued 0
Core_0_STLB_prefetch_useful 0
Core_0_STLB_prefetch_useless 0
Core_0_STLB_prefetch_late 0
Core_0_STLB_prefetch_accuracy 0
Core_0_STLB_prefetch_coverage 0

Core_0_L1I_total_access 143
Core_0_L1I_total_hit 143
Core_0_L1I_total_miss 0
Core_0_L1I_total_MPKI 0
Core_0_L1I_total_miss_rate 0
Core_0_L1I_demand_access 143
Core_0_L1I_demand_hit 143
Core_0_L1I_demand_miss 0
Core_0_L1I_demand_MPKI 0
Core_0_L1I_demand_miss_rate 0
Core_0_L1I_load_access 143
Core_0_L1I_load_hit 143
Core_0_L1I_load_miss 0
Core_0_L1I_load_MPKI 0
Core_0_L1I_load_miss_rate 0
Core_0_L1I_rfo_access 0
Core_0_L1I_rfo_hit 0
Core_0_L1I_rfo_miss 0
Core_0_L1I_rfo_MPKI 0
Core_0_L1I_rfo_miss_rate 0
Core_0_L1I_prefetch_access 0
Core_0_L1I_prefetch_hit 0
Core_0_L1I_prefetch_miss 0
Core_0_L1I_prefetch_MPKI 0
Core_0_L1I_prefetch_miss_rate 0
Core_0_L1I_writeback_access 0
Core_0_L1I_writeback_hit 0
Core_0_L1I_writeback_miss 0
Core_0_L1I_writeback_MPKI 0
Core_0_L1I_writeback_miss_rate 0
Core_0_L1I_prefetch_requested 0
Core_0_L1I_prefetch_issued 0
Core_0_L1I_prefetch_useful 0
Core_0_L1I_prefetch_useless 0
Core_0_L1I_prefetch_late 0
Core_0_L1I_prefetch_accuracy 0
Core_0_L1I_prefetch_coverage 0

Core_0_L1D_total_access 15955987
Core_0_L1D_total_hit 11884857
Core_0_L1D_total_miss 4071130
Core_0_L1D_total_MPKI 40.7113
Core_0_L1D_total_miss_rate 0.255147
Core_0_L1D_demand_access 15506331
Core_0_L1D_demand_hit 11440661
Core_0_L1D_demand_miss 4065670
Core_0_L1D_demand_MPKI 40.6567
Core_0_L1D_demand_miss_rate 0.262194
Core_0_L1D_load_access 15506331
Core_0_L1D_load_hit 11440661
Core_0_L1D_load_miss 4065670
Core_0_L1D_load_MPKI 40.6567
Core_0_L1D_load_miss_rate 0.262194
Core_0_L1D_rfo_access 0
Core_0_L1D_rfo_hit 0
Core_0_L1D_rfo_miss 0
Core_0_L1D_rfo_MPKI 0
Core_0_L1D_rfo_miss_rate 0
Core_0_L1D_prefetch_access 0
Core_0_L1D_prefetch_hit 0
Core_0_L1D_prefetch_miss 0
Core_0_L1D_prefetch_MPKI 0
Core_0_L1D_prefetch_miss_rate 0
Core_0_L1D_writeback_access 449656
Core_0_L1D_writeback_hit 444196
Core_0_L1D_writeback_miss 5460
Core_0_L1D_writeback_MPKI 0.0546
Core_0_L1D_writeback_miss_rate 0.0121426
Core_0_L1D_prefetch_requested 0
Core_0_L1D_prefetch_issued 0
Core_0_L1D_prefetch_useful 0
Core_0_L1D_prefetch_useless 0
Core_0_L1D_prefetch_late 0
Core_0_L1D_prefetch_accuracy 0
Core_0_L1D_prefetch_coverage 0

Core_0_L2C_total_access 2381954
Core_0_L2C_total_hit 187375
Core_0_L2C_total_miss 2194579
Core_0_L2C_total_MPKI 21.9458
Core_0_L2C_total_miss_rate 0.921336
Core_0_L2C_demand_access 2237657
Core_0_L2C_demand_hit 43078
Core_0_L2C_demand_miss 2194579
Core_0_L2C_demand_MPKI 21.9458
Core_0_L2C_demand_miss_rate 0.980749
Core_0_L2C_load_access 2234927
Core_0_L2C_load_hit 40348
Core_0_L2C_load_miss 2194579
Core_0_L2C_load_MPKI 21.9458
Core_0_L2C_load_miss_rate 0.981947
Core_0_L2C_rfo_access 2730
Core_0_L2C_rfo_hit 2730
Core_0_L2C_rfo_miss 0
Core_0_L2C_rfo_MPKI 0
Core_0_L2C_rfo_miss_rate 0
Core_0_L2C_prefetch_access 0
Core_0_L2C_prefetch_hit 0
Core_0_L2C_prefetch_miss 0
Core_0_L2C_prefetch_MPKI 0
Core_0_L2C_prefetch_miss_rate 0
Core_0_L2C_writeback_access 144297
Core_0_L2C_writeback_hit 144297
Core_0_L2C_writeback_miss 0
Core_0_L2C_writeback_MPKI 0
Core_0_L2C_writeback_miss_rate 0
Core_0_L2C_prefetch_requested 0
Core_0_L2C_prefetch_issued 0
Core_0_L2C_prefetch_useful 0
Core_0_L2C_prefetch_useless 0
Core_0_L2C_prefetch_late 0
Core_0_L2C_prefetch_accuracy 0
Core_0_L2C_prefetch_coverage 0

Core_0_LLC_total_access 2336220
Core_0_LLC_total_hit 170624
Core_0_LLC_total_miss 2165596
Core_0_LLC_total_MPKI 21.656
Core_0_LLC_total_miss_rate 0.926966
Core_0_LLC_demand_access 2194579
Core_0_LLC_demand_hit 46046
Core_0_LLC_demand_miss 2148533
Core_0_LLC_demand_MPKI 21.4853
Core_0_LLC_demand_miss_rate 0.979018
Core_0_LLC_load_access 2194579
Core_0_LLC_load_hit 46046
Core_0_LLC_load_miss 2148533
Core_0_LLC_load_MPKI 21.4853
Core_0_LLC_load_miss_rate 0.979018
Core_0_LLC_rfo_access 0
Core_0_LLC_rfo_hit 0
Core_0_LLC_rfo_miss 0
Core_0_LLC_rfo_MPKI 0
Core_0_LLC_rfo_miss_rate 0
Core_0_LLC_prefetch_access 0
Core_0_LLC_prefetch_hit 0
Core_0_LLC_prefetch_miss 0
Core_0_LLC_prefetch_MPKI 0
Core_0_LLC_prefetch_miss_rate 0
Core_0_LLC_writeback_access 141641
Core_0_LLC_writeback_hit 124578
Core_0_LLC_writeback_miss 17063
Core_0_LLC_writeback_MPKI 0.17063
Core_0_LLC_writeback_miss_rate 0.120467
Core_0_LLC_prefetch_requested 0
Core_0_LLC_prefetch_issued 0
Core_0_LLC_prefetch_useful 0
Core_0_LLC_prefetch_useless 0
Core_0_LLC_prefetch_late 0
Core_0_LLC_prefetch_accuracy 0
Core_0_LLC_prefetch_coverage 0

[DRAM Statistics]
Channel_0_RQ_row_buffer_hit 1906
Channel_0_RQ_row_buffer_miss 2192054
Channel_0_WQ_row_buffer_hit 21469
Channel_0_WQ_row_buffer_miss 120268
Channel_0_WQ_full 0
Channel_0_dbus_congested 3256418
DRAM_total_RQ_row_buffer_hit 1906
DRAM_total_RQ_row_buffer_miss 2192054
DRAM_total_WQ_row_buffer_hit 21469
DRAM_total_WQ_row_buffer_miss 120268
DRAM_total_WQ_full 0
DRAM_total_dbus_congested 3256418
DRAM_avg_congested_cycle 17.8548

====== DRAM_RQ_TRAFFIC ========
DRAM_RQ_READ_TRAFFIC_BREAKDOWN:
data_demand_read.count = 2148533
data_demand_read.share = 97.93%

inst_demand_read.count = 0
inst_demand_read.share = 0.00%

cache_inst_prefetch.count = 0
cache_inst_prefetch.share = 0.00%

cache_data_prefetch.count = 0
cache_data_prefetch.share = 0.00%

stlb_data_demand.count = 45427
stlb_data_demand.share = 2.07%

stlb_inst_demand.count = 0
stlb_inst_demand.share = 0.00%

stlb_l1i_pref.count = 0
stlb_l1i_pref.share = 0.00%

stlb_l1d_pref.count = 0
stlb_l1d_pref.share = 0.00%

DRAM_RQ_READ_TRAFFIC_SUMMARY:
cache_demand.count = 2148533
cache_demand.share = 97.93%

cache_prefetch.count = 0
cache_prefetch.share = 0.00%

stlb_demand.count = 45427
stlb_demand.share = 2.07%

stlb_prefetch.count = 0
stlb_prefetch.share = 0.00%

DRAM_RQ_READ_TRAFFIC_DEBUG:
total_classified_read.count = 2193960
unclassified_read.count = 0
total_read_with_other.count = 2193960

classified_plus_unclassified_check.count = 2193960
dram_rq_read_total_observed.count = 2193960
dram_rq_read_total_observed.per_1K_instructions = 21.9396

STLB_MISS_PTW_DRAM_TOUCH_BREAKDOWN:
stlb_miss_total.count = 277427

stlb_miss_touch_dram.count = 45270
stlb_miss_touch_dram.share = 16.32%

stlb_miss_no_dram_touch.count = 232157
stlb_miss_no_dram_touch.share = 83.68%

STLB_MISS_PTW_DRAM_TOUCH_DEBUG:
stlb_miss_touch_plus_no_touch.count = 277427
stlb_miss_total_check.count = 277427

======STLB miss causes ========
Core_0_STLB_miss_cause_breakdown
Core_0_STLB_cause_Demand_Data_miss 277427
Core_0_STLB_cause_Demand_Data_miss_rate 0.587276
Core_0_STLB_cause_Demand_Instruction_miss 0
Core_0_STLB_cause_Demand_Instruction_miss_rate 0
Core_0_STLB_cause_L1D_Prefetch_miss 0
Core_0_STLB_cause_L1D_Prefetch_miss_rate 0
Core_0_STLB_cause_L1I_Prefetch_miss 0
Core_0_STLB_cause_L1I_Prefetch_miss_rate 0
Core_0_STLB_cause_Other_miss 0
Core_0_STLB_cause_Other_miss_rate 0
Core_0_STLB_Demand_miss 277427
Core_0_STLB_Demand_miss_rate 0.587276
Core_0_STLB_L1D_Prefetch_miss 0
Core_0_STLB_L1D_Prefetch_miss_rate 0
Core_0_STLB_Other_miss 0
Core_0_STLB_Other_miss_rate 0
