[VMEM] WARNING: physical memory size is smaller than virtual memory size.

*** ChampSim Multicore Out-of-Order Simulator ***
Warmup Instructions: 50000000
Simulation Instructions: 100000000
Number of CPUs: 1
Page size: 4096
Core 0: /data0/tzh/champsim_traces/QMM/compute_fp_12_new.xz
Off-chip DRAM Size: 16 GiB Channels: 1 Width: 64-bit Data Rate: 3205 MT/s
*** Reached end of trace: (0, "/data0/tzh/champsim_traces/QMM/compute_fp_12_new.xz")
Warmup halting CPU 0 at instruction 50000000 cycle 10112738 for remainder of phase
Warmup finished CPU 0 instructions: 50000000 cycles: 10112738 cumulative IPC: 4.944 (Simulation time: 00 hr 01 min 44 sec)
Warmup complete CPU 0 instructions: 50000000 cycles: 10112738 cumulative IPC: 4.944 (Simulation time: 00 hr 01 min 44 sec)
*** Reached end of trace: (0, "/data0/tzh/champsim_traces/QMM/compute_fp_12_new.xz")
*** Reached end of trace: (0, "/data0/tzh/champsim_traces/QMM/compute_fp_12_new.xz")
*** Reached end of trace: (0, "/data0/tzh/champsim_traces/QMM/compute_fp_12_new.xz")
Simulation finished CPU 0 instructions: 100000001 cycles: 42204469 cumulative IPC: 2.369 (Simulation time: 00 hr 07 min 05 sec)
Simulation complete CPU 0 instructions: 100000001 cycles: 42204469 cumulative IPC: 2.369 (Simulation time: 00 hr 07 min 05 sec)

ChampSim completed all CPUs

=== Simulation ===
CPU 0 runs /data0/tzh/champsim_traces/QMM/compute_fp_12_new.xz

Region of Interest Statistics

CPU 0 cumulative IPC: 2.369 instructions: 100000001 cycles: 42204469
CPU 0 Branch Prediction Accuracy: 88.59% MPKI: 2.551 Average ROB Occupancy at Mispredict: 129.7
Branch type MPKI
BRANCH_DIRECT_JUMP: 0
BRANCH_INDIRECT: 2.551
BRANCH_CONDITIONAL: 8e-05
BRANCH_DIRECT_CALL: 0
BRANCH_INDIRECT_CALL: 0
BRANCH_RETURN: 0

cpu0->cpu0_STLB TOTAL        ACCESS:     772678 HIT:     772678 MISS:          0 MSHR_MERGE:          0
cpu0->cpu0_STLB LOAD         ACCESS:     772678 HIT:     772678 MISS:          0 MSHR_MERGE:          0
cpu0->cpu0_STLB RFO          ACCESS:          0 HIT:          0 MISS:          0 MSHR_MERGE:          0
cpu0->cpu0_STLB PREFETCH     ACCESS:          0 HIT:          0 MISS:          0 MSHR_MERGE:          0
cpu0->cpu0_STLB WRITE        ACCESS:          0 HIT:          0 MISS:          0 MSHR_MERGE:          0
cpu0->cpu0_STLB TRANSLATION  ACCESS:          0 HIT:          0 MISS:          0 MSHR_MERGE:          0
cpu0->cpu0_STLB PREFETCH REQUESTED:          0 ISSUED:          0 USEFUL:          0 USELESS:          0 LATE:          0
cpu0->cpu0_STLB AVERAGE MISS LATENCY: - cycles
cpu0->cpu0_L2C TOTAL        ACCESS:     277553 HIT:      64507 MISS:     213046 MSHR_MERGE:          0
cpu0->cpu0_L2C LOAD         ACCESS:     213615 HIT:        705 MISS:     212910 MSHR_MERGE:          0
cpu0->cpu0_L2C RFO          ACCESS:        567 HIT:        431 MISS:        136 MSHR_MERGE:          0
cpu0->cpu0_L2C PREFETCH     ACCESS:          0 HIT:          0 MISS:          0 MSHR_MERGE:          0
cpu0->cpu0_L2C WRITE        ACCESS:      63371 HIT:      63371 MISS:          0 MSHR_MERGE:          0
cpu0->cpu0_L2C TRANSLATION  ACCESS:          0 HIT:          0 MISS:          0 MSHR_MERGE:          0
cpu0->cpu0_L2C PREFETCH REQUESTED:          0 ISSUED:          0 USEFUL:          0 USELESS:          0 LATE:          0
cpu0->cpu0_L2C AVERAGE MISS LATENCY: 125.7 cycles
cpu0->cpu0_L1I TOTAL        ACCESS:    7538762 HIT:    7538393 MISS:        369 MSHR_MERGE:        103
cpu0->cpu0_L1I LOAD         ACCESS:    7538762 HIT:    7538393 MISS:        369 MSHR_MERGE:        103
cpu0->cpu0_L1I RFO          ACCESS:          0 HIT:          0 MISS:          0 MSHR_MERGE:          0
cpu0->cpu0_L1I PREFETCH     ACCESS:          0 HIT:          0 MISS:          0 MSHR_MERGE:          0
cpu0->cpu0_L1I WRITE        ACCESS:          0 HIT:          0 MISS:          0 MSHR_MERGE:          0
cpu0->cpu0_L1I TRANSLATION  ACCESS:          0 HIT:          0 MISS:          0 MSHR_MERGE:          0
cpu0->cpu0_L1I PREFETCH REQUESTED:          0 ISSUED:          0 USEFUL:          0 USELESS:          0 LATE:          0
cpu0->cpu0_L1I AVERAGE MISS LATENCY: 58.03 cycles
cpu0->cpu0_L1D TOTAL        ACCESS:   17056712 HIT:   16728937 MISS:     327775 MSHR_MERGE:     113859
cpu0->cpu0_L1D LOAD         ACCESS:   10084835 HIT:    9758149 MISS:     326686 MSHR_MERGE:     113337
cpu0->cpu0_L1D RFO          ACCESS:          0 HIT:          0 MISS:          0 MSHR_MERGE:          0
cpu0->cpu0_L1D PREFETCH     ACCESS:          0 HIT:          0 MISS:          0 MSHR_MERGE:          0
cpu0->cpu0_L1D WRITE        ACCESS:    6971877 HIT:    6970788 MISS:       1089 MSHR_MERGE:        522
cpu0->cpu0_L1D TRANSLATION  ACCESS:          0 HIT:          0 MISS:          0 MSHR_MERGE:          0
cpu0->cpu0_L1D PREFETCH REQUESTED:          0 ISSUED:          0 USEFUL:          0 USELESS:          0 LATE:          0
cpu0->cpu0_L1D AVERAGE MISS LATENCY: 134.1 cycles
cpu0->cpu0_ITLB TOTAL        ACCESS:    7128377 HIT:    7128035 MISS:        342 MSHR_MERGE:        195
cpu0->cpu0_ITLB LOAD         ACCESS:    7128377 HIT:    7128035 MISS:        342 MSHR_MERGE:        195
cpu0->cpu0_ITLB RFO          ACCESS:          0 HIT:          0 MISS:          0 MSHR_MERGE:          0
cpu0->cpu0_ITLB PREFETCH     ACCESS:          0 HIT:          0 MISS:          0 MSHR_MERGE:          0
cpu0->cpu0_ITLB WRITE        ACCESS:          0 HIT:          0 MISS:          0 MSHR_MERGE:          0
cpu0->cpu0_ITLB TRANSLATION  ACCESS:          0 HIT:          0 MISS:          0 MSHR_MERGE:          0
cpu0->cpu0_ITLB PREFETCH REQUESTED:          0 ISSUED:          0 USEFUL:          0 USELESS:          0 LATE:          0
cpu0->cpu0_ITLB AVERAGE MISS LATENCY: 5.014 cycles
cpu0->cpu0_DTLB TOTAL        ACCESS:   15770907 HIT:   14908736 MISS:     862171 MSHR_MERGE:      89640
cpu0->cpu0_DTLB LOAD         ACCESS:   15770907 HIT:   14908736 MISS:     862171 MSHR_MERGE:      89640
cpu0->cpu0_DTLB RFO          ACCESS:          0 HIT:          0 MISS:          0 MSHR_MERGE:          0
cpu0->cpu0_DTLB PREFETCH     ACCESS:          0 HIT:          0 MISS:          0 MSHR_MERGE:          0
cpu0->cpu0_DTLB WRITE        ACCESS:          0 HIT:          0 MISS:          0 MSHR_MERGE:          0
cpu0->cpu0_DTLB TRANSLATION  ACCESS:          0 HIT:          0 MISS:          0 MSHR_MERGE:          0
cpu0->cpu0_DTLB PREFETCH REQUESTED:          0 ISSUED:          0 USEFUL:          0 USELESS:          0 LATE:          0
cpu0->cpu0_DTLB AVERAGE MISS LATENCY: 5 cycles
cpu0->LLC TOTAL        ACCESS:     275948 HIT:     138243 MISS:     137705 MSHR_MERGE:          0
cpu0->LLC LOAD         ACCESS:     212910 HIT:      85415 MISS:     127495 MSHR_MERGE:          0
cpu0->LLC RFO          ACCESS:        136 HIT:        118 MISS:         18 MSHR_MERGE:          0
cpu0->LLC PREFETCH     ACCESS:          0 HIT:          0 MISS:          0 MSHR_MERGE:          0
cpu0->LLC WRITE        ACCESS:      62902 HIT:      52710 MISS:      10192 MSHR_MERGE:          0
cpu0->LLC TRANSLATION  ACCESS:          0 HIT:          0 MISS:          0 MSHR_MERGE:          0
cpu0->LLC PREFETCH REQUESTED:          0 ISSUED:          0 USEFUL:          0 USELESS:          0 LATE:          0
cpu0->LLC AVERAGE MISS LATENCY: 171 cycles

DRAM Statistics

Channel 0 RQ ROW_BUFFER_HIT:          7
  ROW_BUFFER_MISS:     127506
  AVG DBUS CONGESTED CYCLE: 10.54
Channel 0 WQ ROW_BUFFER_HIT:       2029
  ROW_BUFFER_MISS:      16513
  FULL:          0
Channel 0 REFRESHES ISSUED:       3517

[ROI Statistics]
[System Configuration]
num_cpus 1
cpu_freq 4000
fetch_width 6
decode_width 6
dispatch_width 6
execute_width 6
lq_width 2
sq_width 2
retire_width 6
scheduler_size 128
branch_mispredict_penalty 15
rob_size 352
lq_size 128
sq_size 72
ifetch_buffer_size 64
decode_buffer_size 32
dispatch_buffer_size 32
register_file_size 288
decode_latency 1
dispatch_latency 1
schedule_latency 1
execute_latency 1
page_size 4096
block_size 64
core_0_itlb_set 16
core_0_itlb_way 4
core_0_itlb_rq_size 16
core_0_itlb_wq_size 16
core_0_itlb_pq_size 0
core_0_itlb_mshr_size 8
core_0_itlb_hit_latency 1
core_0_itlb_fill_latency 1
core_0_itlb_max_tag_check 2
core_0_itlb_max_fill 2
core_0_dtlb_set 16
core_0_dtlb_way 4
core_0_dtlb_rq_size 16
core_0_dtlb_wq_size 16
core_0_dtlb_pq_size 0
core_0_dtlb_mshr_size 8
core_0_dtlb_hit_latency 1
core_0_dtlb_fill_latency 1
core_0_dtlb_max_tag_check 2
core_0_dtlb_max_fill 2
core_0_stlb_set 128
core_0_stlb_way 12
core_0_stlb_rq_size 32
core_0_stlb_wq_size 32
core_0_stlb_pq_size 0
core_0_stlb_mshr_size 16
core_0_stlb_hit_latency 4
core_0_stlb_fill_latency 4
core_0_stlb_max_tag_check 1
core_0_stlb_max_fill 1
core_0_l1i_set 64
core_0_l1i_way 8
core_0_l1i_rq_size 64
core_0_l1i_wq_size 64
core_0_l1i_pq_size 32
core_0_l1i_mshr_size 8
core_0_l1i_hit_latency 2
core_0_l1i_fill_latency 2
core_0_l1i_max_tag_check 2
core_0_l1i_max_fill 2
core_0_l1d_set 64
core_0_l1d_way 12
core_0_l1d_rq_size 64
core_0_l1d_wq_size 64
core_0_l1d_pq_size 8
core_0_l1d_mshr_size 16
core_0_l1d_hit_latency 2
core_0_l1d_fill_latency 3
core_0_l1d_max_tag_check 2
core_0_l1d_max_fill 2
core_0_l2c_set 1024
core_0_l2c_way 8
core_0_l2c_rq_size 32
core_0_l2c_wq_size 32
core_0_l2c_pq_size 16
core_0_l2c_mshr_size 32
core_0_l2c_hit_latency 5
core_0_l2c_fill_latency 5
core_0_l2c_max_tag_check 1
core_0_l2c_max_fill 1
llc_set 2048
llc_way 16
llc_rq_size 32
llc_wq_size 32
llc_pq_size 32
llc_mshr_size 64
llc_hit_latency 10
llc_fill_latency 10
llc_max_tag_check 1
llc_max_fill 1
dram_channels 1
dram_ranks 1
dram_bankgroups 8
dram_banks 4
dram_rows 65536
dram_columns 1024
dram_channel_width 8
dram_rq_size 64
dram_wq_size 64
dram_size 17179869184
core_0_itlb_prefetcher no
core_0_dtlb_prefetcher no
core_0_stlb_prefetcher no
core_0_l1i_prefetcher no
core_0_l1d_prefetcher no
core_0_l2c_prefetcher no
llc_prefetcher no
llc_replacement drrip

Core_0_instructions 100000001
Core_0_cycles 42204469
Core_0_IPC 2.36942
Core_0_branch_prediction_accuracy 88.5858
Core_0_branch_MPKI 2.55086
Core_0_average_ROB_occupancy_at_mispredict 129.684

Core_0_ITLB_total_access 7128377
Core_0_ITLB_total_hit 7128035
Core_0_ITLB_total_miss 342
Core_0_ITLB_total_MPKI 0.00342
Core_0_ITLB_total_miss_rate 4.79773e-05
Core_0_ITLB_demand_access 7128377
Core_0_ITLB_demand_hit 7128035
Core_0_ITLB_demand_miss 342
Core_0_ITLB_demand_MPKI 0.00342
Core_0_ITLB_demand_miss_rate 4.79773e-05
Core_0_ITLB_load_access 7128377
Core_0_ITLB_load_hit 7128035
Core_0_ITLB_load_miss 342
Core_0_ITLB_load_MPKI 0.00342
Core_0_ITLB_load_miss_rate 4.79773e-05
Core_0_ITLB_rfo_access 0
Core_0_ITLB_rfo_hit 0
Core_0_ITLB_rfo_miss 0
Core_0_ITLB_rfo_MPKI 0
Core_0_ITLB_rfo_miss_rate 0
Core_0_ITLB_prefetch_access 0
Core_0_ITLB_prefetch_hit 0
Core_0_ITLB_prefetch_miss 0
Core_0_ITLB_prefetch_MPKI 0
Core_0_ITLB_prefetch_miss_rate 0
Core_0_ITLB_writeback_access 0
Core_0_ITLB_writeback_hit 0
Core_0_ITLB_writeback_miss 0
Core_0_ITLB_writeback_MPKI 0
Core_0_ITLB_writeback_miss_rate 0
Core_0_ITLB_prefetch_requested 0
Core_0_ITLB_prefetch_issued 0
Core_0_ITLB_prefetch_useful 0
Core_0_ITLB_prefetch_useless 0
Core_0_ITLB_prefetch_late 0
Core_0_ITLB_prefetch_accuracy 0
Core_0_ITLB_prefetch_coverage 0

Core_0_DTLB_total_access 15770907
Core_0_DTLB_total_hit 14908736
Core_0_DTLB_total_miss 862171
Core_0_DTLB_total_MPKI 8.62171
Core_0_DTLB_total_miss_rate 0.0546684
Core_0_DTLB_demand_access 15770907
Core_0_DTLB_demand_hit 14908736
Core_0_DTLB_demand_miss 862171
Core_0_DTLB_demand_MPKI 8.62171
Core_0_DTLB_demand_miss_rate 0.0546684
Core_0_DTLB_load_access 15770907
Core_0_DTLB_load_hit 14908736
Core_0_DTLB_load_miss 862171
Core_0_DTLB_load_MPKI 8.62171
Core_0_DTLB_load_miss_rate 0.0546684
Core_0_DTLB_rfo_access 0
Core_0_DTLB_rfo_hit 0
Core_0_DTLB_rfo_miss 0
Core_0_DTLB_rfo_MPKI 0
Core_0_DTLB_rfo_miss_rate 0
Core_0_DTLB_prefetch_access 0
Core_0_DTLB_prefetch_hit 0
Core_0_DTLB_prefetch_miss 0
Core_0_DTLB_prefetch_MPKI 0
Core_0_DTLB_prefetch_miss_rate 0
Core_0_DTLB_writeback_access 0
Core_0_DTLB_writeback_hit 0
Core_0_DTLB_writeback_miss 0
Core_0_DTLB_writeback_MPKI 0
Core_0_DTLB_writeback_miss_rate 0
Core_0_DTLB_prefetch_requested 0
Core_0_DTLB_prefetch_issued 0
Core_0_DTLB_prefetch_useful 0
Core_0_DTLB_prefetch_useless 0
Core_0_DTLB_prefetch_late 0
Core_0_DTLB_prefetch_accuracy 0
Core_0_DTLB_prefetch_coverage 0

Core_0_STLB_total_access 772678
Core_0_STLB_total_hit 772678
Core_0_STLB_total_miss 0
Core_0_STLB_total_MPKI 0
Core_0_STLB_total_miss_rate 0
Core_0_STLB_demand_access 772678
Core_0_STLB_demand_hit 772678
Core_0_STLB_demand_miss 0
Core_0_STLB_demand_MPKI 0
Core_0_STLB_demand_miss_rate 0
Core_0_STLB_load_access 772678
Core_0_STLB_load_hit 772678
Core_0_STLB_load_miss 0
Core_0_STLB_load_MPKI 0
Core_0_STLB_load_miss_rate 0
Core_0_STLB_rfo_access 0
Core_0_STLB_rfo_hit 0
Core_0_STLB_rfo_miss 0
Core_0_STLB_rfo_MPKI 0
Core_0_STLB_rfo_miss_rate 0
Core_0_STLB_prefetch_access 0
Core_0_STLB_prefetch_hit 0
Core_0_STLB_prefetch_miss 0
Core_0_STLB_prefetch_MPKI 0
Core_0_STLB_prefetch_miss_rate 0
Core_0_STLB_writeback_access 0
Core_0_STLB_writeback_hit 0
Core_0_STLB_writeback_miss 0
Core_0_STLB_writeback_MPKI 0
Core_0_STLB_writeback_miss_rate 0
Core_0_STLB_prefetch_requested 0
Core_0_STLB_prefetch_issued 0
Core_0_STLB_prefetch_useful 0
Core_0_STLB_prefetch_useless 0
Core_0_STLB_prefetch_late 0
Core_0_STLB_prefetch_accuracy 0
Core_0_STLB_prefetch_coverage 0

Core_0_L1I_total_access 7538762
Core_0_L1I_total_hit 7538393
Core_0_L1I_total_miss 369
Core_0_L1I_total_MPKI 0.00369
Core_0_L1I_total_miss_rate 4.8947e-05
Core_0_L1I_demand_access 7538762
Core_0_L1I_demand_hit 7538393
Core_0_L1I_demand_miss 369
Core_0_L1I_demand_MPKI 0.00369
Core_0_L1I_demand_miss_rate 4.8947e-05
Core_0_L1I_load_access 7538762
Core_0_L1I_load_hit 7538393
Core_0_L1I_load_miss 369
Core_0_L1I_load_MPKI 0.00369
Core_0_L1I_load_miss_rate 4.8947e-05
Core_0_L1I_rfo_access 0
Core_0_L1I_rfo_hit 0
Core_0_L1I_rfo_miss 0
Core_0_L1I_rfo_MPKI 0
Core_0_L1I_rfo_miss_rate 0
Core_0_L1I_prefetch_access 0
Core_0_L1I_prefetch_hit 0
Core_0_L1I_prefetch_miss 0
Core_0_L1I_prefetch_MPKI 0
Core_0_L1I_prefetch_miss_rate 0
Core_0_L1I_writeback_access 0
Core_0_L1I_writeback_hit 0
Core_0_L1I_writeback_miss 0
Core_0_L1I_writeback_MPKI 0
Core_0_L1I_writeback_miss_rate 0
Core_0_L1I_prefetch_requested 0
Core_0_L1I_prefetch_issued 0
Core_0_L1I_prefetch_useful 0
Core_0_L1I_prefetch_useless 0
Core_0_L1I_prefetch_late 0
Core_0_L1I_prefetch_accuracy 0
Core_0_L1I_prefetch_coverage 0

Core_0_L1D_total_access 17056712
Core_0_L1D_total_hit 16728937
Core_0_L1D_total_miss 327775
Core_0_L1D_total_MPKI 3.27775
Core_0_L1D_total_miss_rate 0.0192168
Core_0_L1D_demand_access 10084835
Core_0_L1D_demand_hit 9758149
Core_0_L1D_demand_miss 326686
Core_0_L1D_demand_MPKI 3.26686
Core_0_L1D_demand_miss_rate 0.0323938
Core_0_L1D_load_access 10084835
Core_0_L1D_load_hit 9758149
Core_0_L1D_load_miss 326686
Core_0_L1D_load_MPKI 3.26686
Core_0_L1D_load_miss_rate 0.0323938
Core_0_L1D_rfo_access 0
Core_0_L1D_rfo_hit 0
Core_0_L1D_rfo_miss 0
Core_0_L1D_rfo_MPKI 0
Core_0_L1D_rfo_miss_rate 0
Core_0_L1D_prefetch_access 0
Core_0_L1D_prefetch_hit 0
Core_0_L1D_prefetch_miss 0
Core_0_L1D_prefetch_MPKI 0
Core_0_L1D_prefetch_miss_rate 0
Core_0_L1D_writeback_access 6971877
Core_0_L1D_writeback_hit 6970788
Core_0_L1D_writeback_miss 1089
Core_0_L1D_writeback_MPKI 0.01089
Core_0_L1D_writeback_miss_rate 0.000156199
Core_0_L1D_prefetch_requested 0
Core_0_L1D_prefetch_issued 0
Core_0_L1D_prefetch_useful 0
Core_0_L1D_prefetch_useless 0
Core_0_L1D_prefetch_late 0
Core_0_L1D_prefetch_accuracy 0
Core_0_L1D_prefetch_coverage 0

Core_0_L2C_total_access 277553
Core_0_L2C_total_hit 64507
Core_0_L2C_total_miss 213046
Core_0_L2C_total_MPKI 2.13046
Core_0_L2C_total_miss_rate 0.767587
Core_0_L2C_demand_access 214182
Core_0_L2C_demand_hit 1136
Core_0_L2C_demand_miss 213046
Core_0_L2C_demand_MPKI 2.13046
Core_0_L2C_demand_miss_rate 0.994696
Core_0_L2C_load_access 213615
Core_0_L2C_load_hit 705
Core_0_L2C_load_miss 212910
Core_0_L2C_load_MPKI 2.1291
Core_0_L2C_load_miss_rate 0.9967
Core_0_L2C_rfo_access 567
Core_0_L2C_rfo_hit 431
Core_0_L2C_rfo_miss 136
Core_0_L2C_rfo_MPKI 0.00136
Core_0_L2C_rfo_miss_rate 0.239859
Core_0_L2C_prefetch_access 0
Core_0_L2C_prefetch_hit 0
Core_0_L2C_prefetch_miss 0
Core_0_L2C_prefetch_MPKI 0
Core_0_L2C_prefetch_miss_rate 0
Core_0_L2C_writeback_access 63371
Core_0_L2C_writeback_hit 63371
Core_0_L2C_writeback_miss 0
Core_0_L2C_writeback_MPKI 0
Core_0_L2C_writeback_miss_rate 0
Core_0_L2C_prefetch_requested 0
Core_0_L2C_prefetch_issued 0
Core_0_L2C_prefetch_useful 0
Core_0_L2C_prefetch_useless 0
Core_0_L2C_prefetch_late 0
Core_0_L2C_prefetch_accuracy 0
Core_0_L2C_prefetch_coverage 0

Core_0_LLC_total_access 275948
Core_0_LLC_total_hit 138243
Core_0_LLC_total_miss 137705
Core_0_LLC_total_MPKI 1.37705
Core_0_LLC_total_miss_rate 0.499025
Core_0_LLC_demand_access 213046
Core_0_LLC_demand_hit 85533
Core_0_LLC_demand_miss 127513
Core_0_LLC_demand_MPKI 1.27513
Core_0_LLC_demand_miss_rate 0.598523
Core_0_LLC_load_access 212910
Core_0_LLC_load_hit 85415
Core_0_LLC_load_miss 127495
Core_0_LLC_load_MPKI 1.27495
Core_0_LLC_load_miss_rate 0.598821
Core_0_LLC_rfo_access 136
Core_0_LLC_rfo_hit 118
Core_0_LLC_rfo_miss 18
Core_0_LLC_rfo_MPKI 0.00018
Core_0_LLC_rfo_miss_rate 0.132353
Core_0_LLC_prefetch_access 0
Core_0_LLC_prefetch_hit 0
Core_0_LLC_prefetch_miss 0
Core_0_LLC_prefetch_MPKI 0
Core_0_LLC_prefetch_miss_rate 0
Core_0_LLC_writeback_access 62902
Core_0_LLC_writeback_hit 52710
Core_0_LLC_writeback_miss 10192
Core_0_LLC_writeback_MPKI 0.10192
Core_0_LLC_writeback_miss_rate 0.16203
Core_0_LLC_prefetch_requested 0
Core_0_LLC_prefetch_issued 0
Core_0_LLC_prefetch_useful 0
Core_0_LLC_prefetch_useless 0
Core_0_LLC_prefetch_late 0
Core_0_LLC_prefetch_accuracy 0
Core_0_LLC_prefetch_coverage 0

[DRAM Statistics]
Channel_0_RQ_row_buffer_hit 7
Channel_0_RQ_row_buffer_miss 127506
Channel_0_WQ_row_buffer_hit 2029
Channel_0_WQ_row_buffer_miss 16513
Channel_0_WQ_full 0
Channel_0_dbus_congested 225197
DRAM_total_RQ_row_buffer_hit 7
DRAM_total_RQ_row_buffer_miss 127506
DRAM_total_WQ_row_buffer_hit 2029
DRAM_total_WQ_row_buffer_miss 16513
DRAM_total_WQ_full 0
DRAM_total_dbus_congested 225197
DRAM_avg_congested_cycle 10.5407

====== DRAM_RQ_TRAFFIC ========
DRAM_RQ_READ_TRAFFIC_BREAKDOWN:
data_demand_read.count = 127461
data_demand_read.share = 99.96%

inst_demand_read.count = 52
inst_demand_read.share = 0.04%

cache_inst_prefetch.count = 0
cache_inst_prefetch.share = 0.00%

cache_data_prefetch.count = 0
cache_data_prefetch.share = 0.00%

stlb_data_demand.count = 0
stlb_data_demand.share = 0.00%

stlb_inst_demand.count = 0
stlb_inst_demand.share = 0.00%

stlb_l1i_pref.count = 0
stlb_l1i_pref.share = 0.00%

stlb_l1d_pref.count = 0
stlb_l1d_pref.share = 0.00%

DRAM_RQ_READ_TRAFFIC_SUMMARY:
cache_demand.count = 127513
cache_demand.share = 100.00%

cache_prefetch.count = 0
cache_prefetch.share = 0.00%

stlb_demand.count = 0
stlb_demand.share = 0.00%

stlb_prefetch.count = 0
stlb_prefetch.share = 0.00%

DRAM_RQ_READ_TRAFFIC_DEBUG:
total_classified_read.count = 127513
unclassified_read.count = 0
total_read_with_other.count = 127513

classified_plus_unclassified_check.count = 127513
dram_rq_read_total_observed.count = 127513
dram_rq_read_total_observed.per_1K_instructions = 1.27513

STLB_MISS_PTW_DRAM_TOUCH_BREAKDOWN:
stlb_miss_total.count = 0

stlb_miss_touch_dram.count = 0
stlb_miss_touch_dram.share = 0.00%

stlb_miss_no_dram_touch.count = 0
stlb_miss_no_dram_touch.share = 0.00%

STLB_MISS_PTW_DRAM_TOUCH_DEBUG:
stlb_miss_touch_plus_no_touch.count = 0
stlb_miss_total_check.count = 0

======STLB miss causes ========
Core_0_STLB_miss_cause_breakdown
Core_0_STLB_cause_Demand_Data_miss 0
Core_0_STLB_cause_Demand_Data_miss_rate 0
Core_0_STLB_cause_Demand_Instruction_miss 0
Core_0_STLB_cause_Demand_Instruction_miss_rate 0
Core_0_STLB_cause_L1D_Prefetch_miss 0
Core_0_STLB_cause_L1D_Prefetch_miss_rate 0
Core_0_STLB_cause_L1I_Prefetch_miss 0
Core_0_STLB_cause_L1I_Prefetch_miss_rate 0
Core_0_STLB_cause_Other_miss 0
Core_0_STLB_cause_Other_miss_rate 0
Core_0_STLB_Demand_miss 0
Core_0_STLB_Demand_miss_rate 0
Core_0_STLB_L1D_Prefetch_miss 0
Core_0_STLB_L1D_Prefetch_miss_rate 0
Core_0_STLB_Other_miss 0
Core_0_STLB_Other_miss_rate 0
