[VMEM] WARNING: physical memory size is smaller than virtual memory size.

*** ChampSim Multicore Out-of-Order Simulator ***
Warmup Instructions: 50000000
Simulation Instructions: 100000000
Number of CPUs: 1
Page size: 4096
Core 0: /data0/tzh/champsim_traces/QMM/compute_fp_11_new.xz
Off-chip DRAM Size: 16 GiB Channels: 1 Width: 64-bit Data Rate: 3205 MT/s
*** Reached end of trace: (0, "/data0/tzh/champsim_traces/QMM/compute_fp_11_new.xz")
Warmup halting CPU 0 at instruction 50000001 cycle 10381563 for remainder of phase
Warmup finished CPU 0 instructions: 50000001 cycles: 10381563 cumulative IPC: 4.816 (Simulation time: 00 hr 01 min 51 sec)
Warmup complete CPU 0 instructions: 50000001 cycles: 10381563 cumulative IPC: 4.816 (Simulation time: 00 hr 01 min 51 sec)
*** Reached end of trace: (0, "/data0/tzh/champsim_traces/QMM/compute_fp_11_new.xz")
*** Reached end of trace: (0, "/data0/tzh/champsim_traces/QMM/compute_fp_11_new.xz")
*** Reached end of trace: (0, "/data0/tzh/champsim_traces/QMM/compute_fp_11_new.xz")
Simulation finished CPU 0 instructions: 100000002 cycles: 97032138 cumulative IPC: 1.031 (Simulation time: 00 hr 14 min 58 sec)
Simulation complete CPU 0 instructions: 100000002 cycles: 97032138 cumulative IPC: 1.031 (Simulation time: 00 hr 14 min 58 sec)

ChampSim completed all CPUs

=== Simulation ===
CPU 0 runs /data0/tzh/champsim_traces/QMM/compute_fp_11_new.xz

Region of Interest Statistics

CPU 0 cumulative IPC: 1.031 instructions: 100000002 cycles: 97032138
CPU 0 Branch Prediction Accuracy: 99.93% MPKI: 0.00947 Average ROB Occupancy at Mispredict: 348.5
Branch type MPKI
BRANCH_DIRECT_JUMP: 0
BRANCH_INDIRECT: 0
BRANCH_CONDITIONAL: 0.00947
BRANCH_DIRECT_CALL: 0
BRANCH_INDIRECT_CALL: 0
BRANCH_RETURN: 0

cpu0->cpu0_STLB TOTAL        ACCESS:      11458 HIT:       1584 MISS:       9874 MSHR_MERGE:          0
cpu0->cpu0_STLB LOAD         ACCESS:      11458 HIT:       1584 MISS:       9874 MSHR_MERGE:          0
cpu0->cpu0_STLB RFO          ACCESS:          0 HIT:          0 MISS:          0 MSHR_MERGE:          0
cpu0->cpu0_STLB PREFETCH     ACCESS:          0 HIT:          0 MISS:          0 MSHR_MERGE:          0
cpu0->cpu0_STLB WRITE        ACCESS:          0 HIT:          0 MISS:          0 MSHR_MERGE:          0
cpu0->cpu0_STLB TRANSLATION  ACCESS:          0 HIT:          0 MISS:          0 MSHR_MERGE:          0
cpu0->cpu0_STLB PREFETCH REQUESTED:          0 ISSUED:          0 USEFUL:          0 USELESS:          0 LATE:          0
cpu0->cpu0_STLB AVERAGE MISS LATENCY: 49.42 cycles
cpu0->cpu0_L2C TOTAL        ACCESS:    1253173 HIT:     634095 MISS:     619078 MSHR_MERGE:          0
cpu0->cpu0_L2C LOAD         ACCESS:     625553 HIT:     315931 MISS:     309622 MSHR_MERGE:          0
cpu0->cpu0_L2C RFO          ACCESS:     311394 HIT:       3317 MISS:     308077 MSHR_MERGE:          0
cpu0->cpu0_L2C PREFETCH     ACCESS:          0 HIT:          0 MISS:          0 MSHR_MERGE:          0
cpu0->cpu0_L2C WRITE        ACCESS:     314847 HIT:     314847 MISS:          0 MSHR_MERGE:          0
cpu0->cpu0_L2C TRANSLATION  ACCESS:       1379 HIT:          0 MISS:       1379 MSHR_MERGE:          0
cpu0->cpu0_L2C PREFETCH REQUESTED:          0 ISSUED:          0 USEFUL:          0 USELESS:          0 LATE:          0
cpu0->cpu0_L2C AVERAGE MISS LATENCY: 262.9 cycles
cpu0->cpu0_L1I TOTAL        ACCESS:   13535043 HIT:   13534756 MISS:        287 MSHR_MERGE:        119
cpu0->cpu0_L1I LOAD         ACCESS:   13535043 HIT:   13534756 MISS:        287 MSHR_MERGE:        119
cpu0->cpu0_L1I RFO          ACCESS:          0 HIT:          0 MISS:          0 MSHR_MERGE:          0
cpu0->cpu0_L1I PREFETCH     ACCESS:          0 HIT:          0 MISS:          0 MSHR_MERGE:          0
cpu0->cpu0_L1I WRITE        ACCESS:          0 HIT:          0 MISS:          0 MSHR_MERGE:          0
cpu0->cpu0_L1I TRANSLATION  ACCESS:          0 HIT:          0 MISS:          0 MSHR_MERGE:          0
cpu0->cpu0_L1I PREFETCH REQUESTED:          0 ISSUED:          0 USEFUL:          0 USELESS:          0 LATE:          0
cpu0->cpu0_L1I AVERAGE MISS LATENCY: 298.4 cycles
cpu0->cpu0_L1D TOTAL        ACCESS:   17465540 HIT:   10802796 MISS:    6662744 MSHR_MERGE:    5724586
cpu0->cpu0_L1D LOAD         ACCESS:    7565784 HIT:    4294289 MISS:    3271495 MSHR_MERGE:    2646110
cpu0->cpu0_L1D RFO          ACCESS:          0 HIT:          0 MISS:          0 MSHR_MERGE:          0
cpu0->cpu0_L1D PREFETCH     ACCESS:          0 HIT:          0 MISS:          0 MSHR_MERGE:          0
cpu0->cpu0_L1D WRITE        ACCESS:    9880021 HIT:    6490164 MISS:    3389857 MSHR_MERGE:    3078463
cpu0->cpu0_L1D TRANSLATION  ACCESS:      19735 HIT:      18343 MISS:       1392 MSHR_MERGE:         13
cpu0->cpu0_L1D PREFETCH REQUESTED:          0 ISSUED:          0 USEFUL:          0 USELESS:          0 LATE:          0
cpu0->cpu0_L1D AVERAGE MISS LATENCY: 182.1 cycles
cpu0->cpu0_ITLB TOTAL        ACCESS:   13216472 HIT:   13216154 MISS:        318 MSHR_MERGE:        231
cpu0->cpu0_ITLB LOAD         ACCESS:   13216472 HIT:   13216154 MISS:        318 MSHR_MERGE:        231
cpu0->cpu0_ITLB RFO          ACCESS:          0 HIT:          0 MISS:          0 MSHR_MERGE:          0
cpu0->cpu0_ITLB PREFETCH     ACCESS:          0 HIT:          0 MISS:          0 MSHR_MERGE:          0
cpu0->cpu0_ITLB WRITE        ACCESS:          0 HIT:          0 MISS:          0 MSHR_MERGE:          0
cpu0->cpu0_ITLB TRANSLATION  ACCESS:          0 HIT:          0 MISS:          0 MSHR_MERGE:          0
cpu0->cpu0_ITLB PREFETCH REQUESTED:          0 ISSUED:          0 USEFUL:          0 USELESS:          0 LATE:          0
cpu0->cpu0_ITLB AVERAGE MISS LATENCY: 247.1 cycles
cpu0->cpu0_DTLB TOTAL        ACCESS:   15622845 HIT:   15574877 MISS:      47968 MSHR_MERGE:      36597
cpu0->cpu0_DTLB LOAD         ACCESS:   15622845 HIT:   15574877 MISS:      47968 MSHR_MERGE:      36597
cpu0->cpu0_DTLB RFO          ACCESS:          0 HIT:          0 MISS:          0 MSHR_MERGE:          0
cpu0->cpu0_DTLB PREFETCH     ACCESS:          0 HIT:          0 MISS:          0 MSHR_MERGE:          0
cpu0->cpu0_DTLB WRITE        ACCESS:          0 HIT:          0 MISS:          0 MSHR_MERGE:          0
cpu0->cpu0_DTLB TRANSLATION  ACCESS:          0 HIT:          0 MISS:          0 MSHR_MERGE:          0
cpu0->cpu0_DTLB PREFETCH REQUESTED:          0 ISSUED:          0 USEFUL:          0 USELESS:          0 LATE:          0
cpu0->cpu0_DTLB AVERAGE MISS LATENCY: 46.93 cycles
cpu0->LLC TOTAL        ACCESS:     927896 HIT:     271391 MISS:     656505 MSHR_MERGE:          0
cpu0->LLC LOAD         ACCESS:     309622 HIT:          0 MISS:     309622 MSHR_MERGE:          0
cpu0->LLC RFO          ACCESS:     308077 HIT:          3 MISS:     308074 MSHR_MERGE:          0
cpu0->LLC PREFETCH     ACCESS:          0 HIT:          0 MISS:          0 MSHR_MERGE:          0
cpu0->LLC WRITE        ACCESS:     308818 HIT:     271388 MISS:      37430 MSHR_MERGE:          0
cpu0->LLC TRANSLATION  ACCESS:       1379 HIT:          0 MISS:       1379 MSHR_MERGE:          0
cpu0->LLC PREFETCH REQUESTED:          0 ISSUED:          0 USEFUL:          0 USELESS:          0 LATE:          0
cpu0->LLC AVERAGE MISS LATENCY: 233.3 cycles

DRAM Statistics

Channel 0 RQ ROW_BUFFER_HIT:       1159
  ROW_BUFFER_MISS:     617916
  AVG DBUS CONGESTED CYCLE: 7.297
Channel 0 WQ ROW_BUFFER_HIT:     127483
  ROW_BUFFER_MISS:     181173
  FULL:          0
Channel 0 REFRESHES ISSUED:       8086

[ROI Statistics]
[System Configuration]
num_cpus 1
cpu_freq 4000
fetch_width 6
decode_width 6
dispatch_width 6
execute_width 6
lq_width 2
sq_width 2
retire_width 6
scheduler_size 128
branch_mispredict_penalty 15
rob_size 352
lq_size 128
sq_size 72
ifetch_buffer_size 64
decode_buffer_size 32
dispatch_buffer_size 32
register_file_size 288
decode_latency 1
dispatch_latency 1
schedule_latency 1
execute_latency 1
page_size 4096
block_size 64
core_0_itlb_set 16
core_0_itlb_way 4
core_0_itlb_rq_size 16
core_0_itlb_wq_size 16
core_0_itlb_pq_size 0
core_0_itlb_mshr_size 8
core_0_itlb_hit_latency 1
core_0_itlb_fill_latency 1
core_0_itlb_max_tag_check 2
core_0_itlb_max_fill 2
core_0_dtlb_set 16
core_0_dtlb_way 4
core_0_dtlb_rq_size 16
core_0_dtlb_wq_size 16
core_0_dtlb_pq_size 0
core_0_dtlb_mshr_size 8
core_0_dtlb_hit_latency 1
core_0_dtlb_fill_latency 1
core_0_dtlb_max_tag_check 2
core_0_dtlb_max_fill 2
core_0_stlb_set 128
core_0_stlb_way 12
core_0_stlb_rq_size 32
core_0_stlb_wq_size 32
core_0_stlb_pq_size 0
core_0_stlb_mshr_size 16
core_0_stlb_hit_latency 4
core_0_stlb_fill_latency 4
core_0_stlb_max_tag_check 1
core_0_stlb_max_fill 1
core_0_l1i_set 64
core_0_l1i_way 8
core_0_l1i_rq_size 64
core_0_l1i_wq_size 64
core_0_l1i_pq_size 32
core_0_l1i_mshr_size 8
core_0_l1i_hit_latency 2
core_0_l1i_fill_latency 2
core_0_l1i_max_tag_check 2
core_0_l1i_max_fill 2
core_0_l1d_set 64
core_0_l1d_way 12
core_0_l1d_rq_size 64
core_0_l1d_wq_size 64
core_0_l1d_pq_size 8
core_0_l1d_mshr_size 16
core_0_l1d_hit_latency 2
core_0_l1d_fill_latency 3
core_0_l1d_max_tag_check 2
core_0_l1d_max_fill 2
core_0_l2c_set 1024
core_0_l2c_way 8
core_0_l2c_rq_size 32
core_0_l2c_wq_size 32
core_0_l2c_pq_size 16
core_0_l2c_mshr_size 32
core_0_l2c_hit_latency 5
core_0_l2c_fill_latency 5
core_0_l2c_max_tag_check 1
core_0_l2c_max_fill 1
llc_set 2048
llc_way 16
llc_rq_size 32
llc_wq_size 32
llc_pq_size 32
llc_mshr_size 64
llc_hit_latency 10
llc_fill_latency 10
llc_max_tag_check 1
llc_max_fill 1
dram_channels 1
dram_ranks 1
dram_bankgroups 8
dram_banks 4
dram_rows 65536
dram_columns 1024
dram_channel_width 8
dram_rq_size 64
dram_wq_size 64
dram_size 17179869184
core_0_itlb_prefetcher no
core_0_dtlb_prefetcher no
core_0_stlb_prefetcher no
core_0_l1i_prefetcher no
core_0_l1d_prefetcher no
core_0_l2c_prefetcher no
llc_prefetcher no
llc_replacement drrip

Core_0_instructions 100000002
Core_0_cycles 97032138
Core_0_IPC 1.03059
Core_0_branch_prediction_accuracy 99.9257
Core_0_branch_MPKI 0.00947
Core_0_average_ROB_occupancy_at_mispredict 348.517

Core_0_ITLB_total_access 13216472
Core_0_ITLB_total_hit 13216154
Core_0_ITLB_total_miss 318
Core_0_ITLB_total_MPKI 0.00318
Core_0_ITLB_total_miss_rate 2.40609e-05
Core_0_ITLB_demand_access 13216472
Core_0_ITLB_demand_hit 13216154
Core_0_ITLB_demand_miss 318
Core_0_ITLB_demand_MPKI 0.00318
Core_0_ITLB_demand_miss_rate 2.40609e-05
Core_0_ITLB_load_access 13216472
Core_0_ITLB_load_hit 13216154
Core_0_ITLB_load_miss 318
Core_0_ITLB_load_MPKI 0.00318
Core_0_ITLB_load_miss_rate 2.40609e-05
Core_0_ITLB_rfo_access 0
Core_0_ITLB_rfo_hit 0
Core_0_ITLB_rfo_miss 0
Core_0_ITLB_rfo_MPKI 0
Core_0_ITLB_rfo_miss_rate 0
Core_0_ITLB_prefetch_access 0
Core_0_ITLB_prefetch_hit 0
Core_0_ITLB_prefetch_miss 0
Core_0_ITLB_prefetch_MPKI 0
Core_0_ITLB_prefetch_miss_rate 0
Core_0_ITLB_writeback_access 0
Core_0_ITLB_writeback_hit 0
Core_0_ITLB_writeback_miss 0
Core_0_ITLB_writeback_MPKI 0
Core_0_ITLB_writeback_miss_rate 0
Core_0_ITLB_prefetch_requested 0
Core_0_ITLB_prefetch_issued 0
Core_0_ITLB_prefetch_useful 0
Core_0_ITLB_prefetch_useless 0
Core_0_ITLB_prefetch_late 0
Core_0_ITLB_prefetch_accuracy 0
Core_0_ITLB_prefetch_coverage 0

Core_0_DTLB_total_access 15622845
Core_0_DTLB_total_hit 15574877
Core_0_DTLB_total_miss 47968
Core_0_DTLB_total_MPKI 0.47968
Core_0_DTLB_total_miss_rate 0.00307038
Core_0_DTLB_demand_access 15622845
Core_0_DTLB_demand_hit 15574877
Core_0_DTLB_demand_miss 47968
Core_0_DTLB_demand_MPKI 0.47968
Core_0_DTLB_demand_miss_rate 0.00307038
Core_0_DTLB_load_access 15622845
Core_0_DTLB_load_hit 15574877
Core_0_DTLB_load_miss 47968
Core_0_DTLB_load_MPKI 0.47968
Core_0_DTLB_load_miss_rate 0.00307038
Core_0_DTLB_rfo_access 0
Core_0_DTLB_rfo_hit 0
Core_0_DTLB_rfo_miss 0
Core_0_DTLB_rfo_MPKI 0
Core_0_DTLB_rfo_miss_rate 0
Core_0_DTLB_prefetch_access 0
Core_0_DTLB_prefetch_hit 0
Core_0_DTLB_prefetch_miss 0
Core_0_DTLB_prefetch_MPKI 0
Core_0_DTLB_prefetch_miss_rate 0
Core_0_DTLB_writeback_access 0
Core_0_DTLB_writeback_hit 0
Core_0_DTLB_writeback_miss 0
Core_0_DTLB_writeback_MPKI 0
Core_0_DTLB_writeback_miss_rate 0
Core_0_DTLB_prefetch_requested 0
Core_0_DTLB_prefetch_issued 0
Core_0_DTLB_prefetch_useful 0
Core_0_DTLB_prefetch_useless 0
Core_0_DTLB_prefetch_late 0
Core_0_DTLB_prefetch_accuracy 0
Core_0_DTLB_prefetch_coverage 0

Core_0_STLB_total_access 11458
Core_0_STLB_total_hit 1584
Core_0_STLB_total_miss 9874
Core_0_STLB_total_MPKI 0.09874
Core_0_STLB_total_miss_rate 0.861756
Core_0_STLB_demand_access 11458
Core_0_STLB_demand_hit 1584
Core_0_STLB_demand_miss 9874
Core_0_STLB_demand_MPKI 0.09874
Core_0_STLB_demand_miss_rate 0.861756
Core_0_STLB_load_access 11458
Core_0_STLB_load_hit 1584
Core_0_STLB_load_miss 9874
Core_0_STLB_load_MPKI 0.09874
Core_0_STLB_load_miss_rate 0.861756
Core_0_STLB_rfo_access 0
Core_0_STLB_rfo_hit 0
Core_0_STLB_rfo_miss 0
Core_0_STLB_rfo_MPKI 0
Core_0_STLB_rfo_miss_rate 0
Core_0_STLB_prefetch_access 0
Core_0_STLB_prefetch_hit 0
Core_0_STLB_prefetch_miss 0
Core_0_STLB_prefetch_MPKI 0
Core_0_STLB_prefetch_miss_rate 0
Core_0_STLB_writeback_access 0
Core_0_STLB_writeback_hit 0
Core_0_STLB_writeback_miss 0
Core_0_STLB_writeback_MPKI 0
Core_0_STLB_writeback_miss_rate 0
Core_0_STLB_prefetch_requested 0
Core_0_STLB_prefetch_issued 0
Core_0_STLB_prefetch_useful 0
Core_0_STLB_prefetch_useless 0
Core_0_STLB_prefetch_late 0
Core_0_STLB_prefetch_accuracy 0
Core_0_STLB_prefetch_coverage 0

Core_0_L1I_total_access 13535043
Core_0_L1I_total_hit 13534756
Core_0_L1I_total_miss 287
Core_0_L1I_total_MPKI 0.00287
Core_0_L1I_total_miss_rate 2.12042e-05
Core_0_L1I_demand_access 13535043
Core_0_L1I_demand_hit 13534756
Core_0_L1I_demand_miss 287
Core_0_L1I_demand_MPKI 0.00287
Core_0_L1I_demand_miss_rate 2.12042e-05
Core_0_L1I_load_access 13535043
Core_0_L1I_load_hit 13534756
Core_0_L1I_load_miss 287
Core_0_L1I_load_MPKI 0.00287
Core_0_L1I_load_miss_rate 2.12042e-05
Core_0_L1I_rfo_access 0
Core_0_L1I_rfo_hit 0
Core_0_L1I_rfo_miss 0
Core_0_L1I_rfo_MPKI 0
Core_0_L1I_rfo_miss_rate 0
Core_0_L1I_prefetch_access 0
Core_0_L1I_prefetch_hit 0
Core_0_L1I_prefetch_miss 0
Core_0_L1I_prefetch_MPKI 0
Core_0_L1I_prefetch_miss_rate 0
Core_0_L1I_writeback_access 0
Core_0_L1I_writeback_hit 0
Core_0_L1I_writeback_miss 0
Core_0_L1I_writeback_MPKI 0
Core_0_L1I_writeback_miss_rate 0
Core_0_L1I_prefetch_requested 0
Core_0_L1I_prefetch_issued 0
Core_0_L1I_prefetch_useful 0
Core_0_L1I_prefetch_useless 0
Core_0_L1I_prefetch_late 0
Core_0_L1I_prefetch_accuracy 0
Core_0_L1I_prefetch_coverage 0

Core_0_L1D_total_access 17445805
Core_0_L1D_total_hit 10784453
Core_0_L1D_total_miss 6661352
Core_0_L1D_total_MPKI 66.6135
Core_0_L1D_total_miss_rate 0.381831
Core_0_L1D_demand_access 7565784
Core_0_L1D_demand_hit 4294289
Core_0_L1D_demand_miss 3271495
Core_0_L1D_demand_MPKI 32.7149
Core_0_L1D_demand_miss_rate 0.432407
Core_0_L1D_load_access 7565784
Core_0_L1D_load_hit 4294289
Core_0_L1D_load_miss 3271495
Core_0_L1D_load_MPKI 32.7149
Core_0_L1D_load_miss_rate 0.432407
Core_0_L1D_rfo_access 0
Core_0_L1D_rfo_hit 0
Core_0_L1D_rfo_miss 0
Core_0_L1D_rfo_MPKI 0
Core_0_L1D_rfo_miss_rate 0
Core_0_L1D_prefetch_access 0
Core_0_L1D_prefetch_hit 0
Core_0_L1D_prefetch_miss 0
Core_0_L1D_prefetch_MPKI 0
Core_0_L1D_prefetch_miss_rate 0
Core_0_L1D_writeback_access 9880021
Core_0_L1D_writeback_hit 6490164
Core_0_L1D_writeback_miss 3389857
Core_0_L1D_writeback_MPKI 33.8986
Core_0_L1D_writeback_miss_rate 0.343102
Core_0_L1D_prefetch_requested 0
Core_0_L1D_prefetch_issued 0
Core_0_L1D_prefetch_useful 0
Core_0_L1D_prefetch_useless 0
Core_0_L1D_prefetch_late 0
Core_0_L1D_prefetch_accuracy 0
Core_0_L1D_prefetch_coverage 0

Core_0_L2C_total_access 1251794
Core_0_L2C_total_hit 634095
Core_0_L2C_total_miss 617699
Core_0_L2C_total_MPKI 6.17699
Core_0_L2C_total_miss_rate 0.493451
Core_0_L2C_demand_access 936947
Core_0_L2C_demand_hit 319248
Core_0_L2C_demand_miss 617699
Core_0_L2C_demand_MPKI 6.17699
Core_0_L2C_demand_miss_rate 0.659268
Core_0_L2C_load_access 625553
Core_0_L2C_load_hit 315931
Core_0_L2C_load_miss 309622
Core_0_L2C_load_MPKI 3.09622
Core_0_L2C_load_miss_rate 0.494957
Core_0_L2C_rfo_access 311394
Core_0_L2C_rfo_hit 3317
Core_0_L2C_rfo_miss 308077
Core_0_L2C_rfo_MPKI 3.08077
Core_0_L2C_rfo_miss_rate 0.989348
Core_0_L2C_prefetch_access 0
Core_0_L2C_prefetch_hit 0
Core_0_L2C_prefetch_miss 0
Core_0_L2C_prefetch_MPKI 0
Core_0_L2C_prefetch_miss_rate 0
Core_0_L2C_writeback_access 314847
Core_0_L2C_writeback_hit 314847
Core_0_L2C_writeback_miss 0
Core_0_L2C_writeback_MPKI 0
Core_0_L2C_writeback_miss_rate 0
Core_0_L2C_prefetch_requested 0
Core_0_L2C_prefetch_issued 0
Core_0_L2C_prefetch_useful 0
Core_0_L2C_prefetch_useless 0
Core_0_L2C_prefetch_late 0
Core_0_L2C_prefetch_accuracy 0
Core_0_L2C_prefetch_coverage 0

Core_0_LLC_total_access 926517
Core_0_LLC_total_hit 271391
Core_0_LLC_total_miss 655126
Core_0_LLC_total_MPKI 6.55126
Core_0_LLC_total_miss_rate 0.707085
Core_0_LLC_demand_access 617699
Core_0_LLC_demand_hit 3
Core_0_LLC_demand_miss 617696
Core_0_LLC_demand_MPKI 6.17696
Core_0_LLC_demand_miss_rate 0.999995
Core_0_LLC_load_access 309622
Core_0_LLC_load_hit 0
Core_0_LLC_load_miss 309622
Core_0_LLC_load_MPKI 3.09622
Core_0_LLC_load_miss_rate 1
Core_0_LLC_rfo_access 308077
Core_0_LLC_rfo_hit 3
Core_0_LLC_rfo_miss 308074
Core_0_LLC_rfo_MPKI 3.08074
Core_0_LLC_rfo_miss_rate 0.99999
Core_0_LLC_prefetch_access 0
Core_0_LLC_prefetch_hit 0
Core_0_LLC_prefetch_miss 0
Core_0_LLC_prefetch_MPKI 0
Core_0_LLC_prefetch_miss_rate 0
Core_0_LLC_writeback_access 308818
Core_0_LLC_writeback_hit 271388
Core_0_LLC_writeback_miss 37430
Core_0_LLC_writeback_MPKI 0.3743
Core_0_LLC_writeback_miss_rate 0.121204
Core_0_LLC_prefetch_requested 0
Core_0_LLC_prefetch_issued 0
Core_0_LLC_prefetch_useful 0
Core_0_LLC_prefetch_useless 0
Core_0_LLC_prefetch_late 0
Core_0_LLC_prefetch_accuracy 0
Core_0_LLC_prefetch_coverage 0

[DRAM Statistics]
Channel_0_RQ_row_buffer_hit 1159
Channel_0_RQ_row_buffer_miss 617916
Channel_0_WQ_row_buffer_hit 127483
Channel_0_WQ_row_buffer_miss 181173
Channel_0_WQ_full 0
Channel_0_dbus_congested 3672519
DRAM_total_RQ_row_buffer_hit 1159
DRAM_total_RQ_row_buffer_miss 617916
DRAM_total_WQ_row_buffer_hit 127483
DRAM_total_WQ_row_buffer_miss 181173
DRAM_total_WQ_full 0
DRAM_total_dbus_congested 3672519
DRAM_avg_congested_cycle 7.29685

====== DRAM_RQ_TRAFFIC ========
DRAM_RQ_READ_TRAFFIC_BREAKDOWN:
data_demand_read.count = 617528
data_demand_read.share = 99.75%

inst_demand_read.count = 168
inst_demand_read.share = 0.03%

cache_inst_prefetch.count = 0
cache_inst_prefetch.share = 0.00%

cache_data_prefetch.count = 0
cache_data_prefetch.share = 0.00%

stlb_data_demand.count = 1314
stlb_data_demand.share = 0.21%

stlb_inst_demand.count = 65
stlb_inst_demand.share = 0.01%

stlb_l1i_pref.count = 0
stlb_l1i_pref.share = 0.00%

stlb_l1d_pref.count = 0
stlb_l1d_pref.share = 0.00%

DRAM_RQ_READ_TRAFFIC_SUMMARY:
cache_demand.count = 617696
cache_demand.share = 99.78%

cache_prefetch.count = 0
cache_prefetch.share = 0.00%

stlb_demand.count = 1379
stlb_demand.share = 0.22%

stlb_prefetch.count = 0
stlb_prefetch.share = 0.00%

DRAM_RQ_READ_TRAFFIC_DEBUG:
total_classified_read.count = 619075
unclassified_read.count = 0
total_read_with_other.count = 619075

classified_plus_unclassified_check.count = 619075
dram_rq_read_total_observed.count = 619075
dram_rq_read_total_observed.per_1K_instructions = 6.19075

STLB_MISS_PTW_DRAM_TOUCH_BREAKDOWN:
stlb_miss_total.count = 9874

stlb_miss_touch_dram.count = 1379
stlb_miss_touch_dram.share = 13.97%

stlb_miss_no_dram_touch.count = 8495
stlb_miss_no_dram_touch.share = 86.03%

STLB_MISS_PTW_DRAM_TOUCH_DEBUG:
stlb_miss_touch_plus_no_touch.count = 9874
stlb_miss_total_check.count = 9874

======STLB miss causes ========
Core_0_STLB_miss_cause_breakdown
Core_0_STLB_cause_Demand_Data_miss 9796
Core_0_STLB_cause_Demand_Data_miss_rate 0.854949
Core_0_STLB_cause_Demand_Instruction_miss 78
Core_0_STLB_cause_Demand_Instruction_miss_rate 0.00680747
Core_0_STLB_cause_L1D_Prefetch_miss 0
Core_0_STLB_cause_L1D_Prefetch_miss_rate 0
Core_0_STLB_cause_L1I_Prefetch_miss 0
Core_0_STLB_cause_L1I_Prefetch_miss_rate 0
Core_0_STLB_cause_Other_miss 0
Core_0_STLB_cause_Other_miss_rate 0
Core_0_STLB_Demand_miss 9874
Core_0_STLB_Demand_miss_rate 0.861756
Core_0_STLB_L1D_Prefetch_miss 0
Core_0_STLB_L1D_Prefetch_miss_rate 0
Core_0_STLB_Other_miss 0
Core_0_STLB_Other_miss_rate 0
