[VMEM] WARNING: physical memory size is smaller than virtual memory size.

*** ChampSim Multicore Out-of-Order Simulator ***
Warmup Instructions: 50000000
Simulation Instructions: 100000000
Number of CPUs: 1
Page size: 4096
Core 0: /data0/tzh/champsim_traces/Ligra/ligra_BFS.com-lj.ungraph.gcc_6.3.0_O3.drop_15750M.length_250M.champsimtrace.xz
Off-chip DRAM Size: 16 GiB Channels: 1 Width: 64-bit Data Rate: 3205 MT/s
Warmup halting CPU 0 at instruction 50000003 cycle 14472831 for remainder of phase
Warmup finished CPU 0 instructions: 50000003 cycles: 14472831 cumulative IPC: 3.455 (Simulation time: 00 hr 02 min 53 sec)
Warmup complete CPU 0 instructions: 50000003 cycles: 14472831 cumulative IPC: 3.455 (Simulation time: 00 hr 02 min 53 sec)
Simulation finished CPU 0 instructions: 100000002 cycles: 274096977 cumulative IPC: 0.3648 (Simulation time: 00 hr 26 min 05 sec)
Simulation complete CPU 0 instructions: 100000002 cycles: 274096977 cumulative IPC: 0.3648 (Simulation time: 00 hr 26 min 05 sec)

ChampSim completed all CPUs

=== Simulation ===
CPU 0 runs /data0/tzh/champsim_traces/Ligra/ligra_BFS.com-lj.ungraph.gcc_6.3.0_O3.drop_15750M.length_250M.champsimtrace.xz

Region of Interest Statistics

CPU 0 cumulative IPC: 0.3648 instructions: 100000002 cycles: 274096977
CPU 0 Branch Prediction Accuracy: 85.78% MPKI: 18.15 Average ROB Occupancy at Mispredict: 58.61
Branch type MPKI
BRANCH_DIRECT_JUMP: 0
BRANCH_INDIRECT: 0
BRANCH_CONDITIONAL: 18.15
BRANCH_DIRECT_CALL: 0
BRANCH_INDIRECT_CALL: 0
BRANCH_RETURN: 0

cpu0->cpu0_STLB TOTAL        ACCESS:      39328 HIT:          0 MISS:      39328 MSHR_MERGE:          0
cpu0->cpu0_STLB LOAD         ACCESS:      39328 HIT:          0 MISS:      39328 MSHR_MERGE:          0
cpu0->cpu0_STLB RFO          ACCESS:          0 HIT:          0 MISS:          0 MSHR_MERGE:          0
cpu0->cpu0_STLB PREFETCH     ACCESS:          0 HIT:          0 MISS:          0 MSHR_MERGE:          0
cpu0->cpu0_STLB WRITE        ACCESS:          0 HIT:          0 MISS:          0 MSHR_MERGE:          0
cpu0->cpu0_STLB TRANSLATION  ACCESS:          0 HIT:          0 MISS:          0 MSHR_MERGE:          0
cpu0->cpu0_STLB PREFETCH REQUESTED:          0 ISSUED:          0 USEFUL:          0 USELESS:          0 LATE:          0
cpu0->cpu0_STLB AVERAGE MISS LATENCY: 245.1 cycles
cpu0->cpu0_L2C TOTAL        ACCESS:    3624974 HIT:    1102930 MISS:    2522044 MSHR_MERGE:          0
cpu0->cpu0_L2C LOAD         ACCESS:    1415815 HIT:          0 MISS:    1415815 MSHR_MERGE:          0
cpu0->cpu0_L2C RFO          ACCESS:    1101225 HIT:          0 MISS:    1101225 MSHR_MERGE:          0
cpu0->cpu0_L2C PREFETCH     ACCESS:          0 HIT:          0 MISS:          0 MSHR_MERGE:          0
cpu0->cpu0_L2C WRITE        ACCESS:    1101456 HIT:    1101456 MISS:          0 MSHR_MERGE:          0
cpu0->cpu0_L2C TRANSLATION  ACCESS:       6478 HIT:       1474 MISS:       5004 MSHR_MERGE:          0
cpu0->cpu0_L2C PREFETCH REQUESTED:          0 ISSUED:          0 USEFUL:          0 USELESS:          0 LATE:          0
cpu0->cpu0_L2C AVERAGE MISS LATENCY: 251.6 cycles
cpu0->cpu0_L1I TOTAL        ACCESS:    1157035 HIT:    1157035 MISS:          0 MSHR_MERGE:          0
cpu0->cpu0_L1I LOAD         ACCESS:    1157035 HIT:    1157035 MISS:          0 MSHR_MERGE:          0
cpu0->cpu0_L1I RFO          ACCESS:          0 HIT:          0 MISS:          0 MSHR_MERGE:          0
cpu0->cpu0_L1I PREFETCH     ACCESS:          0 HIT:          0 MISS:          0 MSHR_MERGE:          0
cpu0->cpu0_L1I WRITE        ACCESS:          0 HIT:          0 MISS:          0 MSHR_MERGE:          0
cpu0->cpu0_L1I TRANSLATION  ACCESS:          0 HIT:          0 MISS:          0 MSHR_MERGE:          0
cpu0->cpu0_L1I PREFETCH REQUESTED:          0 ISSUED:          0 USEFUL:          0 USELESS:          0 LATE:          0
cpu0->cpu0_L1I AVERAGE MISS LATENCY: - cycles
cpu0->cpu0_L1D TOTAL        ACCESS:   30364274 HIT:    9121209 MISS:   21243065 MSHR_MERGE:   18719547
cpu0->cpu0_L1D LOAD         ACCESS:   12665942 HIT:    6357244 MISS:    6308698 MSHR_MERGE:    4892883
cpu0->cpu0_L1D RFO          ACCESS:          0 HIT:          0 MISS:          0 MSHR_MERGE:          0
cpu0->cpu0_L1D PREFETCH     ACCESS:          0 HIT:          0 MISS:          0 MSHR_MERGE:          0
cpu0->cpu0_L1D WRITE        ACCESS:   17619598 HIT:    2691709 MISS:   14927889 MSHR_MERGE:   13826664
cpu0->cpu0_L1D TRANSLATION  ACCESS:      78734 HIT:      72256 MISS:       6478 MSHR_MERGE:          0
cpu0->cpu0_L1D PREFETCH REQUESTED:          0 ISSUED:          0 USEFUL:          0 USELESS:          0 LATE:          0
cpu0->cpu0_L1D AVERAGE MISS LATENCY: 260.4 cycles
cpu0->cpu0_ITLB TOTAL        ACCESS:    1157004 HIT:    1157004 MISS:          0 MSHR_MERGE:          0
cpu0->cpu0_ITLB LOAD         ACCESS:    1157004 HIT:    1157004 MISS:          0 MSHR_MERGE:          0
cpu0->cpu0_ITLB RFO          ACCESS:          0 HIT:          0 MISS:          0 MSHR_MERGE:          0
cpu0->cpu0_ITLB PREFETCH     ACCESS:          0 HIT:          0 MISS:          0 MSHR_MERGE:          0
cpu0->cpu0_ITLB WRITE        ACCESS:          0 HIT:          0 MISS:          0 MSHR_MERGE:          0
cpu0->cpu0_ITLB TRANSLATION  ACCESS:          0 HIT:          0 MISS:          0 MSHR_MERGE:          0
cpu0->cpu0_ITLB PREFETCH REQUESTED:          0 ISSUED:          0 USEFUL:          0 USELESS:          0 LATE:          0
cpu0->cpu0_ITLB AVERAGE MISS LATENCY: - cycles
cpu0->cpu0_DTLB TOTAL        ACCESS:   29268722 HIT:   28931161 MISS:     337561 MSHR_MERGE:     298233
cpu0->cpu0_DTLB LOAD         ACCESS:   29268722 HIT:   28931161 MISS:     337561 MSHR_MERGE:     298233
cpu0->cpu0_DTLB RFO          ACCESS:          0 HIT:          0 MISS:          0 MSHR_MERGE:          0
cpu0->cpu0_DTLB PREFETCH     ACCESS:          0 HIT:          0 MISS:          0 MSHR_MERGE:          0
cpu0->cpu0_DTLB WRITE        ACCESS:          0 HIT:          0 MISS:          0 MSHR_MERGE:          0
cpu0->cpu0_DTLB TRANSLATION  ACCESS:          0 HIT:          0 MISS:          0 MSHR_MERGE:          0
cpu0->cpu0_DTLB PREFETCH REQUESTED:          0 ISSUED:          0 USEFUL:          0 USELESS:          0 LATE:          0
cpu0->cpu0_DTLB AVERAGE MISS LATENCY: 251.1 cycles
cpu0->LLC TOTAL        ACCESS:    3625976 HIT:     535923 MISS:    3090053 MSHR_MERGE:          0
cpu0->LLC LOAD         ACCESS:    1415815 HIT:          0 MISS:    1415815 MSHR_MERGE:          0
cpu0->LLC RFO          ACCESS:    1101225 HIT:          0 MISS:    1101225 MSHR_MERGE:          0
cpu0->LLC PREFETCH     ACCESS:          0 HIT:          0 MISS:          0 MSHR_MERGE:          0
cpu0->LLC WRITE        ACCESS:    1103932 HIT:     535919 MISS:     568013 MSHR_MERGE:          0
cpu0->LLC TRANSLATION  ACCESS:       5004 HIT:          4 MISS:       5000 MSHR_MERGE:          0
cpu0->LLC PREFETCH REQUESTED:          0 ISSUED:          0 USEFUL:          0 USELESS:          0 LATE:          0
cpu0->LLC AVERAGE MISS LATENCY: 193.9 cycles

DRAM Statistics

Channel 0 RQ ROW_BUFFER_HIT:      22772
  ROW_BUFFER_MISS:    2499268
  AVG DBUS CONGESTED CYCLE: 7.113
Channel 0 WQ ROW_BUFFER_HIT:     340103
  ROW_BUFFER_MISS:     764126
  FULL:          0
Channel 0 REFRESHES ISSUED:      22841

[ROI Statistics]
[System Configuration]
num_cpus 1
cpu_freq 4000
fetch_width 6
decode_width 6
dispatch_width 6
execute_width 6
lq_width 2
sq_width 2
retire_width 6
scheduler_size 128
branch_mispredict_penalty 15
rob_size 352
lq_size 128
sq_size 72
ifetch_buffer_size 64
decode_buffer_size 32
dispatch_buffer_size 32
register_file_size 288
decode_latency 1
dispatch_latency 1
schedule_latency 1
execute_latency 1
page_size 4096
block_size 64
core_0_itlb_set 16
core_0_itlb_way 4
core_0_itlb_rq_size 16
core_0_itlb_wq_size 16
core_0_itlb_pq_size 0
core_0_itlb_mshr_size 8
core_0_itlb_hit_latency 1
core_0_itlb_fill_latency 1
core_0_itlb_max_tag_check 2
core_0_itlb_max_fill 2
core_0_dtlb_set 16
core_0_dtlb_way 4
core_0_dtlb_rq_size 16
core_0_dtlb_wq_size 16
core_0_dtlb_pq_size 0
core_0_dtlb_mshr_size 8
core_0_dtlb_hit_latency 1
core_0_dtlb_fill_latency 1
core_0_dtlb_max_tag_check 2
core_0_dtlb_max_fill 2
core_0_stlb_set 128
core_0_stlb_way 12
core_0_stlb_rq_size 32
core_0_stlb_wq_size 32
core_0_stlb_pq_size 0
core_0_stlb_mshr_size 16
core_0_stlb_hit_latency 4
core_0_stlb_fill_latency 4
core_0_stlb_max_tag_check 1
core_0_stlb_max_fill 1
core_0_l1i_set 64
core_0_l1i_way 8
core_0_l1i_rq_size 64
core_0_l1i_wq_size 64
core_0_l1i_pq_size 32
core_0_l1i_mshr_size 8
core_0_l1i_hit_latency 2
core_0_l1i_fill_latency 2
core_0_l1i_max_tag_check 2
core_0_l1i_max_fill 2
core_0_l1d_set 64
core_0_l1d_way 12
core_0_l1d_rq_size 64
core_0_l1d_wq_size 64
core_0_l1d_pq_size 8
core_0_l1d_mshr_size 16
core_0_l1d_hit_latency 2
core_0_l1d_fill_latency 3
core_0_l1d_max_tag_check 2
core_0_l1d_max_fill 2
core_0_l2c_set 1024
core_0_l2c_way 8
core_0_l2c_rq_size 32
core_0_l2c_wq_size 32
core_0_l2c_pq_size 16
core_0_l2c_mshr_size 32
core_0_l2c_hit_latency 5
core_0_l2c_fill_latency 5
core_0_l2c_max_tag_check 1
core_0_l2c_max_fill 1
llc_set 2048
llc_way 16
llc_rq_size 32
llc_wq_size 32
llc_pq_size 32
llc_mshr_size 64
llc_hit_latency 10
llc_fill_latency 10
llc_max_tag_check 1
llc_max_fill 1
dram_channels 1
dram_ranks 1
dram_bankgroups 8
dram_banks 4
dram_rows 65536
dram_columns 1024
dram_channel_width 8
dram_rq_size 64
dram_wq_size 64
dram_size 17179869184
core_0_itlb_prefetcher no
core_0_dtlb_prefetcher no
core_0_stlb_prefetcher no
core_0_l1i_prefetcher no
core_0_l1d_prefetcher no
core_0_l2c_prefetcher no
llc_prefetcher no
llc_replacement drrip

Core_0_instructions 100000002
Core_0_cycles 274096977
Core_0_IPC 0.364834
Core_0_branch_prediction_accuracy 85.7816
Core_0_branch_MPKI 18.1498
Core_0_average_ROB_occupancy_at_mispredict 58.6086

Core_0_ITLB_total_access 1157004
Core_0_ITLB_total_hit 1157004
Core_0_ITLB_total_miss 0
Core_0_ITLB_total_MPKI 0
Core_0_ITLB_total_miss_rate 0
Core_0_ITLB_demand_access 1157004
Core_0_ITLB_demand_hit 1157004
Core_0_ITLB_demand_miss 0
Core_0_ITLB_demand_MPKI 0
Core_0_ITLB_demand_miss_rate 0
Core_0_ITLB_load_access 1157004
Core_0_ITLB_load_hit 1157004
Core_0_ITLB_load_miss 0
Core_0_ITLB_load_MPKI 0
Core_0_ITLB_load_miss_rate 0
Core_0_ITLB_rfo_access 0
Core_0_ITLB_rfo_hit 0
Core_0_ITLB_rfo_miss 0
Core_0_ITLB_rfo_MPKI 0
Core_0_ITLB_rfo_miss_rate 0
Core_0_ITLB_prefetch_access 0
Core_0_ITLB_prefetch_hit 0
Core_0_ITLB_prefetch_miss 0
Core_0_ITLB_prefetch_MPKI 0
Core_0_ITLB_prefetch_miss_rate 0
Core_0_ITLB_writeback_access 0
Core_0_ITLB_writeback_hit 0
Core_0_ITLB_writeback_miss 0
Core_0_ITLB_writeback_MPKI 0
Core_0_ITLB_writeback_miss_rate 0
Core_0_ITLB_prefetch_requested 0
Core_0_ITLB_prefetch_issued 0
Core_0_ITLB_prefetch_useful 0
Core_0_ITLB_prefetch_useless 0
Core_0_ITLB_prefetch_late 0
Core_0_ITLB_prefetch_accuracy 0
Core_0_ITLB_prefetch_coverage 0

Core_0_DTLB_total_access 29268722
Core_0_DTLB_total_hit 28931161
Core_0_DTLB_total_miss 337561
Core_0_DTLB_total_MPKI 3.37561
Core_0_DTLB_total_miss_rate 0.0115332
Core_0_DTLB_demand_access 29268722
Core_0_DTLB_demand_hit 28931161
Core_0_DTLB_demand_miss 337561
Core_0_DTLB_demand_MPKI 3.37561
Core_0_DTLB_demand_miss_rate 0.0115332
Core_0_DTLB_load_access 29268722
Core_0_DTLB_load_hit 28931161
Core_0_DTLB_load_miss 337561
Core_0_DTLB_load_MPKI 3.37561
Core_0_DTLB_load_miss_rate 0.0115332
Core_0_DTLB_rfo_access 0
Core_0_DTLB_rfo_hit 0
Core_0_DTLB_rfo_miss 0
Core_0_DTLB_rfo_MPKI 0
Core_0_DTLB_rfo_miss_rate 0
Core_0_DTLB_prefetch_access 0
Core_0_DTLB_prefetch_hit 0
Core_0_DTLB_prefetch_miss 0
Core_0_DTLB_prefetch_MPKI 0
Core_0_DTLB_prefetch_miss_rate 0
Core_0_DTLB_writeback_access 0
Core_0_DTLB_writeback_hit 0
Core_0_DTLB_writeback_miss 0
Core_0_DTLB_writeback_MPKI 0
Core_0_DTLB_writeback_miss_rate 0
Core_0_DTLB_prefetch_requested 0
Core_0_DTLB_prefetch_issued 0
Core_0_DTLB_prefetch_useful 0
Core_0_DTLB_prefetch_useless 0
Core_0_DTLB_prefetch_late 0
Core_0_DTLB_prefetch_accuracy 0
Core_0_DTLB_prefetch_coverage 0

Core_0_STLB_total_access 39328
Core_0_STLB_total_hit 0
Core_0_STLB_total_miss 39328
Core_0_STLB_total_MPKI 0.39328
Core_0_STLB_total_miss_rate 1
Core_0_STLB_demand_access 39328
Core_0_STLB_demand_hit 0
Core_0_STLB_demand_miss 39328
Core_0_STLB_demand_MPKI 0.39328
Core_0_STLB_demand_miss_rate 1
Core_0_STLB_load_access 39328
Core_0_STLB_load_hit 0
Core_0_STLB_load_miss 39328
Core_0_STLB_load_MPKI 0.39328
Core_0_STLB_load_miss_rate 1
Core_0_STLB_rfo_access 0
Core_0_STLB_rfo_hit 0
Core_0_STLB_rfo_miss 0
Core_0_STLB_rfo_MPKI 0
Core_0_STLB_rfo_miss_rate 0
Core_0_STLB_prefetch_access 0
Core_0_STLB_prefetch_hit 0
Core_0_STLB_prefetch_miss 0
Core_0_STLB_prefetch_MPKI 0
Core_0_STLB_prefetch_miss_rate 0
Core_0_STLB_writeback_access 0
Core_0_STLB_writeback_hit 0
Core_0_STLB_writeback_miss 0
Core_0_STLB_writeback_MPKI 0
Core_0_STLB_writeback_miss_rate 0
Core_0_STLB_prefetch_requested 0
Core_0_STLB_prefetch_issued 0
Core_0_STLB_prefetch_useful 0
Core_0_STLB_prefetch_useless 0
Core_0_STLB_prefetch_late 0
Core_0_STLB_prefetch_accuracy 0
Core_0_STLB_prefetch_coverage 0

Core_0_L1I_total_access 1157035
Core_0_L1I_total_hit 1157035
Core_0_L1I_total_miss 0
Core_0_L1I_total_MPKI 0
Core_0_L1I_total_miss_rate 0
Core_0_L1I_demand_access 1157035
Core_0_L1I_demand_hit 1157035
Core_0_L1I_demand_miss 0
Core_0_L1I_demand_MPKI 0
Core_0_L1I_demand_miss_rate 0
Core_0_L1I_load_access 1157035
Core_0_L1I_load_hit 1157035
Core_0_L1I_load_miss 0
Core_0_L1I_load_MPKI 0
Core_0_L1I_load_miss_rate 0
Core_0_L1I_rfo_access 0
Core_0_L1I_rfo_hit 0
Core_0_L1I_rfo_miss 0
Core_0_L1I_rfo_MPKI 0
Core_0_L1I_rfo_miss_rate 0
Core_0_L1I_prefetch_access 0
Core_0_L1I_prefetch_hit 0
Core_0_L1I_prefetch_miss 0
Core_0_L1I_prefetch_MPKI 0
Core_0_L1I_prefetch_miss_rate 0
Core_0_L1I_writeback_access 0
Core_0_L1I_writeback_hit 0
Core_0_L1I_writeback_miss 0
Core_0_L1I_writeback_MPKI 0
Core_0_L1I_writeback_miss_rate 0
Core_0_L1I_prefetch_requested 0
Core_0_L1I_prefetch_issued 0
Core_0_L1I_prefetch_useful 0
Core_0_L1I_prefetch_useless 0
Core_0_L1I_prefetch_late 0
Core_0_L1I_prefetch_accuracy 0
Core_0_L1I_prefetch_coverage 0

Core_0_L1D_total_access 30285540
Core_0_L1D_total_hit 9048953
Core_0_L1D_total_miss 21236587
Core_0_L1D_total_MPKI 212.366
Core_0_L1D_total_miss_rate 0.701212
Core_0_L1D_demand_access 12665942
Core_0_L1D_demand_hit 6357244
Core_0_L1D_demand_miss 6308698
Core_0_L1D_demand_MPKI 63.087
Core_0_L1D_demand_miss_rate 0.498084
Core_0_L1D_load_access 12665942
Core_0_L1D_load_hit 6357244
Core_0_L1D_load_miss 6308698
Core_0_L1D_load_MPKI 63.087
Core_0_L1D_load_miss_rate 0.498084
Core_0_L1D_rfo_access 0
Core_0_L1D_rfo_hit 0
Core_0_L1D_rfo_miss 0
Core_0_L1D_rfo_MPKI 0
Core_0_L1D_rfo_miss_rate 0
Core_0_L1D_prefetch_access 0
Core_0_L1D_prefetch_hit 0
Core_0_L1D_prefetch_miss 0
Core_0_L1D_prefetch_MPKI 0
Core_0_L1D_prefetch_miss_rate 0
Core_0_L1D_writeback_access 17619598
Core_0_L1D_writeback_hit 2691709
Core_0_L1D_writeback_miss 14927889
Core_0_L1D_writeback_MPKI 149.279
Core_0_L1D_writeback_miss_rate 0.847232
Core_0_L1D_prefetch_requested 0
Core_0_L1D_prefetch_issued 0
Core_0_L1D_prefetch_useful 0
Core_0_L1D_prefetch_useless 0
Core_0_L1D_prefetch_late 0
Core_0_L1D_prefetch_accuracy 0
Core_0_L1D_prefetch_coverage 0

Core_0_L2C_total_access 3618496
Core_0_L2C_total_hit 1101456
Core_0_L2C_total_miss 2517040
Core_0_L2C_total_MPKI 25.1704
Core_0_L2C_total_miss_rate 0.695604
Core_0_L2C_demand_access 2517040
Core_0_L2C_demand_hit 0
Core_0_L2C_demand_miss 2517040
Core_0_L2C_demand_MPKI 25.1704
Core_0_L2C_demand_miss_rate 1
Core_0_L2C_load_access 1415815
Core_0_L2C_load_hit 0
Core_0_L2C_load_miss 1415815
Core_0_L2C_load_MPKI 14.1581
Core_0_L2C_load_miss_rate 1
Core_0_L2C_rfo_access 1101225
Core_0_L2C_rfo_hit 0
Core_0_L2C_rfo_miss 1101225
Core_0_L2C_rfo_MPKI 11.0122
Core_0_L2C_rfo_miss_rate 1
Core_0_L2C_prefetch_access 0
Core_0_L2C_prefetch_hit 0
Core_0_L2C_prefetch_miss 0
Core_0_L2C_prefetch_MPKI 0
Core_0_L2C_prefetch_miss_rate 0
Core_0_L2C_writeback_access 1101456
Core_0_L2C_writeback_hit 1101456
Core_0_L2C_writeback_miss 0
Core_0_L2C_writeback_MPKI 0
Core_0_L2C_writeback_miss_rate 0
Core_0_L2C_prefetch_requested 0
Core_0_L2C_prefetch_issued 0
Core_0_L2C_prefetch_useful 0
Core_0_L2C_prefetch_useless 0
Core_0_L2C_prefetch_late 0
Core_0_L2C_prefetch_accuracy 0
Core_0_L2C_prefetch_coverage 0

Core_0_LLC_total_access 3620972
Core_0_LLC_total_hit 535919
Core_0_LLC_total_miss 3085053
Core_0_LLC_total_MPKI 30.8505
Core_0_LLC_total_miss_rate 0.851996
Core_0_LLC_demand_access 2517040
Core_0_LLC_demand_hit 0
Core_0_LLC_demand_miss 2517040
Core_0_LLC_demand_MPKI 25.1704
Core_0_LLC_demand_miss_rate 1
Core_0_LLC_load_access 1415815
Core_0_LLC_load_hit 0
Core_0_LLC_load_miss 1415815
Core_0_LLC_load_MPKI 14.1581
Core_0_LLC_load_miss_rate 1
Core_0_LLC_rfo_access 1101225
Core_0_LLC_rfo_hit 0
Core_0_LLC_rfo_miss 1101225
Core_0_LLC_rfo_MPKI 11.0122
Core_0_LLC_rfo_miss_rate 1
Core_0_LLC_prefetch_access 0
Core_0_LLC_prefetch_hit 0
Core_0_LLC_prefetch_miss 0
Core_0_LLC_prefetch_MPKI 0
Core_0_LLC_prefetch_miss_rate 0
Core_0_LLC_writeback_access 1103932
Core_0_LLC_writeback_hit 535919
Core_0_LLC_writeback_miss 568013
Core_0_LLC_writeback_MPKI 5.68013
Core_0_LLC_writeback_miss_rate 0.514536
Core_0_LLC_prefetch_requested 0
Core_0_LLC_prefetch_issued 0
Core_0_LLC_prefetch_useful 0
Core_0_LLC_prefetch_useless 0
Core_0_LLC_prefetch_late 0
Core_0_LLC_prefetch_accuracy 0
Core_0_LLC_prefetch_coverage 0

[DRAM Statistics]
Channel_0_RQ_row_buffer_hit 22772
Channel_0_RQ_row_buffer_miss 2499268
Channel_0_WQ_row_buffer_hit 340103
Channel_0_WQ_row_buffer_miss 764126
Channel_0_WQ_full 0
Channel_0_dbus_congested 10308109
DRAM_total_RQ_row_buffer_hit 22772
DRAM_total_RQ_row_buffer_miss 2499268
DRAM_total_WQ_row_buffer_hit 340103
DRAM_total_WQ_row_buffer_miss 764126
DRAM_total_WQ_full 0
DRAM_total_dbus_congested 10308109
DRAM_avg_congested_cycle 7.11339

====== DRAM_RQ_TRAFFIC ========
DRAM_RQ_READ_TRAFFIC_BREAKDOWN:
data_demand_read.count = 2517040
data_demand_read.share = 99.80%

inst_demand_read.count = 0
inst_demand_read.share = 0.00%

cache_inst_prefetch.count = 0
cache_inst_prefetch.share = 0.00%

cache_data_prefetch.count = 0
cache_data_prefetch.share = 0.00%

stlb_data_demand.count = 5000
stlb_data_demand.share = 0.20%

stlb_inst_demand.count = 0
stlb_inst_demand.share = 0.00%

stlb_l1i_pref.count = 0
stlb_l1i_pref.share = 0.00%

stlb_l1d_pref.count = 0
stlb_l1d_pref.share = 0.00%

DRAM_RQ_READ_TRAFFIC_SUMMARY:
cache_demand.count = 2517040
cache_demand.share = 99.80%

cache_prefetch.count = 0
cache_prefetch.share = 0.00%

stlb_demand.count = 5000
stlb_demand.share = 0.20%

stlb_prefetch.count = 0
stlb_prefetch.share = 0.00%

DRAM_RQ_READ_TRAFFIC_DEBUG:
total_classified_read.count = 2522040
unclassified_read.count = 0
total_read_with_other.count = 2522040

classified_plus_unclassified_check.count = 2522040
dram_rq_read_total_observed.count = 2522040
dram_rq_read_total_observed.per_1K_instructions = 25.2204

STLB_MISS_PTW_DRAM_TOUCH_BREAKDOWN:
stlb_miss_total.count = 39328

stlb_miss_touch_dram.count = 4923
stlb_miss_touch_dram.share = 12.52%

stlb_miss_no_dram_touch.count = 34405
stlb_miss_no_dram_touch.share = 87.48%

STLB_MISS_PTW_DRAM_TOUCH_DEBUG:
stlb_miss_touch_plus_no_touch.count = 39328
stlb_miss_total_check.count = 39328

======STLB miss causes ========
Core_0_STLB_miss_cause_breakdown
Core_0_STLB_cause_Demand_Data_miss 39328
Core_0_STLB_cause_Demand_Data_miss_rate 1
Core_0_STLB_cause_Demand_Instruction_miss 0
Core_0_STLB_cause_Demand_Instruction_miss_rate 0
Core_0_STLB_cause_L1D_Prefetch_miss 0
Core_0_STLB_cause_L1D_Prefetch_miss_rate 0
Core_0_STLB_cause_L1I_Prefetch_miss 0
Core_0_STLB_cause_L1I_Prefetch_miss_rate 0
Core_0_STLB_cause_Other_miss 0
Core_0_STLB_cause_Other_miss_rate 0
Core_0_STLB_Demand_miss 39328
Core_0_STLB_Demand_miss_rate 1
Core_0_STLB_L1D_Prefetch_miss 0
Core_0_STLB_L1D_Prefetch_miss_rate 0
Core_0_STLB_Other_miss 0
Core_0_STLB_Other_miss_rate 0
