[VMEM] WARNING: physical memory size is smaller than virtual memory size.

*** ChampSim Multicore Out-of-Order Simulator ***
Warmup Instructions: 50000000
Simulation Instructions: 100000000
Number of CPUs: 1
Page size: 4096
Core 0: /data0/tzh/champsim_traces/Ligra/ligra_BellmanFord.com-lj.ungraph.gcc_6.3.0_O3.drop_33750M.length_250M.champsimtrace.xz
Off-chip DRAM Size: 16 GiB Channels: 1 Width: 64-bit Data Rate: 3205 MT/s
Warmup halting CPU 0 at instruction 50000005 cycle 12915481 for remainder of phase
Warmup finished CPU 0 instructions: 50000005 cycles: 12915481 cumulative IPC: 3.871 (Simulation time: 00 hr 02 min 35 sec)
Warmup complete CPU 0 instructions: 50000005 cycles: 12915481 cumulative IPC: 3.871 (Simulation time: 00 hr 02 min 35 sec)
Simulation finished CPU 0 instructions: 100000000 cycles: 357180253 cumulative IPC: 0.28 (Simulation time: 00 hr 27 min 38 sec)
Simulation complete CPU 0 instructions: 100000000 cycles: 357180253 cumulative IPC: 0.28 (Simulation time: 00 hr 27 min 38 sec)

ChampSim completed all CPUs

=== Simulation ===
CPU 0 runs /data0/tzh/champsim_traces/Ligra/ligra_BellmanFord.com-lj.ungraph.gcc_6.3.0_O3.drop_33750M.length_250M.champsimtrace.xz

Region of Interest Statistics

CPU 0 cumulative IPC: 0.28 instructions: 100000000 cycles: 357180253
CPU 0 Branch Prediction Accuracy: 88.13% MPKI: 18.4 Average ROB Occupancy at Mispredict: 28.5
Branch type MPKI
BRANCH_DIRECT_JUMP: 1.331
BRANCH_INDIRECT: 0
BRANCH_CONDITIONAL: 17.07
BRANCH_DIRECT_CALL: 0
BRANCH_INDIRECT_CALL: 0
BRANCH_RETURN: 0

cpu0->cpu0_STLB TOTAL        ACCESS:    1611221 HIT:     995124 MISS:     616097 MSHR_MERGE:          0
cpu0->cpu0_STLB LOAD         ACCESS:    1611221 HIT:     995124 MISS:     616097 MSHR_MERGE:          0
cpu0->cpu0_STLB RFO          ACCESS:          0 HIT:          0 MISS:          0 MSHR_MERGE:          0
cpu0->cpu0_STLB PREFETCH     ACCESS:          0 HIT:          0 MISS:          0 MSHR_MERGE:          0
cpu0->cpu0_STLB WRITE        ACCESS:          0 HIT:          0 MISS:          0 MSHR_MERGE:          0
cpu0->cpu0_STLB TRANSLATION  ACCESS:          0 HIT:          0 MISS:          0 MSHR_MERGE:          0
cpu0->cpu0_STLB PREFETCH REQUESTED:          0 ISSUED:          0 USEFUL:          0 USELESS:          0 LATE:          0
cpu0->cpu0_STLB AVERAGE MISS LATENCY: 31.96 cycles
cpu0->cpu0_L2C TOTAL        ACCESS:    4167887 HIT:     995700 MISS:    3172187 MSHR_MERGE:          0
cpu0->cpu0_L2C LOAD         ACCESS:    3157630 HIT:     183599 MISS:    2974031 MSHR_MERGE:          0
cpu0->cpu0_L2C RFO          ACCESS:     120031 HIT:       7103 MISS:     112928 MSHR_MERGE:          0
cpu0->cpu0_L2C PREFETCH     ACCESS:          0 HIT:          0 MISS:          0 MSHR_MERGE:          0
cpu0->cpu0_L2C WRITE        ACCESS:     419992 HIT:     419976 MISS:         16 MSHR_MERGE:          0
cpu0->cpu0_L2C TRANSLATION  ACCESS:     470234 HIT:     385022 MISS:      85212 MSHR_MERGE:          0
cpu0->cpu0_L2C PREFETCH REQUESTED:          0 ISSUED:          0 USEFUL:          0 USELESS:          0 LATE:          0
cpu0->cpu0_L2C AVERAGE MISS LATENCY: 189.4 cycles
cpu0->cpu0_L1I TOTAL        ACCESS:    1222530 HIT:    1222530 MISS:          0 MSHR_MERGE:          0
cpu0->cpu0_L1I LOAD         ACCESS:    1222530 HIT:    1222530 MISS:          0 MSHR_MERGE:          0
cpu0->cpu0_L1I RFO          ACCESS:          0 HIT:          0 MISS:          0 MSHR_MERGE:          0
cpu0->cpu0_L1I PREFETCH     ACCESS:          0 HIT:          0 MISS:          0 MSHR_MERGE:          0
cpu0->cpu0_L1I WRITE        ACCESS:          0 HIT:          0 MISS:          0 MSHR_MERGE:          0
cpu0->cpu0_L1I TRANSLATION  ACCESS:          0 HIT:          0 MISS:          0 MSHR_MERGE:          0
cpu0->cpu0_L1I PREFETCH REQUESTED:          0 ISSUED:          0 USEFUL:          0 USELESS:          0 LATE:          0
cpu0->cpu0_L1I AVERAGE MISS LATENCY: - cycles
cpu0->cpu0_L1D TOTAL        ACCESS:   27303112 HIT:   19159628 MISS:    8143484 MSHR_MERGE:    4395586
cpu0->cpu0_L1D LOAD         ACCESS:   25316218 HIT:   17793954 MISS:    7522264 MSHR_MERGE:    4364631
cpu0->cpu0_L1D RFO          ACCESS:          0 HIT:          0 MISS:          0 MSHR_MERGE:          0
cpu0->cpu0_L1D PREFETCH     ACCESS:          0 HIT:          0 MISS:          0 MSHR_MERGE:          0
cpu0->cpu0_L1D WRITE        ACCESS:     756471 HIT:     606829 MISS:     149642 MSHR_MERGE:      29611
cpu0->cpu0_L1D TRANSLATION  ACCESS:    1230423 HIT:     758845 MISS:     471578 MSHR_MERGE:       1344
cpu0->cpu0_L1D PREFETCH REQUESTED:          0 ISSUED:          0 USEFUL:          0 USELESS:          0 LATE:          0
cpu0->cpu0_L1D AVERAGE MISS LATENCY: 169.2 cycles
cpu0->cpu0_ITLB TOTAL        ACCESS:    1222521 HIT:    1222521 MISS:          0 MSHR_MERGE:          0
cpu0->cpu0_ITLB LOAD         ACCESS:    1222521 HIT:    1222521 MISS:          0 MSHR_MERGE:          0
cpu0->cpu0_ITLB RFO          ACCESS:          0 HIT:          0 MISS:          0 MSHR_MERGE:          0
cpu0->cpu0_ITLB PREFETCH     ACCESS:          0 HIT:          0 MISS:          0 MSHR_MERGE:          0
cpu0->cpu0_ITLB WRITE        ACCESS:          0 HIT:          0 MISS:          0 MSHR_MERGE:          0
cpu0->cpu0_ITLB TRANSLATION  ACCESS:          0 HIT:          0 MISS:          0 MSHR_MERGE:          0
cpu0->cpu0_ITLB PREFETCH REQUESTED:          0 ISSUED:          0 USEFUL:          0 USELESS:          0 LATE:          0
cpu0->cpu0_ITLB AVERAGE MISS LATENCY: - cycles
cpu0->cpu0_DTLB TOTAL        ACCESS:   26067273 HIT:   24105808 MISS:    1961465 MSHR_MERGE:     350244
cpu0->cpu0_DTLB LOAD         ACCESS:   26067273 HIT:   24105808 MISS:    1961465 MSHR_MERGE:     350244
cpu0->cpu0_DTLB RFO          ACCESS:          0 HIT:          0 MISS:          0 MSHR_MERGE:          0
cpu0->cpu0_DTLB PREFETCH     ACCESS:          0 HIT:          0 MISS:          0 MSHR_MERGE:          0
cpu0->cpu0_DTLB WRITE        ACCESS:          0 HIT:          0 MISS:          0 MSHR_MERGE:          0
cpu0->cpu0_DTLB TRANSLATION  ACCESS:          0 HIT:          0 MISS:          0 MSHR_MERGE:          0
cpu0->cpu0_DTLB PREFETCH REQUESTED:          0 ISSUED:          0 USEFUL:          0 USELESS:          0 LATE:          0
cpu0->cpu0_DTLB AVERAGE MISS LATENCY: 17.6 cycles
cpu0->LLC TOTAL        ACCESS:    3574467 HIT:     538621 MISS:    3035846 MSHR_MERGE:          0
cpu0->LLC LOAD         ACCESS:    2974031 HIT:     334412 MISS:    2639619 MSHR_MERGE:          0
cpu0->LLC RFO          ACCESS:     112928 HIT:      15759 MISS:      97169 MSHR_MERGE:          0
cpu0->LLC PREFETCH     ACCESS:          0 HIT:          0 MISS:          0 MSHR_MERGE:          0
cpu0->LLC WRITE        ACCESS:     402296 HIT:     108328 MISS:     293968 MSHR_MERGE:          0
cpu0->LLC TRANSLATION  ACCESS:      85212 HIT:      80122 MISS:       5090 MSHR_MERGE:          0
cpu0->LLC PREFETCH REQUESTED:          0 ISSUED:          0 USEFUL:          0 USELESS:          0 LATE:          0
cpu0->LLC AVERAGE MISS LATENCY: 182.2 cycles

DRAM Statistics

Channel 0 RQ ROW_BUFFER_HIT:      22053
  ROW_BUFFER_MISS:    2719803
  AVG DBUS CONGESTED CYCLE: 19.26
Channel 0 WQ ROW_BUFFER_HIT:     106893
  ROW_BUFFER_MISS:     243854
  FULL:          0
Channel 0 REFRESHES ISSUED:      29765

[ROI Statistics]
[System Configuration]
num_cpus 1
cpu_freq 4000
fetch_width 6
decode_width 6
dispatch_width 6
execute_width 6
lq_width 2
sq_width 2
retire_width 6
scheduler_size 128
branch_mispredict_penalty 15
rob_size 352
lq_size 128
sq_size 72
ifetch_buffer_size 64
decode_buffer_size 32
dispatch_buffer_size 32
register_file_size 288
decode_latency 1
dispatch_latency 1
schedule_latency 1
execute_latency 1
page_size 4096
block_size 64
core_0_itlb_set 16
core_0_itlb_way 4
core_0_itlb_rq_size 16
core_0_itlb_wq_size 16
core_0_itlb_pq_size 0
core_0_itlb_mshr_size 8
core_0_itlb_hit_latency 1
core_0_itlb_fill_latency 1
core_0_itlb_max_tag_check 2
core_0_itlb_max_fill 2
core_0_dtlb_set 16
core_0_dtlb_way 4
core_0_dtlb_rq_size 16
core_0_dtlb_wq_size 16
core_0_dtlb_pq_size 0
core_0_dtlb_mshr_size 8
core_0_dtlb_hit_latency 1
core_0_dtlb_fill_latency 1
core_0_dtlb_max_tag_check 2
core_0_dtlb_max_fill 2
core_0_stlb_set 128
core_0_stlb_way 12
core_0_stlb_rq_size 32
core_0_stlb_wq_size 32
core_0_stlb_pq_size 0
core_0_stlb_mshr_size 16
core_0_stlb_hit_latency 4
core_0_stlb_fill_latency 4
core_0_stlb_max_tag_check 1
core_0_stlb_max_fill 1
core_0_l1i_set 64
core_0_l1i_way 8
core_0_l1i_rq_size 64
core_0_l1i_wq_size 64
core_0_l1i_pq_size 32
core_0_l1i_mshr_size 8
core_0_l1i_hit_latency 2
core_0_l1i_fill_latency 2
core_0_l1i_max_tag_check 2
core_0_l1i_max_fill 2
core_0_l1d_set 64
core_0_l1d_way 12
core_0_l1d_rq_size 64
core_0_l1d_wq_size 64
core_0_l1d_pq_size 8
core_0_l1d_mshr_size 16
core_0_l1d_hit_latency 2
core_0_l1d_fill_latency 3
core_0_l1d_max_tag_check 2
core_0_l1d_max_fill 2
core_0_l2c_set 1024
core_0_l2c_way 8
core_0_l2c_rq_size 32
core_0_l2c_wq_size 32
core_0_l2c_pq_size 16
core_0_l2c_mshr_size 32
core_0_l2c_hit_latency 5
core_0_l2c_fill_latency 5
core_0_l2c_max_tag_check 1
core_0_l2c_max_fill 1
llc_set 2048
llc_way 16
llc_rq_size 32
llc_wq_size 32
llc_pq_size 32
llc_mshr_size 64
llc_hit_latency 10
llc_fill_latency 10
llc_max_tag_check 1
llc_max_fill 1
dram_channels 1
dram_ranks 1
dram_bankgroups 8
dram_banks 4
dram_rows 65536
dram_columns 1024
dram_channel_width 8
dram_rq_size 64
dram_wq_size 64
dram_size 17179869184
core_0_itlb_prefetcher no
core_0_dtlb_prefetcher no
core_0_stlb_prefetcher no
core_0_l1i_prefetcher no
core_0_l1d_prefetcher no
core_0_l2c_prefetcher no
llc_prefetcher no
llc_replacement drrip

Core_0_instructions 100000000
Core_0_cycles 357180253
Core_0_IPC 0.279971
Core_0_branch_prediction_accuracy 88.1309
Core_0_branch_MPKI 18.4026
Core_0_average_ROB_occupancy_at_mispredict 28.4963

Core_0_ITLB_total_access 1222521
Core_0_ITLB_total_hit 1222521
Core_0_ITLB_total_miss 0
Core_0_ITLB_total_MPKI 0
Core_0_ITLB_total_miss_rate 0
Core_0_ITLB_demand_access 1222521
Core_0_ITLB_demand_hit 1222521
Core_0_ITLB_demand_miss 0
Core_0_ITLB_demand_MPKI 0
Core_0_ITLB_demand_miss_rate 0
Core_0_ITLB_load_access 1222521
Core_0_ITLB_load_hit 1222521
Core_0_ITLB_load_miss 0
Core_0_ITLB_load_MPKI 0
Core_0_ITLB_load_miss_rate 0
Core_0_ITLB_rfo_access 0
Core_0_ITLB_rfo_hit 0
Core_0_ITLB_rfo_miss 0
Core_0_ITLB_rfo_MPKI 0
Core_0_ITLB_rfo_miss_rate 0
Core_0_ITLB_prefetch_access 0
Core_0_ITLB_prefetch_hit 0
Core_0_ITLB_prefetch_miss 0
Core_0_ITLB_prefetch_MPKI 0
Core_0_ITLB_prefetch_miss_rate 0
Core_0_ITLB_writeback_access 0
Core_0_ITLB_writeback_hit 0
Core_0_ITLB_writeback_miss 0
Core_0_ITLB_writeback_MPKI 0
Core_0_ITLB_writeback_miss_rate 0
Core_0_ITLB_prefetch_requested 0
Core_0_ITLB_prefetch_issued 0
Core_0_ITLB_prefetch_useful 0
Core_0_ITLB_prefetch_useless 0
Core_0_ITLB_prefetch_late 0
Core_0_ITLB_prefetch_accuracy 0
Core_0_ITLB_prefetch_coverage 0

Core_0_DTLB_total_access 26067273
Core_0_DTLB_total_hit 24105808
Core_0_DTLB_total_miss 1961465
Core_0_DTLB_total_MPKI 19.6147
Core_0_DTLB_total_miss_rate 0.0752463
Core_0_DTLB_demand_access 26067273
Core_0_DTLB_demand_hit 24105808
Core_0_DTLB_demand_miss 1961465
Core_0_DTLB_demand_MPKI 19.6147
Core_0_DTLB_demand_miss_rate 0.0752463
Core_0_DTLB_load_access 26067273
Core_0_DTLB_load_hit 24105808
Core_0_DTLB_load_miss 1961465
Core_0_DTLB_load_MPKI 19.6147
Core_0_DTLB_load_miss_rate 0.0752463
Core_0_DTLB_rfo_access 0
Core_0_DTLB_rfo_hit 0
Core_0_DTLB_rfo_miss 0
Core_0_DTLB_rfo_MPKI 0
Core_0_DTLB_rfo_miss_rate 0
Core_0_DTLB_prefetch_access 0
Core_0_DTLB_prefetch_hit 0
Core_0_DTLB_prefetch_miss 0
Core_0_DTLB_prefetch_MPKI 0
Core_0_DTLB_prefetch_miss_rate 0
Core_0_DTLB_writeback_access 0
Core_0_DTLB_writeback_hit 0
Core_0_DTLB_writeback_miss 0
Core_0_DTLB_writeback_MPKI 0
Core_0_DTLB_writeback_miss_rate 0
Core_0_DTLB_prefetch_requested 0
Core_0_DTLB_prefetch_issued 0
Core_0_DTLB_prefetch_useful 0
Core_0_DTLB_prefetch_useless 0
Core_0_DTLB_prefetch_late 0
Core_0_DTLB_prefetch_accuracy 0
Core_0_DTLB_prefetch_coverage 0

Core_0_STLB_total_access 1611221
Core_0_STLB_total_hit 995124
Core_0_STLB_total_miss 616097
Core_0_STLB_total_MPKI 6.16097
Core_0_STLB_total_miss_rate 0.382379
Core_0_STLB_demand_access 1611221
Core_0_STLB_demand_hit 995124
Core_0_STLB_demand_miss 616097
Core_0_STLB_demand_MPKI 6.16097
Core_0_STLB_demand_miss_rate 0.382379
Core_0_STLB_load_access 1611221
Core_0_STLB_load_hit 995124
Core_0_STLB_load_miss 616097
Core_0_STLB_load_MPKI 6.16097
Core_0_STLB_load_miss_rate 0.382379
Core_0_STLB_rfo_access 0
Core_0_STLB_rfo_hit 0
Core_0_STLB_rfo_miss 0
Core_0_STLB_rfo_MPKI 0
Core_0_STLB_rfo_miss_rate 0
Core_0_STLB_prefetch_access 0
Core_0_STLB_prefetch_hit 0
Core_0_STLB_prefetch_miss 0
Core_0_STLB_prefetch_MPKI 0
Core_0_STLB_prefetch_miss_rate 0
Core_0_STLB_writeback_access 0
Core_0_STLB_writeback_hit 0
Core_0_STLB_writeback_miss 0
Core_0_STLB_writeback_MPKI 0
Core_0_STLB_writeback_miss_rate 0
Core_0_STLB_prefetch_requested 0
Core_0_STLB_prefetch_issued 0
Core_0_STLB_prefetch_useful 0
Core_0_STLB_prefetch_useless 0
Core_0_STLB_prefetch_late 0
Core_0_STLB_prefetch_accuracy 0
Core_0_STLB_prefetch_coverage 0

Core_0_L1I_total_access 1222530
Core_0_L1I_total_hit 1222530
Core_0_L1I_total_miss 0
Core_0_L1I_total_MPKI 0
Core_0_L1I_total_miss_rate 0
Core_0_L1I_demand_access 1222530
Core_0_L1I_demand_hit 1222530
Core_0_L1I_demand_miss 0
Core_0_L1I_demand_MPKI 0
Core_0_L1I_demand_miss_rate 0
Core_0_L1I_load_access 1222530
Core_0_L1I_load_hit 1222530
Core_0_L1I_load_miss 0
Core_0_L1I_load_MPKI 0
Core_0_L1I_load_miss_rate 0
Core_0_L1I_rfo_access 0
Core_0_L1I_rfo_hit 0
Core_0_L1I_rfo_miss 0
Core_0_L1I_rfo_MPKI 0
Core_0_L1I_rfo_miss_rate 0
Core_0_L1I_prefetch_access 0
Core_0_L1I_prefetch_hit 0
Core_0_L1I_prefetch_miss 0
Core_0_L1I_prefetch_MPKI 0
Core_0_L1I_prefetch_miss_rate 0
Core_0_L1I_writeback_access 0
Core_0_L1I_writeback_hit 0
Core_0_L1I_writeback_miss 0
Core_0_L1I_writeback_MPKI 0
Core_0_L1I_writeback_miss_rate 0
Core_0_L1I_prefetch_requested 0
Core_0_L1I_prefetch_issued 0
Core_0_L1I_prefetch_useful 0
Core_0_L1I_prefetch_useless 0
Core_0_L1I_prefetch_late 0
Core_0_L1I_prefetch_accuracy 0
Core_0_L1I_prefetch_coverage 0

Core_0_L1D_total_access 26072689
Core_0_L1D_total_hit 18400783
Core_0_L1D_total_miss 7671906
Core_0_L1D_total_MPKI 76.7191
Core_0_L1D_total_miss_rate 0.294251
Core_0_L1D_demand_access 25316218
Core_0_L1D_demand_hit 17793954
Core_0_L1D_demand_miss 7522264
Core_0_L1D_demand_MPKI 75.2226
Core_0_L1D_demand_miss_rate 0.297132
Core_0_L1D_load_access 25316218
Core_0_L1D_load_hit 17793954
Core_0_L1D_load_miss 7522264
Core_0_L1D_load_MPKI 75.2226
Core_0_L1D_load_miss_rate 0.297132
Core_0_L1D_rfo_access 0
Core_0_L1D_rfo_hit 0
Core_0_L1D_rfo_miss 0
Core_0_L1D_rfo_MPKI 0
Core_0_L1D_rfo_miss_rate 0
Core_0_L1D_prefetch_access 0
Core_0_L1D_prefetch_hit 0
Core_0_L1D_prefetch_miss 0
Core_0_L1D_prefetch_MPKI 0
Core_0_L1D_prefetch_miss_rate 0
Core_0_L1D_writeback_access 756471
Core_0_L1D_writeback_hit 606829
Core_0_L1D_writeback_miss 149642
Core_0_L1D_writeback_MPKI 1.49642
Core_0_L1D_writeback_miss_rate 0.197816
Core_0_L1D_prefetch_requested 0
Core_0_L1D_prefetch_issued 0
Core_0_L1D_prefetch_useful 0
Core_0_L1D_prefetch_useless 0
Core_0_L1D_prefetch_late 0
Core_0_L1D_prefetch_accuracy 0
Core_0_L1D_prefetch_coverage 0

Core_0_L2C_total_access 3697653
Core_0_L2C_total_hit 610678
Core_0_L2C_total_miss 3086975
Core_0_L2C_total_MPKI 30.8697
Core_0_L2C_total_miss_rate 0.834847
Core_0_L2C_demand_access 3277661
Core_0_L2C_demand_hit 190702
Core_0_L2C_demand_miss 3086959
Core_0_L2C_demand_MPKI 30.8696
Core_0_L2C_demand_miss_rate 0.941818
Core_0_L2C_load_access 3157630
Core_0_L2C_load_hit 183599
Core_0_L2C_load_miss 2974031
Core_0_L2C_load_MPKI 29.7403
Core_0_L2C_load_miss_rate 0.941855
Core_0_L2C_rfo_access 120031
Core_0_L2C_rfo_hit 7103
Core_0_L2C_rfo_miss 112928
Core_0_L2C_rfo_MPKI 1.12928
Core_0_L2C_rfo_miss_rate 0.940824
Core_0_L2C_prefetch_access 0
Core_0_L2C_prefetch_hit 0
Core_0_L2C_prefetch_miss 0
Core_0_L2C_prefetch_MPKI 0
Core_0_L2C_prefetch_miss_rate 0
Core_0_L2C_writeback_access 419992
Core_0_L2C_writeback_hit 419976
Core_0_L2C_writeback_miss 16
Core_0_L2C_writeback_MPKI 0.00016
Core_0_L2C_writeback_miss_rate 3.8096e-05
Core_0_L2C_prefetch_requested 0
Core_0_L2C_prefetch_issued 0
Core_0_L2C_prefetch_useful 0
Core_0_L2C_prefetch_useless 0
Core_0_L2C_prefetch_late 0
Core_0_L2C_prefetch_accuracy 0
Core_0_L2C_prefetch_coverage 0

Core_0_LLC_total_access 3489255
Core_0_LLC_total_hit 458499
Core_0_LLC_total_miss 3030756
Core_0_LLC_total_MPKI 30.3076
Core_0_LLC_total_miss_rate 0.868597
Core_0_LLC_demand_access 3086959
Core_0_LLC_demand_hit 350171
Core_0_LLC_demand_miss 2736788
Core_0_LLC_demand_MPKI 27.3679
Core_0_LLC_demand_miss_rate 0.886564
Core_0_LLC_load_access 2974031
Core_0_LLC_load_hit 334412
Core_0_LLC_load_miss 2639619
Core_0_LLC_load_MPKI 26.3962
Core_0_LLC_load_miss_rate 0.887556
Core_0_LLC_rfo_access 112928
Core_0_LLC_rfo_hit 15759
Core_0_LLC_rfo_miss 97169
Core_0_LLC_rfo_MPKI 0.97169
Core_0_LLC_rfo_miss_rate 0.860451
Core_0_LLC_prefetch_access 0
Core_0_LLC_prefetch_hit 0
Core_0_LLC_prefetch_miss 0
Core_0_LLC_prefetch_MPKI 0
Core_0_LLC_prefetch_miss_rate 0
Core_0_LLC_writeback_access 402296
Core_0_LLC_writeback_hit 108328
Core_0_LLC_writeback_miss 293968
Core_0_LLC_writeback_MPKI 2.93968
Core_0_LLC_writeback_miss_rate 0.730726
Core_0_LLC_prefetch_requested 0
Core_0_LLC_prefetch_issued 0
Core_0_LLC_prefetch_useful 0
Core_0_LLC_prefetch_useless 0
Core_0_LLC_prefetch_late 0
Core_0_LLC_prefetch_accuracy 0
Core_0_LLC_prefetch_coverage 0

[DRAM Statistics]
Channel_0_RQ_row_buffer_hit 22053
Channel_0_RQ_row_buffer_miss 2719803
Channel_0_WQ_row_buffer_hit 106893
Channel_0_WQ_row_buffer_miss 243854
Channel_0_WQ_full 0
Channel_0_dbus_congested 8156844
DRAM_total_RQ_row_buffer_hit 22053
DRAM_total_RQ_row_buffer_miss 2719803
DRAM_total_WQ_row_buffer_hit 106893
DRAM_total_WQ_row_buffer_miss 243854
DRAM_total_WQ_full 0
DRAM_total_dbus_congested 8156844
DRAM_avg_congested_cycle 19.2583

====== DRAM_RQ_TRAFFIC ========
DRAM_RQ_READ_TRAFFIC_BREAKDOWN:
data_demand_read.count = 2736788
data_demand_read.share = 99.81%

inst_demand_read.count = 0
inst_demand_read.share = 0.00%

cache_inst_prefetch.count = 0
cache_inst_prefetch.share = 0.00%

cache_data_prefetch.count = 0
cache_data_prefetch.share = 0.00%

stlb_data_demand.count = 5090
stlb_data_demand.share = 0.19%

stlb_inst_demand.count = 0
stlb_inst_demand.share = 0.00%

stlb_l1i_pref.count = 0
stlb_l1i_pref.share = 0.00%

stlb_l1d_pref.count = 0
stlb_l1d_pref.share = 0.00%

DRAM_RQ_READ_TRAFFIC_SUMMARY:
cache_demand.count = 2736788
cache_demand.share = 99.81%

cache_prefetch.count = 0
cache_prefetch.share = 0.00%

stlb_demand.count = 5090
stlb_demand.share = 0.19%

stlb_prefetch.count = 0
stlb_prefetch.share = 0.00%

DRAM_RQ_READ_TRAFFIC_DEBUG:
total_classified_read.count = 2741878
unclassified_read.count = 0
total_read_with_other.count = 2741878

classified_plus_unclassified_check.count = 2741878
dram_rq_read_total_observed.count = 2741878
dram_rq_read_total_observed.per_1K_instructions = 27.4188

STLB_MISS_PTW_DRAM_TOUCH_BREAKDOWN:
stlb_miss_total.count = 616097

stlb_miss_touch_dram.count = 5038
stlb_miss_touch_dram.share = 0.82%

stlb_miss_no_dram_touch.count = 611059
stlb_miss_no_dram_touch.share = 99.18%

STLB_MISS_PTW_DRAM_TOUCH_DEBUG:
stlb_miss_touch_plus_no_touch.count = 616097
stlb_miss_total_check.count = 616097

======STLB miss causes ========
Core_0_STLB_miss_cause_breakdown
Core_0_STLB_cause_Demand_Data_miss 616097
Core_0_STLB_cause_Demand_Data_miss_rate 0.382379
Core_0_STLB_cause_Demand_Instruction_miss 0
Core_0_STLB_cause_Demand_Instruction_miss_rate 0
Core_0_STLB_cause_L1D_Prefetch_miss 0
Core_0_STLB_cause_L1D_Prefetch_miss_rate 0
Core_0_STLB_cause_L1I_Prefetch_miss 0
Core_0_STLB_cause_L1I_Prefetch_miss_rate 0
Core_0_STLB_cause_Other_miss 0
Core_0_STLB_cause_Other_miss_rate 0
Core_0_STLB_Demand_miss 616097
Core_0_STLB_Demand_miss_rate 0.382379
Core_0_STLB_L1D_Prefetch_miss 0
Core_0_STLB_L1D_Prefetch_miss_rate 0
Core_0_STLB_Other_miss 0
Core_0_STLB_Other_miss_rate 0
