[VMEM] WARNING: physical memory size is smaller than virtual memory size.

*** ChampSim Multicore Out-of-Order Simulator ***
Warmup Instructions: 50000000
Simulation Instructions: 100000000
Number of CPUs: 1
Page size: 4096
Core 0: /data0/tzh/champsim_traces/PARSEC/parsec_2.1.vips.simlarge.prebuilt.drop_33250M.length_250M.champsimtrace.xz
Off-chip DRAM Size: 16 GiB Channels: 1 Width: 64-bit Data Rate: 3205 MT/s
[BTB] WARNING: target of return is a lower address than the corresponding call. This is usually a problem with your trace.
[BTB] WARNING: target of return is a lower address than the corresponding call. This is usually a problem with your trace.
[BTB] WARNING: target of return is a lower address than the corresponding call. This is usually a problem with your trace.
[BTB] WARNING: target of return is a lower address than the corresponding call. This is usually a problem with your trace.
[BTB] WARNING: target of return is a lower address than the corresponding call. This is usually a problem with your trace.
[BTB] WARNING: target of return is a lower address than the corresponding call. This is usually a problem with your trace.
[BTB] WARNING: target of return is a lower address than the corresponding call. This is usually a problem with your trace.
[BTB] WARNING: target of return is a lower address than the corresponding call. This is usually a problem with your trace.
[BTB] WARNING: target of return is a lower address than the corresponding call. This is usually a problem with your trace.
[BTB] WARNING: target of return is a lower address than the corresponding call. This is usually a problem with your trace.
Warmup halting CPU 0 at instruction 50000005 cycle 10164360 for remainder of phase
Warmup finished CPU 0 instructions: 50000005 cycles: 10164360 cumulative IPC: 4.919 (Simulation time: 00 hr 01 min 45 sec)
Warmup complete CPU 0 instructions: 50000005 cycles: 10164360 cumulative IPC: 4.919 (Simulation time: 00 hr 01 min 45 sec)
Simulation finished CPU 0 instructions: 100000003 cycles: 27760886 cumulative IPC: 3.602 (Simulation time: 00 hr 06 min 40 sec)
Simulation complete CPU 0 instructions: 100000003 cycles: 27760886 cumulative IPC: 3.602 (Simulation time: 00 hr 06 min 40 sec)

ChampSim completed all CPUs

=== Simulation ===
CPU 0 runs /data0/tzh/champsim_traces/PARSEC/parsec_2.1.vips.simlarge.prebuilt.drop_33250M.length_250M.champsimtrace.xz

Region of Interest Statistics

CPU 0 cumulative IPC: 3.602 instructions: 100000003 cycles: 27760886
CPU 0 Branch Prediction Accuracy: 99.67% MPKI: 0.3727 Average ROB Occupancy at Mispredict: 137.4
Branch type MPKI
BRANCH_DIRECT_JUMP: 0.01152
BRANCH_INDIRECT: 0.00279
BRANCH_CONDITIONAL: 0.346
BRANCH_DIRECT_CALL: 0.00273
BRANCH_INDIRECT_CALL: 0.00267
BRANCH_RETURN: 0.00697

cpu0->cpu0_STLB TOTAL        ACCESS:      12096 HIT:      11799 MISS:        297 MSHR_MERGE:          0
cpu0->cpu0_STLB LOAD         ACCESS:      12096 HIT:      11799 MISS:        297 MSHR_MERGE:          0
cpu0->cpu0_STLB RFO          ACCESS:          0 HIT:          0 MISS:          0 MSHR_MERGE:          0
cpu0->cpu0_STLB PREFETCH     ACCESS:          0 HIT:          0 MISS:          0 MSHR_MERGE:          0
cpu0->cpu0_STLB WRITE        ACCESS:          0 HIT:          0 MISS:          0 MSHR_MERGE:          0
cpu0->cpu0_STLB TRANSLATION  ACCESS:          0 HIT:          0 MISS:          0 MSHR_MERGE:          0
cpu0->cpu0_STLB PREFETCH REQUESTED:          0 ISSUED:          0 USEFUL:          0 USELESS:          0 LATE:          0
cpu0->cpu0_STLB AVERAGE MISS LATENCY: 270 cycles
cpu0->cpu0_L2C TOTAL        ACCESS:     605244 HIT:     392161 MISS:     213083 MSHR_MERGE:          0
cpu0->cpu0_L2C LOAD         ACCESS:     336873 HIT:     215193 MISS:     121680 MSHR_MERGE:          0
cpu0->cpu0_L2C RFO          ACCESS:      94087 HIT:       2837 MISS:      91250 MSHR_MERGE:          0
cpu0->cpu0_L2C PREFETCH     ACCESS:          0 HIT:          0 MISS:          0 MSHR_MERGE:          0
cpu0->cpu0_L2C WRITE        ACCESS:     174126 HIT:     174126 MISS:          0 MSHR_MERGE:          0
cpu0->cpu0_L2C TRANSLATION  ACCESS:        158 HIT:          5 MISS:        153 MSHR_MERGE:          0
cpu0->cpu0_L2C PREFETCH REQUESTED:          0 ISSUED:          0 USEFUL:          0 USELESS:          0 LATE:          0
cpu0->cpu0_L2C AVERAGE MISS LATENCY: 30.3 cycles
cpu0->cpu0_L1I TOTAL        ACCESS:   13393754 HIT:   13387925 MISS:       5829 MSHR_MERGE:       2223
cpu0->cpu0_L1I LOAD         ACCESS:   13393754 HIT:   13387925 MISS:       5829 MSHR_MERGE:       2223
cpu0->cpu0_L1I RFO          ACCESS:          0 HIT:          0 MISS:          0 MSHR_MERGE:          0
cpu0->cpu0_L1I PREFETCH     ACCESS:          0 HIT:          0 MISS:          0 MSHR_MERGE:          0
cpu0->cpu0_L1I WRITE        ACCESS:          0 HIT:          0 MISS:          0 MSHR_MERGE:          0
cpu0->cpu0_L1I TRANSLATION  ACCESS:          0 HIT:          0 MISS:          0 MSHR_MERGE:          0
cpu0->cpu0_L1I PREFETCH REQUESTED:          0 ISSUED:          0 USEFUL:          0 USELESS:          0 LATE:          0
cpu0->cpu0_L1I AVERAGE MISS LATENCY: 28.06 cycles
cpu0->cpu0_L1D TOTAL        ACCESS:   19556135 HIT:   18371626 MISS:    1184509 MSHR_MERGE:     756997
cpu0->cpu0_L1D LOAD         ACCESS:   14354192 HIT:   13752656 MISS:     601536 MSHR_MERGE:     268269
cpu0->cpu0_L1D RFO          ACCESS:          0 HIT:          0 MISS:          0 MSHR_MERGE:          0
cpu0->cpu0_L1D PREFETCH     ACCESS:          0 HIT:          0 MISS:          0 MSHR_MERGE:          0
cpu0->cpu0_L1D WRITE        ACCESS:    5201355 HIT:    4618547 MISS:     582808 MSHR_MERGE:     488721
cpu0->cpu0_L1D TRANSLATION  ACCESS:        588 HIT:        423 MISS:        165 MSHR_MERGE:          7
cpu0->cpu0_L1D PREFETCH REQUESTED:          0 ISSUED:          0 USEFUL:          0 USELESS:          0 LATE:          0
cpu0->cpu0_L1D AVERAGE MISS LATENCY: 23.53 cycles
cpu0->cpu0_ITLB TOTAL        ACCESS:   11015426 HIT:   11014091 MISS:       1335 MSHR_MERGE:        903
cpu0->cpu0_ITLB LOAD         ACCESS:   11015426 HIT:   11014091 MISS:       1335 MSHR_MERGE:        903
cpu0->cpu0_ITLB RFO          ACCESS:          0 HIT:          0 MISS:          0 MSHR_MERGE:          0
cpu0->cpu0_ITLB PREFETCH     ACCESS:          0 HIT:          0 MISS:          0 MSHR_MERGE:          0
cpu0->cpu0_ITLB WRITE        ACCESS:          0 HIT:          0 MISS:          0 MSHR_MERGE:          0
cpu0->cpu0_ITLB TRANSLATION  ACCESS:          0 HIT:          0 MISS:          0 MSHR_MERGE:          0
cpu0->cpu0_ITLB PREFETCH REQUESTED:          0 ISSUED:          0 USEFUL:          0 USELESS:          0 LATE:          0
cpu0->cpu0_ITLB AVERAGE MISS LATENCY: 6.907 cycles
cpu0->cpu0_DTLB TOTAL        ACCESS:   18463958 HIT:   18441199 MISS:      22759 MSHR_MERGE:      11095
cpu0->cpu0_DTLB LOAD         ACCESS:   18463958 HIT:   18441199 MISS:      22759 MSHR_MERGE:      11095
cpu0->cpu0_DTLB RFO          ACCESS:          0 HIT:          0 MISS:          0 MSHR_MERGE:          0
cpu0->cpu0_DTLB PREFETCH     ACCESS:          0 HIT:          0 MISS:          0 MSHR_MERGE:          0
cpu0->cpu0_DTLB WRITE        ACCESS:          0 HIT:          0 MISS:          0 MSHR_MERGE:          0
cpu0->cpu0_DTLB TRANSLATION  ACCESS:          0 HIT:          0 MISS:          0 MSHR_MERGE:          0
cpu0->cpu0_DTLB PREFETCH REQUESTED:          0 ISSUED:          0 USEFUL:          0 USELESS:          0 LATE:          0
cpu0->cpu0_DTLB AVERAGE MISS LATENCY: 11.83 cycles
cpu0->LLC TOTAL        ACCESS:     380998 HIT:     360357 MISS:      20641 MSHR_MERGE:          0
cpu0->LLC LOAD         ACCESS:     121680 HIT:     111111 MISS:      10569 MSHR_MERGE:          0
cpu0->LLC RFO          ACCESS:      91250 HIT:      83754 MISS:       7496 MSHR_MERGE:          0
cpu0->LLC PREFETCH     ACCESS:          0 HIT:          0 MISS:          0 MSHR_MERGE:          0
cpu0->LLC WRITE        ACCESS:     167915 HIT:     165400 MISS:       2515 MSHR_MERGE:          0
cpu0->LLC TRANSLATION  ACCESS:        153 HIT:         92 MISS:         61 MSHR_MERGE:          0
cpu0->LLC PREFETCH REQUESTED:          0 ISSUED:          0 USEFUL:          0 USELESS:          0 LATE:          0
cpu0->LLC AVERAGE MISS LATENCY: 157.8 cycles

DRAM Statistics

Channel 0 RQ ROW_BUFFER_HIT:       1208
  ROW_BUFFER_MISS:      16907
  AVG DBUS CONGESTED CYCLE: 18.35
Channel 0 WQ ROW_BUFFER_HIT:        845
  ROW_BUFFER_MISS:       4605
  FULL:          0
Channel 0 REFRESHES ISSUED:       2313

[ROI Statistics]
[System Configuration]
num_cpus 1
cpu_freq 4000
fetch_width 6
decode_width 6
dispatch_width 6
execute_width 6
lq_width 2
sq_width 2
retire_width 6
scheduler_size 128
branch_mispredict_penalty 15
rob_size 352
lq_size 128
sq_size 72
ifetch_buffer_size 64
decode_buffer_size 32
dispatch_buffer_size 32
register_file_size 288
decode_latency 1
dispatch_latency 1
schedule_latency 1
execute_latency 1
page_size 4096
block_size 64
core_0_itlb_set 16
core_0_itlb_way 4
core_0_itlb_rq_size 16
core_0_itlb_wq_size 16
core_0_itlb_pq_size 0
core_0_itlb_mshr_size 8
core_0_itlb_hit_latency 1
core_0_itlb_fill_latency 1
core_0_itlb_max_tag_check 2
core_0_itlb_max_fill 2
core_0_dtlb_set 16
core_0_dtlb_way 4
core_0_dtlb_rq_size 16
core_0_dtlb_wq_size 16
core_0_dtlb_pq_size 0
core_0_dtlb_mshr_size 8
core_0_dtlb_hit_latency 1
core_0_dtlb_fill_latency 1
core_0_dtlb_max_tag_check 2
core_0_dtlb_max_fill 2
core_0_stlb_set 128
core_0_stlb_way 12
core_0_stlb_rq_size 32
core_0_stlb_wq_size 32
core_0_stlb_pq_size 0
core_0_stlb_mshr_size 16
core_0_stlb_hit_latency 4
core_0_stlb_fill_latency 4
core_0_stlb_max_tag_check 1
core_0_stlb_max_fill 1
core_0_l1i_set 64
core_0_l1i_way 8
core_0_l1i_rq_size 64
core_0_l1i_wq_size 64
core_0_l1i_pq_size 32
core_0_l1i_mshr_size 8
core_0_l1i_hit_latency 2
core_0_l1i_fill_latency 2
core_0_l1i_max_tag_check 2
core_0_l1i_max_fill 2
core_0_l1d_set 64
core_0_l1d_way 12
core_0_l1d_rq_size 64
core_0_l1d_wq_size 64
core_0_l1d_pq_size 8
core_0_l1d_mshr_size 16
core_0_l1d_hit_latency 2
core_0_l1d_fill_latency 3
core_0_l1d_max_tag_check 2
core_0_l1d_max_fill 2
core_0_l2c_set 1024
core_0_l2c_way 8
core_0_l2c_rq_size 32
core_0_l2c_wq_size 32
core_0_l2c_pq_size 16
core_0_l2c_mshr_size 32
core_0_l2c_hit_latency 5
core_0_l2c_fill_latency 5
core_0_l2c_max_tag_check 1
core_0_l2c_max_fill 1
llc_set 2048
llc_way 16
llc_rq_size 32
llc_wq_size 32
llc_pq_size 32
llc_mshr_size 64
llc_hit_latency 10
llc_fill_latency 10
llc_max_tag_check 1
llc_max_fill 1
dram_channels 1
dram_ranks 1
dram_bankgroups 8
dram_banks 4
dram_rows 65536
dram_columns 1024
dram_channel_width 8
dram_rq_size 64
dram_wq_size 64
dram_size 17179869184
core_0_itlb_prefetcher no
core_0_dtlb_prefetcher no
core_0_stlb_prefetcher no
core_0_l1i_prefetcher no
core_0_l1d_prefetcher no
core_0_l2c_prefetcher no
llc_prefetcher no
llc_replacement drrip

Core_0_instructions 100000003
Core_0_cycles 27760886
Core_0_IPC 3.60219
Core_0_branch_prediction_accuracy 99.6652
Core_0_branch_MPKI 0.37272
Core_0_average_ROB_occupancy_at_mispredict 137.361

Core_0_ITLB_total_access 11015426
Core_0_ITLB_total_hit 11014091
Core_0_ITLB_total_miss 1335
Core_0_ITLB_total_MPKI 0.01335
Core_0_ITLB_total_miss_rate 0.000121194
Core_0_ITLB_demand_access 11015426
Core_0_ITLB_demand_hit 11014091
Core_0_ITLB_demand_miss 1335
Core_0_ITLB_demand_MPKI 0.01335
Core_0_ITLB_demand_miss_rate 0.000121194
Core_0_ITLB_load_access 11015426
Core_0_ITLB_load_hit 11014091
Core_0_ITLB_load_miss 1335
Core_0_ITLB_load_MPKI 0.01335
Core_0_ITLB_load_miss_rate 0.000121194
Core_0_ITLB_rfo_access 0
Core_0_ITLB_rfo_hit 0
Core_0_ITLB_rfo_miss 0
Core_0_ITLB_rfo_MPKI 0
Core_0_ITLB_rfo_miss_rate 0
Core_0_ITLB_prefetch_access 0
Core_0_ITLB_prefetch_hit 0
Core_0_ITLB_prefetch_miss 0
Core_0_ITLB_prefetch_MPKI 0
Core_0_ITLB_prefetch_miss_rate 0
Core_0_ITLB_writeback_access 0
Core_0_ITLB_writeback_hit 0
Core_0_ITLB_writeback_miss 0
Core_0_ITLB_writeback_MPKI 0
Core_0_ITLB_writeback_miss_rate 0
Core_0_ITLB_prefetch_requested 0
Core_0_ITLB_prefetch_issued 0
Core_0_ITLB_prefetch_useful 0
Core_0_ITLB_prefetch_useless 0
Core_0_ITLB_prefetch_late 0
Core_0_ITLB_prefetch_accuracy 0
Core_0_ITLB_prefetch_coverage 0

Core_0_DTLB_total_access 18463958
Core_0_DTLB_total_hit 18441199
Core_0_DTLB_total_miss 22759
Core_0_DTLB_total_MPKI 0.22759
Core_0_DTLB_total_miss_rate 0.00123262
Core_0_DTLB_demand_access 18463958
Core_0_DTLB_demand_hit 18441199
Core_0_DTLB_demand_miss 22759
Core_0_DTLB_demand_MPKI 0.22759
Core_0_DTLB_demand_miss_rate 0.00123262
Core_0_DTLB_load_access 18463958
Core_0_DTLB_load_hit 18441199
Core_0_DTLB_load_miss 22759
Core_0_DTLB_load_MPKI 0.22759
Core_0_DTLB_load_miss_rate 0.00123262
Core_0_DTLB_rfo_access 0
Core_0_DTLB_rfo_hit 0
Core_0_DTLB_rfo_miss 0
Core_0_DTLB_rfo_MPKI 0
Core_0_DTLB_rfo_miss_rate 0
Core_0_DTLB_prefetch_access 0
Core_0_DTLB_prefetch_hit 0
Core_0_DTLB_prefetch_miss 0
Core_0_DTLB_prefetch_MPKI 0
Core_0_DTLB_prefetch_miss_rate 0
Core_0_DTLB_writeback_access 0
Core_0_DTLB_writeback_hit 0
Core_0_DTLB_writeback_miss 0
Core_0_DTLB_writeback_MPKI 0
Core_0_DTLB_writeback_miss_rate 0
Core_0_DTLB_prefetch_requested 0
Core_0_DTLB_prefetch_issued 0
Core_0_DTLB_prefetch_useful 0
Core_0_DTLB_prefetch_useless 0
Core_0_DTLB_prefetch_late 0
Core_0_DTLB_prefetch_accuracy 0
Core_0_DTLB_prefetch_coverage 0

Core_0_STLB_total_access 12096
Core_0_STLB_total_hit 11799
Core_0_STLB_total_miss 297
Core_0_STLB_total_MPKI 0.00297
Core_0_STLB_total_miss_rate 0.0245536
Core_0_STLB_demand_access 12096
Core_0_STLB_demand_hit 11799
Core_0_STLB_demand_miss 297
Core_0_STLB_demand_MPKI 0.00297
Core_0_STLB_demand_miss_rate 0.0245536
Core_0_STLB_load_access 12096
Core_0_STLB_load_hit 11799
Core_0_STLB_load_miss 297
Core_0_STLB_load_MPKI 0.00297
Core_0_STLB_load_miss_rate 0.0245536
Core_0_STLB_rfo_access 0
Core_0_STLB_rfo_hit 0
Core_0_STLB_rfo_miss 0
Core_0_STLB_rfo_MPKI 0
Core_0_STLB_rfo_miss_rate 0
Core_0_STLB_prefetch_access 0
Core_0_STLB_prefetch_hit 0
Core_0_STLB_prefetch_miss 0
Core_0_STLB_prefetch_MPKI 0
Core_0_STLB_prefetch_miss_rate 0
Core_0_STLB_writeback_access 0
Core_0_STLB_writeback_hit 0
Core_0_STLB_writeback_miss 0
Core_0_STLB_writeback_MPKI 0
Core_0_STLB_writeback_miss_rate 0
Core_0_STLB_prefetch_requested 0
Core_0_STLB_prefetch_issued 0
Core_0_STLB_prefetch_useful 0
Core_0_STLB_prefetch_useless 0
Core_0_STLB_prefetch_late 0
Core_0_STLB_prefetch_accuracy 0
Core_0_STLB_prefetch_coverage 0

Core_0_L1I_total_access 13393754
Core_0_L1I_total_hit 13387925
Core_0_L1I_total_miss 5829
Core_0_L1I_total_MPKI 0.05829
Core_0_L1I_total_miss_rate 0.000435203
Core_0_L1I_demand_access 13393754
Core_0_L1I_demand_hit 13387925
Core_0_L1I_demand_miss 5829
Core_0_L1I_demand_MPKI 0.05829
Core_0_L1I_demand_miss_rate 0.000435203
Core_0_L1I_load_access 13393754
Core_0_L1I_load_hit 13387925
Core_0_L1I_load_miss 5829
Core_0_L1I_load_MPKI 0.05829
Core_0_L1I_load_miss_rate 0.000435203
Core_0_L1I_rfo_access 0
Core_0_L1I_rfo_hit 0
Core_0_L1I_rfo_miss 0
Core_0_L1I_rfo_MPKI 0
Core_0_L1I_rfo_miss_rate 0
Core_0_L1I_prefetch_access 0
Core_0_L1I_prefetch_hit 0
Core_0_L1I_prefetch_miss 0
Core_0_L1I_prefetch_MPKI 0
Core_0_L1I_prefetch_miss_rate 0
Core_0_L1I_writeback_access 0
Core_0_L1I_writeback_hit 0
Core_0_L1I_writeback_miss 0
Core_0_L1I_writeback_MPKI 0
Core_0_L1I_writeback_miss_rate 0
Core_0_L1I_prefetch_requested 0
Core_0_L1I_prefetch_issued 0
Core_0_L1I_prefetch_useful 0
Core_0_L1I_prefetch_useless 0
Core_0_L1I_prefetch_late 0
Core_0_L1I_prefetch_accuracy 0
Core_0_L1I_prefetch_coverage 0

Core_0_L1D_total_access 19555547
Core_0_L1D_total_hit 18371203
Core_0_L1D_total_miss 1184344
Core_0_L1D_total_MPKI 11.8434
Core_0_L1D_total_miss_rate 0.0605631
Core_0_L1D_demand_access 14354192
Core_0_L1D_demand_hit 13752656
Core_0_L1D_demand_miss 601536
Core_0_L1D_demand_MPKI 6.01536
Core_0_L1D_demand_miss_rate 0.0419066
Core_0_L1D_load_access 14354192
Core_0_L1D_load_hit 13752656
Core_0_L1D_load_miss 601536
Core_0_L1D_load_MPKI 6.01536
Core_0_L1D_load_miss_rate 0.0419066
Core_0_L1D_rfo_access 0
Core_0_L1D_rfo_hit 0
Core_0_L1D_rfo_miss 0
Core_0_L1D_rfo_MPKI 0
Core_0_L1D_rfo_miss_rate 0
Core_0_L1D_prefetch_access 0
Core_0_L1D_prefetch_hit 0
Core_0_L1D_prefetch_miss 0
Core_0_L1D_prefetch_MPKI 0
Core_0_L1D_prefetch_miss_rate 0
Core_0_L1D_writeback_access 5201355
Core_0_L1D_writeback_hit 4618547
Core_0_L1D_writeback_miss 582808
Core_0_L1D_writeback_MPKI 5.82808
Core_0_L1D_writeback_miss_rate 0.112049
Core_0_L1D_prefetch_requested 0
Core_0_L1D_prefetch_issued 0
Core_0_L1D_prefetch_useful 0
Core_0_L1D_prefetch_useless 0
Core_0_L1D_prefetch_late 0
Core_0_L1D_prefetch_accuracy 0
Core_0_L1D_prefetch_coverage 0

Core_0_L2C_total_access 605086
Core_0_L2C_total_hit 392156
Core_0_L2C_total_miss 212930
Core_0_L2C_total_MPKI 2.1293
Core_0_L2C_total_miss_rate 0.3519
Core_0_L2C_demand_access 430960
Core_0_L2C_demand_hit 218030
Core_0_L2C_demand_miss 212930
Core_0_L2C_demand_MPKI 2.1293
Core_0_L2C_demand_miss_rate 0.494083
Core_0_L2C_load_access 336873
Core_0_L2C_load_hit 215193
Core_0_L2C_load_miss 121680
Core_0_L2C_load_MPKI 1.2168
Core_0_L2C_load_miss_rate 0.361204
Core_0_L2C_rfo_access 94087
Core_0_L2C_rfo_hit 2837
Core_0_L2C_rfo_miss 91250
Core_0_L2C_rfo_MPKI 0.9125
Core_0_L2C_rfo_miss_rate 0.969847
Core_0_L2C_prefetch_access 0
Core_0_L2C_prefetch_hit 0
Core_0_L2C_prefetch_miss 0
Core_0_L2C_prefetch_MPKI 0
Core_0_L2C_prefetch_miss_rate 0
Core_0_L2C_writeback_access 174126
Core_0_L2C_writeback_hit 174126
Core_0_L2C_writeback_miss 0
Core_0_L2C_writeback_MPKI 0
Core_0_L2C_writeback_miss_rate 0
Core_0_L2C_prefetch_requested 0
Core_0_L2C_prefetch_issued 0
Core_0_L2C_prefetch_useful 0
Core_0_L2C_prefetch_useless 0
Core_0_L2C_prefetch_late 0
Core_0_L2C_prefetch_accuracy 0
Core_0_L2C_prefetch_coverage 0

Core_0_LLC_total_access 380845
Core_0_LLC_total_hit 360265
Core_0_LLC_total_miss 20580
Core_0_LLC_total_MPKI 0.2058
Core_0_LLC_total_miss_rate 0.0540377
Core_0_LLC_demand_access 212930
Core_0_LLC_demand_hit 194865
Core_0_LLC_demand_miss 18065
Core_0_LLC_demand_MPKI 0.18065
Core_0_LLC_demand_miss_rate 0.0848401
Core_0_LLC_load_access 121680
Core_0_LLC_load_hit 111111
Core_0_LLC_load_miss 10569
Core_0_LLC_load_MPKI 0.10569
Core_0_LLC_load_miss_rate 0.086859
Core_0_LLC_rfo_access 91250
Core_0_LLC_rfo_hit 83754
Core_0_LLC_rfo_miss 7496
Core_0_LLC_rfo_MPKI 0.07496
Core_0_LLC_rfo_miss_rate 0.0821479
Core_0_LLC_prefetch_access 0
Core_0_LLC_prefetch_hit 0
Core_0_LLC_prefetch_miss 0
Core_0_LLC_prefetch_MPKI 0
Core_0_LLC_prefetch_miss_rate 0
Core_0_LLC_writeback_access 167915
Core_0_LLC_writeback_hit 165400
Core_0_LLC_writeback_miss 2515
Core_0_LLC_writeback_MPKI 0.02515
Core_0_LLC_writeback_miss_rate 0.0149778
Core_0_LLC_prefetch_requested 0
Core_0_LLC_prefetch_issued 0
Core_0_LLC_prefetch_useful 0
Core_0_LLC_prefetch_useless 0
Core_0_LLC_prefetch_late 0
Core_0_LLC_prefetch_accuracy 0
Core_0_LLC_prefetch_coverage 0

[DRAM Statistics]
Channel_0_RQ_row_buffer_hit 1208
Channel_0_RQ_row_buffer_miss 16907
Channel_0_WQ_row_buffer_hit 845
Channel_0_WQ_row_buffer_miss 4605
Channel_0_WQ_full 0
Channel_0_dbus_congested 66320
DRAM_total_RQ_row_buffer_hit 1208
DRAM_total_RQ_row_buffer_miss 16907
DRAM_total_WQ_row_buffer_hit 845
DRAM_total_WQ_row_buffer_miss 4605
DRAM_total_WQ_full 0
DRAM_total_dbus_congested 66320
DRAM_avg_congested_cycle 18.3528

====== DRAM_RQ_TRAFFIC ========
DRAM_RQ_READ_TRAFFIC_BREAKDOWN:
data_demand_read.count = 17968
data_demand_read.share = 99.13%

inst_demand_read.count = 97
inst_demand_read.share = 0.54%

cache_inst_prefetch.count = 0
cache_inst_prefetch.share = 0.00%

cache_data_prefetch.count = 0
cache_data_prefetch.share = 0.00%

stlb_data_demand.count = 60
stlb_data_demand.share = 0.33%

stlb_inst_demand.count = 1
stlb_inst_demand.share = 0.01%

stlb_l1i_pref.count = 0
stlb_l1i_pref.share = 0.00%

stlb_l1d_pref.count = 0
stlb_l1d_pref.share = 0.00%

DRAM_RQ_READ_TRAFFIC_SUMMARY:
cache_demand.count = 18065
cache_demand.share = 99.66%

cache_prefetch.count = 0
cache_prefetch.share = 0.00%

stlb_demand.count = 61
stlb_demand.share = 0.34%

stlb_prefetch.count = 0
stlb_prefetch.share = 0.00%

DRAM_RQ_READ_TRAFFIC_DEBUG:
total_classified_read.count = 18126
unclassified_read.count = 0
total_read_with_other.count = 18126

classified_plus_unclassified_check.count = 18126
dram_rq_read_total_observed.count = 18126
dram_rq_read_total_observed.per_1K_instructions = 0.18126

STLB_MISS_PTW_DRAM_TOUCH_BREAKDOWN:
stlb_miss_total.count = 297

stlb_miss_touch_dram.count = 61
stlb_miss_touch_dram.share = 20.54%

stlb_miss_no_dram_touch.count = 236
stlb_miss_no_dram_touch.share = 79.46%

STLB_MISS_PTW_DRAM_TOUCH_DEBUG:
stlb_miss_touch_plus_no_touch.count = 297
stlb_miss_total_check.count = 297

======STLB miss causes ========
Core_0_STLB_miss_cause_breakdown
Core_0_STLB_cause_Demand_Data_miss 294
Core_0_STLB_cause_Demand_Data_miss_rate 0.0243056
Core_0_STLB_cause_Demand_Instruction_miss 3
Core_0_STLB_cause_Demand_Instruction_miss_rate 0.000248016
Core_0_STLB_cause_L1D_Prefetch_miss 0
Core_0_STLB_cause_L1D_Prefetch_miss_rate 0
Core_0_STLB_cause_L1I_Prefetch_miss 0
Core_0_STLB_cause_L1I_Prefetch_miss_rate 0
Core_0_STLB_cause_Other_miss 0
Core_0_STLB_cause_Other_miss_rate 0
Core_0_STLB_Demand_miss 297
Core_0_STLB_Demand_miss_rate 0.0245536
Core_0_STLB_L1D_Prefetch_miss 0
Core_0_STLB_L1D_Prefetch_miss_rate 0
Core_0_STLB_Other_miss 0
Core_0_STLB_Other_miss_rate 0
