[VMEM] WARNING: physical memory size is smaller than virtual memory size.

*** ChampSim Multicore Out-of-Order Simulator ***
Warmup Instructions: 50000000
Simulation Instructions: 100000000
Number of CPUs: 1
Page size: 4096
Core 0: /data0/tzh/champsim_traces/PARSEC/parsec_2.1.canneal.simlarge.prebuilt.drop_500M.length_250M.champsimtrace.xz
Off-chip DRAM Size: 16 GiB Channels: 1 Width: 64-bit Data Rate: 3205 MT/s
Warmup halting CPU 0 at instruction 50000004 cycle 11536271 for remainder of phase
Warmup finished CPU 0 instructions: 50000004 cycles: 11536271 cumulative IPC: 4.334 (Simulation time: 00 hr 02 min 19 sec)
Warmup complete CPU 0 instructions: 50000004 cycles: 11536271 cumulative IPC: 4.334 (Simulation time: 00 hr 02 min 19 sec)
Simulation finished CPU 0 instructions: 100000001 cycles: 154868231 cumulative IPC: 0.6457 (Simulation time: 00 hr 15 min 15 sec)
Simulation complete CPU 0 instructions: 100000001 cycles: 154868231 cumulative IPC: 0.6457 (Simulation time: 00 hr 15 min 15 sec)

ChampSim completed all CPUs

=== Simulation ===
CPU 0 runs /data0/tzh/champsim_traces/PARSEC/parsec_2.1.canneal.simlarge.prebuilt.drop_500M.length_250M.champsimtrace.xz

Region of Interest Statistics

CPU 0 cumulative IPC: 0.6457 instructions: 100000001 cycles: 154868231
CPU 0 Branch Prediction Accuracy: 95.88% MPKI: 8.145 Average ROB Occupancy at Mispredict: 73.21
Branch type MPKI
BRANCH_DIRECT_JUMP: 0
BRANCH_INDIRECT: 0.2084
BRANCH_CONDITIONAL: 7.774
BRANCH_DIRECT_CALL: 0.1622
BRANCH_INDIRECT_CALL: 8e-05
BRANCH_RETURN: 0

cpu0->cpu0_STLB TOTAL        ACCESS:     639723 HIT:     475373 MISS:     164350 MSHR_MERGE:          0
cpu0->cpu0_STLB LOAD         ACCESS:     639723 HIT:     475373 MISS:     164350 MSHR_MERGE:          0
cpu0->cpu0_STLB RFO          ACCESS:          0 HIT:          0 MISS:          0 MSHR_MERGE:          0
cpu0->cpu0_STLB PREFETCH     ACCESS:          0 HIT:          0 MISS:          0 MSHR_MERGE:          0
cpu0->cpu0_STLB WRITE        ACCESS:          0 HIT:          0 MISS:          0 MSHR_MERGE:          0
cpu0->cpu0_STLB TRANSLATION  ACCESS:          0 HIT:          0 MISS:          0 MSHR_MERGE:          0
cpu0->cpu0_STLB PREFETCH REQUESTED:          0 ISSUED:          0 USEFUL:          0 USELESS:          0 LATE:          0
cpu0->cpu0_STLB AVERAGE MISS LATENCY: 24.93 cycles
cpu0->cpu0_L2C TOTAL        ACCESS:    1405931 HIT:     640369 MISS:     765562 MSHR_MERGE:          0
cpu0->cpu0_L2C LOAD         ACCESS:     993324 HIT:     329071 MISS:     664253 MSHR_MERGE:          0
cpu0->cpu0_L2C RFO          ACCESS:      69570 HIT:       5385 MISS:      64185 MSHR_MERGE:          0
cpu0->cpu0_L2C PREFETCH     ACCESS:          0 HIT:          0 MISS:          0 MSHR_MERGE:          0
cpu0->cpu0_L2C WRITE        ACCESS:     200092 HIT:     199677 MISS:        415 MSHR_MERGE:          0
cpu0->cpu0_L2C TRANSLATION  ACCESS:     142945 HIT:     106236 MISS:      36709 MSHR_MERGE:          0
cpu0->cpu0_L2C PREFETCH REQUESTED:          0 ISSUED:          0 USEFUL:          0 USELESS:          0 LATE:          0
cpu0->cpu0_L2C AVERAGE MISS LATENCY: 136.1 cycles
cpu0->cpu0_L1I TOTAL        ACCESS:   10783313 HIT:   10761816 MISS:      21497 MSHR_MERGE:        571
cpu0->cpu0_L1I LOAD         ACCESS:   10783313 HIT:   10761816 MISS:      21497 MSHR_MERGE:        571
cpu0->cpu0_L1I RFO          ACCESS:          0 HIT:          0 MISS:          0 MSHR_MERGE:          0
cpu0->cpu0_L1I PREFETCH     ACCESS:          0 HIT:          0 MISS:          0 MSHR_MERGE:          0
cpu0->cpu0_L1I WRITE        ACCESS:          0 HIT:          0 MISS:          0 MSHR_MERGE:          0
cpu0->cpu0_L1I TRANSLATION  ACCESS:          0 HIT:          0 MISS:          0 MSHR_MERGE:          0
cpu0->cpu0_L1I PREFETCH REQUESTED:          0 ISSUED:          0 USEFUL:          0 USELESS:          0 LATE:          0
cpu0->cpu0_L1I AVERAGE MISS LATENCY: 7.624 cycles
cpu0->cpu0_L1D TOTAL        ACCESS:   30141806 HIT:   28676246 MISS:    1465560 MSHR_MERGE:     280645
cpu0->cpu0_L1D LOAD         ACCESS:   18981038 HIT:   17922600 MISS:    1058438 MSHR_MERGE:      86039
cpu0->cpu0_L1D RFO          ACCESS:          0 HIT:          0 MISS:          0 MSHR_MERGE:          0
cpu0->cpu0_L1D PREFETCH     ACCESS:          0 HIT:          0 MISS:          0 MSHR_MERGE:          0
cpu0->cpu0_L1D WRITE        ACCESS:   10832270 HIT:   10568282 MISS:     263988 MSHR_MERGE:     194417
cpu0->cpu0_L1D TRANSLATION  ACCESS:     328498 HIT:     185364 MISS:     143134 MSHR_MERGE:        189
cpu0->cpu0_L1D PREFETCH REQUESTED:          0 ISSUED:          0 USEFUL:          0 USELESS:          0 LATE:          0
cpu0->cpu0_L1D AVERAGE MISS LATENCY: 96.63 cycles
cpu0->cpu0_ITLB TOTAL        ACCESS:    9397434 HIT:    9397353 MISS:         81 MSHR_MERGE:         27
cpu0->cpu0_ITLB LOAD         ACCESS:    9397434 HIT:    9397353 MISS:         81 MSHR_MERGE:         27
cpu0->cpu0_ITLB RFO          ACCESS:          0 HIT:          0 MISS:          0 MSHR_MERGE:          0
cpu0->cpu0_ITLB PREFETCH     ACCESS:          0 HIT:          0 MISS:          0 MSHR_MERGE:          0
cpu0->cpu0_ITLB WRITE        ACCESS:          0 HIT:          0 MISS:          0 MSHR_MERGE:          0
cpu0->cpu0_ITLB TRANSLATION  ACCESS:          0 HIT:          0 MISS:          0 MSHR_MERGE:          0
cpu0->cpu0_ITLB PREFETCH REQUESTED:          0 ISSUED:          0 USEFUL:          0 USELESS:          0 LATE:          0
cpu0->cpu0_ITLB AVERAGE MISS LATENCY: 61.91 cycles
cpu0->cpu0_DTLB TOTAL        ACCESS:   28580258 HIT:   27812324 MISS:     767934 MSHR_MERGE:     128265
cpu0->cpu0_DTLB LOAD         ACCESS:   28580258 HIT:   27812324 MISS:     767934 MSHR_MERGE:     128265
cpu0->cpu0_DTLB RFO          ACCESS:          0 HIT:          0 MISS:          0 MSHR_MERGE:          0
cpu0->cpu0_DTLB PREFETCH     ACCESS:          0 HIT:          0 MISS:          0 MSHR_MERGE:          0
cpu0->cpu0_DTLB WRITE        ACCESS:          0 HIT:          0 MISS:          0 MSHR_MERGE:          0
cpu0->cpu0_DTLB TRANSLATION  ACCESS:          0 HIT:          0 MISS:          0 MSHR_MERGE:          0
cpu0->cpu0_DTLB PREFETCH REQUESTED:          0 ISSUED:          0 USEFUL:          0 USELESS:          0 LATE:          0
cpu0->cpu0_DTLB AVERAGE MISS LATENCY: 11.66 cycles
cpu0->LLC TOTAL        ACCESS:     958097 HIT:     432214 MISS:     525883 MSHR_MERGE:          0
cpu0->LLC LOAD         ACCESS:     664253 HIT:     225780 MISS:     438473 MSHR_MERGE:          0
cpu0->LLC RFO          ACCESS:      64185 HIT:         90 MISS:      64095 MSHR_MERGE:          0
cpu0->LLC PREFETCH     ACCESS:          0 HIT:          0 MISS:          0 MSHR_MERGE:          0
cpu0->LLC WRITE        ACCESS:     192950 HIT:     171012 MISS:      21938 MSHR_MERGE:          0
cpu0->LLC TRANSLATION  ACCESS:      36709 HIT:      35332 MISS:       1377 MSHR_MERGE:          0
cpu0->LLC PREFETCH REQUESTED:          0 ISSUED:          0 USEFUL:          0 USELESS:          0 LATE:          0
cpu0->LLC AVERAGE MISS LATENCY: 175.8 cycles

DRAM Statistics

Channel 0 RQ ROW_BUFFER_HIT:        175
  ROW_BUFFER_MISS:     503770
  AVG DBUS CONGESTED CYCLE: 22.18
Channel 0 WQ ROW_BUFFER_HIT:      75687
  ROW_BUFFER_MISS:     114282
  FULL:          0
Channel 0 REFRESHES ISSUED:      12906

[ROI Statistics]
[System Configuration]
num_cpus 1
cpu_freq 4000
fetch_width 6
decode_width 6
dispatch_width 6
execute_width 6
lq_width 2
sq_width 2
retire_width 6
scheduler_size 128
branch_mispredict_penalty 15
rob_size 352
lq_size 128
sq_size 72
ifetch_buffer_size 64
decode_buffer_size 32
dispatch_buffer_size 32
register_file_size 288
decode_latency 1
dispatch_latency 1
schedule_latency 1
execute_latency 1
page_size 4096
block_size 64
core_0_itlb_set 16
core_0_itlb_way 4
core_0_itlb_rq_size 16
core_0_itlb_wq_size 16
core_0_itlb_pq_size 0
core_0_itlb_mshr_size 8
core_0_itlb_hit_latency 1
core_0_itlb_fill_latency 1
core_0_itlb_max_tag_check 2
core_0_itlb_max_fill 2
core_0_dtlb_set 16
core_0_dtlb_way 4
core_0_dtlb_rq_size 16
core_0_dtlb_wq_size 16
core_0_dtlb_pq_size 0
core_0_dtlb_mshr_size 8
core_0_dtlb_hit_latency 1
core_0_dtlb_fill_latency 1
core_0_dtlb_max_tag_check 2
core_0_dtlb_max_fill 2
core_0_stlb_set 128
core_0_stlb_way 12
core_0_stlb_rq_size 32
core_0_stlb_wq_size 32
core_0_stlb_pq_size 0
core_0_stlb_mshr_size 16
core_0_stlb_hit_latency 4
core_0_stlb_fill_latency 4
core_0_stlb_max_tag_check 1
core_0_stlb_max_fill 1
core_0_l1i_set 64
core_0_l1i_way 8
core_0_l1i_rq_size 64
core_0_l1i_wq_size 64
core_0_l1i_pq_size 32
core_0_l1i_mshr_size 8
core_0_l1i_hit_latency 2
core_0_l1i_fill_latency 2
core_0_l1i_max_tag_check 2
core_0_l1i_max_fill 2
core_0_l1d_set 64
core_0_l1d_way 12
core_0_l1d_rq_size 64
core_0_l1d_wq_size 64
core_0_l1d_pq_size 8
core_0_l1d_mshr_size 16
core_0_l1d_hit_latency 2
core_0_l1d_fill_latency 3
core_0_l1d_max_tag_check 2
core_0_l1d_max_fill 2
core_0_l2c_set 1024
core_0_l2c_way 8
core_0_l2c_rq_size 32
core_0_l2c_wq_size 32
core_0_l2c_pq_size 16
core_0_l2c_mshr_size 32
core_0_l2c_hit_latency 5
core_0_l2c_fill_latency 5
core_0_l2c_max_tag_check 1
core_0_l2c_max_fill 1
llc_set 2048
llc_way 16
llc_rq_size 32
llc_wq_size 32
llc_pq_size 32
llc_mshr_size 64
llc_hit_latency 10
llc_fill_latency 10
llc_max_tag_check 1
llc_max_fill 1
dram_channels 1
dram_ranks 1
dram_bankgroups 8
dram_banks 4
dram_rows 65536
dram_columns 1024
dram_channel_width 8
dram_rq_size 64
dram_wq_size 64
dram_size 17179869184
core_0_itlb_prefetcher no
core_0_dtlb_prefetcher no
core_0_stlb_prefetcher no
core_0_l1i_prefetcher no
core_0_l1d_prefetcher no
core_0_l2c_prefetcher no
llc_prefetcher no
llc_replacement drrip

Core_0_instructions 100000001
Core_0_cycles 154868231
Core_0_IPC 0.64571
Core_0_branch_prediction_accuracy 95.885
Core_0_branch_MPKI 8.14483
Core_0_average_ROB_occupancy_at_mispredict 73.2091

Core_0_ITLB_total_access 9397434
Core_0_ITLB_total_hit 9397353
Core_0_ITLB_total_miss 81
Core_0_ITLB_total_MPKI 0.00081
Core_0_ITLB_total_miss_rate 8.61937e-06
Core_0_ITLB_demand_access 9397434
Core_0_ITLB_demand_hit 9397353
Core_0_ITLB_demand_miss 81
Core_0_ITLB_demand_MPKI 0.00081
Core_0_ITLB_demand_miss_rate 8.61937e-06
Core_0_ITLB_load_access 9397434
Core_0_ITLB_load_hit 9397353
Core_0_ITLB_load_miss 81
Core_0_ITLB_load_MPKI 0.00081
Core_0_ITLB_load_miss_rate 8.61937e-06
Core_0_ITLB_rfo_access 0
Core_0_ITLB_rfo_hit 0
Core_0_ITLB_rfo_miss 0
Core_0_ITLB_rfo_MPKI 0
Core_0_ITLB_rfo_miss_rate 0
Core_0_ITLB_prefetch_access 0
Core_0_ITLB_prefetch_hit 0
Core_0_ITLB_prefetch_miss 0
Core_0_ITLB_prefetch_MPKI 0
Core_0_ITLB_prefetch_miss_rate 0
Core_0_ITLB_writeback_access 0
Core_0_ITLB_writeback_hit 0
Core_0_ITLB_writeback_miss 0
Core_0_ITLB_writeback_MPKI 0
Core_0_ITLB_writeback_miss_rate 0
Core_0_ITLB_prefetch_requested 0
Core_0_ITLB_prefetch_issued 0
Core_0_ITLB_prefetch_useful 0
Core_0_ITLB_prefetch_useless 0
Core_0_ITLB_prefetch_late 0
Core_0_ITLB_prefetch_accuracy 0
Core_0_ITLB_prefetch_coverage 0

Core_0_DTLB_total_access 28580258
Core_0_DTLB_total_hit 27812324
Core_0_DTLB_total_miss 767934
Core_0_DTLB_total_MPKI 7.67934
Core_0_DTLB_total_miss_rate 0.0268694
Core_0_DTLB_demand_access 28580258
Core_0_DTLB_demand_hit 27812324
Core_0_DTLB_demand_miss 767934
Core_0_DTLB_demand_MPKI 7.67934
Core_0_DTLB_demand_miss_rate 0.0268694
Core_0_DTLB_load_access 28580258
Core_0_DTLB_load_hit 27812324
Core_0_DTLB_load_miss 767934
Core_0_DTLB_load_MPKI 7.67934
Core_0_DTLB_load_miss_rate 0.0268694
Core_0_DTLB_rfo_access 0
Core_0_DTLB_rfo_hit 0
Core_0_DTLB_rfo_miss 0
Core_0_DTLB_rfo_MPKI 0
Core_0_DTLB_rfo_miss_rate 0
Core_0_DTLB_prefetch_access 0
Core_0_DTLB_prefetch_hit 0
Core_0_DTLB_prefetch_miss 0
Core_0_DTLB_prefetch_MPKI 0
Core_0_DTLB_prefetch_miss_rate 0
Core_0_DTLB_writeback_access 0
Core_0_DTLB_writeback_hit 0
Core_0_DTLB_writeback_miss 0
Core_0_DTLB_writeback_MPKI 0
Core_0_DTLB_writeback_miss_rate 0
Core_0_DTLB_prefetch_requested 0
Core_0_DTLB_prefetch_issued 0
Core_0_DTLB_prefetch_useful 0
Core_0_DTLB_prefetch_useless 0
Core_0_DTLB_prefetch_late 0
Core_0_DTLB_prefetch_accuracy 0
Core_0_DTLB_prefetch_coverage 0

Core_0_STLB_total_access 639723
Core_0_STLB_total_hit 475373
Core_0_STLB_total_miss 164350
Core_0_STLB_total_MPKI 1.6435
Core_0_STLB_total_miss_rate 0.256908
Core_0_STLB_demand_access 639723
Core_0_STLB_demand_hit 475373
Core_0_STLB_demand_miss 164350
Core_0_STLB_demand_MPKI 1.6435
Core_0_STLB_demand_miss_rate 0.256908
Core_0_STLB_load_access 639723
Core_0_STLB_load_hit 475373
Core_0_STLB_load_miss 164350
Core_0_STLB_load_MPKI 1.6435
Core_0_STLB_load_miss_rate 0.256908
Core_0_STLB_rfo_access 0
Core_0_STLB_rfo_hit 0
Core_0_STLB_rfo_miss 0
Core_0_STLB_rfo_MPKI 0
Core_0_STLB_rfo_miss_rate 0
Core_0_STLB_prefetch_access 0
Core_0_STLB_prefetch_hit 0
Core_0_STLB_prefetch_miss 0
Core_0_STLB_prefetch_MPKI 0
Core_0_STLB_prefetch_miss_rate 0
Core_0_STLB_writeback_access 0
Core_0_STLB_writeback_hit 0
Core_0_STLB_writeback_miss 0
Core_0_STLB_writeback_MPKI 0
Core_0_STLB_writeback_miss_rate 0
Core_0_STLB_prefetch_requested 0
Core_0_STLB_prefetch_issued 0
Core_0_STLB_prefetch_useful 0
Core_0_STLB_prefetch_useless 0
Core_0_STLB_prefetch_late 0
Core_0_STLB_prefetch_accuracy 0
Core_0_STLB_prefetch_coverage 0

Core_0_L1I_total_access 10783313
Core_0_L1I_total_hit 10761816
Core_0_L1I_total_miss 21497
Core_0_L1I_total_MPKI 0.21497
Core_0_L1I_total_miss_rate 0.00199354
Core_0_L1I_demand_access 10783313
Core_0_L1I_demand_hit 10761816
Core_0_L1I_demand_miss 21497
Core_0_L1I_demand_MPKI 0.21497
Core_0_L1I_demand_miss_rate 0.00199354
Core_0_L1I_load_access 10783313
Core_0_L1I_load_hit 10761816
Core_0_L1I_load_miss 21497
Core_0_L1I_load_MPKI 0.21497
Core_0_L1I_load_miss_rate 0.00199354
Core_0_L1I_rfo_access 0
Core_0_L1I_rfo_hit 0
Core_0_L1I_rfo_miss 0
Core_0_L1I_rfo_MPKI 0
Core_0_L1I_rfo_miss_rate 0
Core_0_L1I_prefetch_access 0
Core_0_L1I_prefetch_hit 0
Core_0_L1I_prefetch_miss 0
Core_0_L1I_prefetch_MPKI 0
Core_0_L1I_prefetch_miss_rate 0
Core_0_L1I_writeback_access 0
Core_0_L1I_writeback_hit 0
Core_0_L1I_writeback_miss 0
Core_0_L1I_writeback_MPKI 0
Core_0_L1I_writeback_miss_rate 0
Core_0_L1I_prefetch_requested 0
Core_0_L1I_prefetch_issued 0
Core_0_L1I_prefetch_useful 0
Core_0_L1I_prefetch_useless 0
Core_0_L1I_prefetch_late 0
Core_0_L1I_prefetch_accuracy 0
Core_0_L1I_prefetch_coverage 0

Core_0_L1D_total_access 29813308
Core_0_L1D_total_hit 28490882
Core_0_L1D_total_miss 1322426
Core_0_L1D_total_MPKI 13.2243
Core_0_L1D_total_miss_rate 0.0443569
Core_0_L1D_demand_access 18981038
Core_0_L1D_demand_hit 17922600
Core_0_L1D_demand_miss 1058438
Core_0_L1D_demand_MPKI 10.5844
Core_0_L1D_demand_miss_rate 0.0557629
Core_0_L1D_load_access 18981038
Core_0_L1D_load_hit 17922600
Core_0_L1D_load_miss 1058438
Core_0_L1D_load_MPKI 10.5844
Core_0_L1D_load_miss_rate 0.0557629
Core_0_L1D_rfo_access 0
Core_0_L1D_rfo_hit 0
Core_0_L1D_rfo_miss 0
Core_0_L1D_rfo_MPKI 0
Core_0_L1D_rfo_miss_rate 0
Core_0_L1D_prefetch_access 0
Core_0_L1D_prefetch_hit 0
Core_0_L1D_prefetch_miss 0
Core_0_L1D_prefetch_MPKI 0
Core_0_L1D_prefetch_miss_rate 0
Core_0_L1D_writeback_access 10832270
Core_0_L1D_writeback_hit 10568282
Core_0_L1D_writeback_miss 263988
Core_0_L1D_writeback_MPKI 2.63988
Core_0_L1D_writeback_miss_rate 0.0243705
Core_0_L1D_prefetch_requested 0
Core_0_L1D_prefetch_issued 0
Core_0_L1D_prefetch_useful 0
Core_0_L1D_prefetch_useless 0
Core_0_L1D_prefetch_late 0
Core_0_L1D_prefetch_accuracy 0
Core_0_L1D_prefetch_coverage 0

Core_0_L2C_total_access 1262986
Core_0_L2C_total_hit 534133
Core_0_L2C_total_miss 728853
Core_0_L2C_total_MPKI 7.28853
Core_0_L2C_total_miss_rate 0.577087
Core_0_L2C_demand_access 1062894
Core_0_L2C_demand_hit 334456
Core_0_L2C_demand_miss 728438
Core_0_L2C_demand_MPKI 7.28438
Core_0_L2C_demand_miss_rate 0.685335
Core_0_L2C_load_access 993324
Core_0_L2C_load_hit 329071
Core_0_L2C_load_miss 664253
Core_0_L2C_load_MPKI 6.64253
Core_0_L2C_load_miss_rate 0.668717
Core_0_L2C_rfo_access 69570
Core_0_L2C_rfo_hit 5385
Core_0_L2C_rfo_miss 64185
Core_0_L2C_rfo_MPKI 0.64185
Core_0_L2C_rfo_miss_rate 0.922596
Core_0_L2C_prefetch_access 0
Core_0_L2C_prefetch_hit 0
Core_0_L2C_prefetch_miss 0
Core_0_L2C_prefetch_MPKI 0
Core_0_L2C_prefetch_miss_rate 0
Core_0_L2C_writeback_access 200092
Core_0_L2C_writeback_hit 199677
Core_0_L2C_writeback_miss 415
Core_0_L2C_writeback_MPKI 0.00415
Core_0_L2C_writeback_miss_rate 0.00207405
Core_0_L2C_prefetch_requested 0
Core_0_L2C_prefetch_issued 0
Core_0_L2C_prefetch_useful 0
Core_0_L2C_prefetch_useless 0
Core_0_L2C_prefetch_late 0
Core_0_L2C_prefetch_accuracy 0
Core_0_L2C_prefetch_coverage 0

Core_0_LLC_total_access 921388
Core_0_LLC_total_hit 396882
Core_0_LLC_total_miss 524506
Core_0_LLC_total_MPKI 5.24506
Core_0_LLC_total_miss_rate 0.569256
Core_0_LLC_demand_access 728438
Core_0_LLC_demand_hit 225870
Core_0_LLC_demand_miss 502568
Core_0_LLC_demand_MPKI 5.02568
Core_0_LLC_demand_miss_rate 0.689926
Core_0_LLC_load_access 664253
Core_0_LLC_load_hit 225780
Core_0_LLC_load_miss 438473
Core_0_LLC_load_MPKI 4.38473
Core_0_LLC_load_miss_rate 0.660099
Core_0_LLC_rfo_access 64185
Core_0_LLC_rfo_hit 90
Core_0_LLC_rfo_miss 64095
Core_0_LLC_rfo_MPKI 0.64095
Core_0_LLC_rfo_miss_rate 0.998598
Core_0_LLC_prefetch_access 0
Core_0_LLC_prefetch_hit 0
Core_0_LLC_prefetch_miss 0
Core_0_LLC_prefetch_MPKI 0
Core_0_LLC_prefetch_miss_rate 0
Core_0_LLC_writeback_access 192950
Core_0_LLC_writeback_hit 171012
Core_0_LLC_writeback_miss 21938
Core_0_LLC_writeback_MPKI 0.21938
Core_0_LLC_writeback_miss_rate 0.113698
Core_0_LLC_prefetch_requested 0
Core_0_LLC_prefetch_issued 0
Core_0_LLC_prefetch_useful 0
Core_0_LLC_prefetch_useless 0
Core_0_LLC_prefetch_late 0
Core_0_LLC_prefetch_accuracy 0
Core_0_LLC_prefetch_coverage 0

[DRAM Statistics]
Channel_0_RQ_row_buffer_hit 175
Channel_0_RQ_row_buffer_miss 503770
Channel_0_WQ_row_buffer_hit 75687
Channel_0_WQ_row_buffer_miss 114282
Channel_0_WQ_full 0
Channel_0_dbus_congested 2474708
DRAM_total_RQ_row_buffer_hit 175
DRAM_total_RQ_row_buffer_miss 503770
DRAM_total_WQ_row_buffer_hit 75687
DRAM_total_WQ_row_buffer_miss 114282
DRAM_total_WQ_full 0
DRAM_total_dbus_congested 2474708
DRAM_avg_congested_cycle 22.1811

====== DRAM_RQ_TRAFFIC ========
DRAM_RQ_READ_TRAFFIC_BREAKDOWN:
data_demand_read.count = 502525
data_demand_read.share = 99.72%

inst_demand_read.count = 43
inst_demand_read.share = 0.01%

cache_inst_prefetch.count = 0
cache_inst_prefetch.share = 0.00%

cache_data_prefetch.count = 0
cache_data_prefetch.share = 0.00%

stlb_data_demand.count = 1372
stlb_data_demand.share = 0.27%

stlb_inst_demand.count = 5
stlb_inst_demand.share = 0.00%

stlb_l1i_pref.count = 0
stlb_l1i_pref.share = 0.00%

stlb_l1d_pref.count = 0
stlb_l1d_pref.share = 0.00%

DRAM_RQ_READ_TRAFFIC_SUMMARY:
cache_demand.count = 502568
cache_demand.share = 99.73%

cache_prefetch.count = 0
cache_prefetch.share = 0.00%

stlb_demand.count = 1377
stlb_demand.share = 0.27%

stlb_prefetch.count = 0
stlb_prefetch.share = 0.00%

DRAM_RQ_READ_TRAFFIC_DEBUG:
total_classified_read.count = 503945
unclassified_read.count = 0
total_read_with_other.count = 503945

classified_plus_unclassified_check.count = 503945
dram_rq_read_total_observed.count = 503945
dram_rq_read_total_observed.per_1K_instructions = 5.03945

STLB_MISS_PTW_DRAM_TOUCH_BREAKDOWN:
stlb_miss_total.count = 164350

stlb_miss_touch_dram.count = 1374
stlb_miss_touch_dram.share = 0.84%

stlb_miss_no_dram_touch.count = 162976
stlb_miss_no_dram_touch.share = 99.16%

STLB_MISS_PTW_DRAM_TOUCH_DEBUG:
stlb_miss_touch_plus_no_touch.count = 164350
stlb_miss_total_check.count = 164350

======STLB miss causes ========
Core_0_STLB_miss_cause_breakdown
Core_0_STLB_cause_Demand_Data_miss 164296
Core_0_STLB_cause_Demand_Data_miss_rate 0.256824
Core_0_STLB_cause_Demand_Instruction_miss 54
Core_0_STLB_cause_Demand_Instruction_miss_rate 8.44115e-05
Core_0_STLB_cause_L1D_Prefetch_miss 0
Core_0_STLB_cause_L1D_Prefetch_miss_rate 0
Core_0_STLB_cause_L1I_Prefetch_miss 0
Core_0_STLB_cause_L1I_Prefetch_miss_rate 0
Core_0_STLB_cause_Other_miss 0
Core_0_STLB_cause_Other_miss_rate 0
Core_0_STLB_Demand_miss 164350
Core_0_STLB_Demand_miss_rate 0.256908
Core_0_STLB_L1D_Prefetch_miss 0
Core_0_STLB_L1D_Prefetch_miss_rate 0
Core_0_STLB_Other_miss 0
Core_0_STLB_Other_miss_rate 0
