[VMEM] WARNING: physical memory size is smaller than virtual memory size.

*** ChampSim Multicore Out-of-Order Simulator ***
Warmup Instructions: 50000000
Simulation Instructions: 100000000
Number of CPUs: 1
Page size: 4096
Core 0: /data0/tzh/champsim_traces/PARSEC/parsec_2.1.facesim.simlarge.prebuilt.drop_5000M.length_250M.champsimtrace.xz
Off-chip DRAM Size: 16 GiB Channels: 1 Width: 64-bit Data Rate: 3205 MT/s
Warmup halting CPU 0 at instruction 50000001 cycle 28843660 for remainder of phase
Warmup finished CPU 0 instructions: 50000001 cycles: 28843660 cumulative IPC: 1.733 (Simulation time: 00 hr 03 min 39 sec)
Warmup complete CPU 0 instructions: 50000001 cycles: 28843660 cumulative IPC: 1.733 (Simulation time: 00 hr 03 min 39 sec)
Simulation finished CPU 0 instructions: 100000004 cycles: 43049177 cumulative IPC: 2.323 (Simulation time: 00 hr 11 min 22 sec)
Simulation complete CPU 0 instructions: 100000004 cycles: 43049177 cumulative IPC: 2.323 (Simulation time: 00 hr 11 min 22 sec)

ChampSim completed all CPUs

=== Simulation ===
CPU 0 runs /data0/tzh/champsim_traces/PARSEC/parsec_2.1.facesim.simlarge.prebuilt.drop_5000M.length_250M.champsimtrace.xz

Region of Interest Statistics

CPU 0 cumulative IPC: 2.323 instructions: 100000004 cycles: 43049177
CPU 0 Branch Prediction Accuracy: 98.92% MPKI: 0.3276 Average ROB Occupancy at Mispredict: 156.6
Branch type MPKI
BRANCH_DIRECT_JUMP: 1e-05
BRANCH_INDIRECT: 0
BRANCH_CONDITIONAL: 0.3276
BRANCH_DIRECT_CALL: 0
BRANCH_INDIRECT_CALL: 0
BRANCH_RETURN: 0

cpu0->cpu0_STLB TOTAL        ACCESS:     118431 HIT:     118400 MISS:         31 MSHR_MERGE:          0
cpu0->cpu0_STLB LOAD         ACCESS:     118431 HIT:     118400 MISS:         31 MSHR_MERGE:          0
cpu0->cpu0_STLB RFO          ACCESS:          0 HIT:          0 MISS:          0 MSHR_MERGE:          0
cpu0->cpu0_STLB PREFETCH     ACCESS:          0 HIT:          0 MISS:          0 MSHR_MERGE:          0
cpu0->cpu0_STLB WRITE        ACCESS:          0 HIT:          0 MISS:          0 MSHR_MERGE:          0
cpu0->cpu0_STLB TRANSLATION  ACCESS:          0 HIT:          0 MISS:          0 MSHR_MERGE:          0
cpu0->cpu0_STLB PREFETCH REQUESTED:          0 ISSUED:          0 USEFUL:          0 USELESS:          0 LATE:          0
cpu0->cpu0_STLB AVERAGE MISS LATENCY: 277.4 cycles
cpu0->cpu0_L2C TOTAL        ACCESS:   24303572 HIT:   24184482 MISS:     119090 MSHR_MERGE:          0
cpu0->cpu0_L2C LOAD         ACCESS:   16132474 HIT:   16013481 MISS:     118993 MSHR_MERGE:          0
cpu0->cpu0_L2C RFO          ACCESS:      66882 HIT:      66800 MISS:         82 MSHR_MERGE:          0
cpu0->cpu0_L2C PREFETCH     ACCESS:          0 HIT:          0 MISS:          0 MSHR_MERGE:          0
cpu0->cpu0_L2C WRITE        ACCESS:    8104185 HIT:    8104185 MISS:          0 MSHR_MERGE:          0
cpu0->cpu0_L2C TRANSLATION  ACCESS:         31 HIT:         16 MISS:         15 MSHR_MERGE:          0
cpu0->cpu0_L2C PREFETCH REQUESTED:          0 ISSUED:          0 USEFUL:          0 USELESS:          0 LATE:          0
cpu0->cpu0_L2C AVERAGE MISS LATENCY: 15.69 cycles
cpu0->cpu0_L1I TOTAL        ACCESS:   18358814 HIT:   18358814 MISS:          0 MSHR_MERGE:          0
cpu0->cpu0_L1I LOAD         ACCESS:   18358814 HIT:   18358814 MISS:          0 MSHR_MERGE:          0
cpu0->cpu0_L1I RFO          ACCESS:          0 HIT:          0 MISS:          0 MSHR_MERGE:          0
cpu0->cpu0_L1I PREFETCH     ACCESS:          0 HIT:          0 MISS:          0 MSHR_MERGE:          0
cpu0->cpu0_L1I WRITE        ACCESS:          0 HIT:          0 MISS:          0 MSHR_MERGE:          0
cpu0->cpu0_L1I TRANSLATION  ACCESS:          0 HIT:          0 MISS:          0 MSHR_MERGE:          0
cpu0->cpu0_L1I PREFETCH REQUESTED:          0 ISSUED:          0 USEFUL:          0 USELESS:          0 LATE:          0
cpu0->cpu0_L1I AVERAGE MISS LATENCY: - cycles
cpu0->cpu0_L1D TOTAL        ACCESS:   49012875 HIT:   32575991 MISS:   16436884 MSHR_MERGE:     237498
cpu0->cpu0_L1D LOAD         ACCESS:   16553959 HIT:     330545 MISS:   16223414 MSHR_MERGE:      90941
cpu0->cpu0_L1D RFO          ACCESS:          0 HIT:          0 MISS:          0 MSHR_MERGE:          0
cpu0->cpu0_L1D PREFETCH     ACCESS:          0 HIT:          0 MISS:          0 MSHR_MERGE:          0
cpu0->cpu0_L1D WRITE        ACCESS:   32458854 HIT:   32245415 MISS:     213439 MSHR_MERGE:     146557
cpu0->cpu0_L1D TRANSLATION  ACCESS:         62 HIT:         31 MISS:         31 MSHR_MERGE:          0
cpu0->cpu0_L1D PREFETCH REQUESTED:          0 ISSUED:          0 USEFUL:          0 USELESS:          0 LATE:          0
cpu0->cpu0_L1D AVERAGE MISS LATENCY: 12.04 cycles
cpu0->cpu0_ITLB TOTAL        ACCESS:   14620691 HIT:   14620691 MISS:          0 MSHR_MERGE:          0
cpu0->cpu0_ITLB LOAD         ACCESS:   14620691 HIT:   14620691 MISS:          0 MSHR_MERGE:          0
cpu0->cpu0_ITLB RFO          ACCESS:          0 HIT:          0 MISS:          0 MSHR_MERGE:          0
cpu0->cpu0_ITLB PREFETCH     ACCESS:          0 HIT:          0 MISS:          0 MSHR_MERGE:          0
cpu0->cpu0_ITLB WRITE        ACCESS:          0 HIT:          0 MISS:          0 MSHR_MERGE:          0
cpu0->cpu0_ITLB TRANSLATION  ACCESS:          0 HIT:          0 MISS:          0 MSHR_MERGE:          0
cpu0->cpu0_ITLB PREFETCH REQUESTED:          0 ISSUED:          0 USEFUL:          0 USELESS:          0 LATE:          0
cpu0->cpu0_ITLB AVERAGE MISS LATENCY: - cycles
cpu0->cpu0_DTLB TOTAL        ACCESS:   41131322 HIT:   40904869 MISS:     226453 MSHR_MERGE:     108022
cpu0->cpu0_DTLB LOAD         ACCESS:   41131322 HIT:   40904869 MISS:     226453 MSHR_MERGE:     108022
cpu0->cpu0_DTLB RFO          ACCESS:          0 HIT:          0 MISS:          0 MSHR_MERGE:          0
cpu0->cpu0_DTLB PREFETCH     ACCESS:          0 HIT:          0 MISS:          0 MSHR_MERGE:          0
cpu0->cpu0_DTLB WRITE        ACCESS:          0 HIT:          0 MISS:          0 MSHR_MERGE:          0
cpu0->cpu0_DTLB TRANSLATION  ACCESS:          0 HIT:          0 MISS:          0 MSHR_MERGE:          0
cpu0->cpu0_DTLB PREFETCH REQUESTED:          0 ISSUED:          0 USEFUL:          0 USELESS:          0 LATE:          0
cpu0->cpu0_DTLB AVERAGE MISS LATENCY: 5.073 cycles
cpu0->LLC TOTAL        ACCESS:     237618 HIT:     237348 MISS:        270 MSHR_MERGE:          0
cpu0->LLC LOAD         ACCESS:     118993 HIT:     118767 MISS:        226 MSHR_MERGE:          0
cpu0->LLC RFO          ACCESS:         82 HIT:         49 MISS:         33 MSHR_MERGE:          0
cpu0->LLC PREFETCH     ACCESS:          0 HIT:          0 MISS:          0 MSHR_MERGE:          0
cpu0->LLC WRITE        ACCESS:     118528 HIT:     118528 MISS:          0 MSHR_MERGE:          0
cpu0->LLC TRANSLATION  ACCESS:         15 HIT:          4 MISS:         11 MSHR_MERGE:          0
cpu0->LLC PREFETCH REQUESTED:          0 ISSUED:          0 USEFUL:          0 USELESS:          0 LATE:          0
cpu0->LLC AVERAGE MISS LATENCY: 148.3 cycles

DRAM Statistics

Channel 0 RQ ROW_BUFFER_HIT:          0
  ROW_BUFFER_MISS:        270
  AVG DBUS CONGESTED CYCLE: -
Channel 0 WQ ROW_BUFFER_HIT:          0
  ROW_BUFFER_MISS:          0
  FULL:          0
Channel 0 REFRESHES ISSUED:       3588

[ROI Statistics]
[System Configuration]
num_cpus 1
cpu_freq 4000
fetch_width 6
decode_width 6
dispatch_width 6
execute_width 6
lq_width 2
sq_width 2
retire_width 6
scheduler_size 128
branch_mispredict_penalty 15
rob_size 352
lq_size 128
sq_size 72
ifetch_buffer_size 64
decode_buffer_size 32
dispatch_buffer_size 32
register_file_size 288
decode_latency 1
dispatch_latency 1
schedule_latency 1
execute_latency 1
page_size 4096
block_size 64
core_0_itlb_set 16
core_0_itlb_way 4
core_0_itlb_rq_size 16
core_0_itlb_wq_size 16
core_0_itlb_pq_size 0
core_0_itlb_mshr_size 8
core_0_itlb_hit_latency 1
core_0_itlb_fill_latency 1
core_0_itlb_max_tag_check 2
core_0_itlb_max_fill 2
core_0_dtlb_set 16
core_0_dtlb_way 4
core_0_dtlb_rq_size 16
core_0_dtlb_wq_size 16
core_0_dtlb_pq_size 0
core_0_dtlb_mshr_size 8
core_0_dtlb_hit_latency 1
core_0_dtlb_fill_latency 1
core_0_dtlb_max_tag_check 2
core_0_dtlb_max_fill 2
core_0_stlb_set 128
core_0_stlb_way 12
core_0_stlb_rq_size 32
core_0_stlb_wq_size 32
core_0_stlb_pq_size 0
core_0_stlb_mshr_size 16
core_0_stlb_hit_latency 4
core_0_stlb_fill_latency 4
core_0_stlb_max_tag_check 1
core_0_stlb_max_fill 1
core_0_l1i_set 64
core_0_l1i_way 8
core_0_l1i_rq_size 64
core_0_l1i_wq_size 64
core_0_l1i_pq_size 32
core_0_l1i_mshr_size 8
core_0_l1i_hit_latency 2
core_0_l1i_fill_latency 2
core_0_l1i_max_tag_check 2
core_0_l1i_max_fill 2
core_0_l1d_set 64
core_0_l1d_way 12
core_0_l1d_rq_size 64
core_0_l1d_wq_size 64
core_0_l1d_pq_size 8
core_0_l1d_mshr_size 16
core_0_l1d_hit_latency 2
core_0_l1d_fill_latency 3
core_0_l1d_max_tag_check 2
core_0_l1d_max_fill 2
core_0_l2c_set 1024
core_0_l2c_way 8
core_0_l2c_rq_size 32
core_0_l2c_wq_size 32
core_0_l2c_pq_size 16
core_0_l2c_mshr_size 32
core_0_l2c_hit_latency 5
core_0_l2c_fill_latency 5
core_0_l2c_max_tag_check 1
core_0_l2c_max_fill 1
llc_set 2048
llc_way 16
llc_rq_size 32
llc_wq_size 32
llc_pq_size 32
llc_mshr_size 64
llc_hit_latency 10
llc_fill_latency 10
llc_max_tag_check 1
llc_max_fill 1
dram_channels 1
dram_ranks 1
dram_bankgroups 8
dram_banks 4
dram_rows 65536
dram_columns 1024
dram_channel_width 8
dram_rq_size 64
dram_wq_size 64
dram_size 17179869184
core_0_itlb_prefetcher no
core_0_dtlb_prefetcher no
core_0_stlb_prefetcher no
core_0_l1i_prefetcher no
core_0_l1d_prefetcher no
core_0_l2c_prefetcher no
llc_prefetcher no
llc_replacement drrip

Core_0_instructions 100000004
Core_0_cycles 43049177
Core_0_IPC 2.32292
Core_0_branch_prediction_accuracy 98.9152
Core_0_branch_MPKI 0.32765
Core_0_average_ROB_occupancy_at_mispredict 156.554

Core_0_ITLB_total_access 14620691
Core_0_ITLB_total_hit 14620691
Core_0_ITLB_total_miss 0
Core_0_ITLB_total_MPKI 0
Core_0_ITLB_total_miss_rate 0
Core_0_ITLB_demand_access 14620691
Core_0_ITLB_demand_hit 14620691
Core_0_ITLB_demand_miss 0
Core_0_ITLB_demand_MPKI 0
Core_0_ITLB_demand_miss_rate 0
Core_0_ITLB_load_access 14620691
Core_0_ITLB_load_hit 14620691
Core_0_ITLB_load_miss 0
Core_0_ITLB_load_MPKI 0
Core_0_ITLB_load_miss_rate 0
Core_0_ITLB_rfo_access 0
Core_0_ITLB_rfo_hit 0
Core_0_ITLB_rfo_miss 0
Core_0_ITLB_rfo_MPKI 0
Core_0_ITLB_rfo_miss_rate 0
Core_0_ITLB_prefetch_access 0
Core_0_ITLB_prefetch_hit 0
Core_0_ITLB_prefetch_miss 0
Core_0_ITLB_prefetch_MPKI 0
Core_0_ITLB_prefetch_miss_rate 0
Core_0_ITLB_writeback_access 0
Core_0_ITLB_writeback_hit 0
Core_0_ITLB_writeback_miss 0
Core_0_ITLB_writeback_MPKI 0
Core_0_ITLB_writeback_miss_rate 0
Core_0_ITLB_prefetch_requested 0
Core_0_ITLB_prefetch_issued 0
Core_0_ITLB_prefetch_useful 0
Core_0_ITLB_prefetch_useless 0
Core_0_ITLB_prefetch_late 0
Core_0_ITLB_prefetch_accuracy 0
Core_0_ITLB_prefetch_coverage 0

Core_0_DTLB_total_access 41131322
Core_0_DTLB_total_hit 40904869
Core_0_DTLB_total_miss 226453
Core_0_DTLB_total_MPKI 2.26453
Core_0_DTLB_total_miss_rate 0.00550561
Core_0_DTLB_demand_access 41131322
Core_0_DTLB_demand_hit 40904869
Core_0_DTLB_demand_miss 226453
Core_0_DTLB_demand_MPKI 2.26453
Core_0_DTLB_demand_miss_rate 0.00550561
Core_0_DTLB_load_access 41131322
Core_0_DTLB_load_hit 40904869
Core_0_DTLB_load_miss 226453
Core_0_DTLB_load_MPKI 2.26453
Core_0_DTLB_load_miss_rate 0.00550561
Core_0_DTLB_rfo_access 0
Core_0_DTLB_rfo_hit 0
Core_0_DTLB_rfo_miss 0
Core_0_DTLB_rfo_MPKI 0
Core_0_DTLB_rfo_miss_rate 0
Core_0_DTLB_prefetch_access 0
Core_0_DTLB_prefetch_hit 0
Core_0_DTLB_prefetch_miss 0
Core_0_DTLB_prefetch_MPKI 0
Core_0_DTLB_prefetch_miss_rate 0
Core_0_DTLB_writeback_access 0
Core_0_DTLB_writeback_hit 0
Core_0_DTLB_writeback_miss 0
Core_0_DTLB_writeback_MPKI 0
Core_0_DTLB_writeback_miss_rate 0
Core_0_DTLB_prefetch_requested 0
Core_0_DTLB_prefetch_issued 0
Core_0_DTLB_prefetch_useful 0
Core_0_DTLB_prefetch_useless 0
Core_0_DTLB_prefetch_late 0
Core_0_DTLB_prefetch_accuracy 0
Core_0_DTLB_prefetch_coverage 0

Core_0_STLB_total_access 118431
Core_0_STLB_total_hit 118400
Core_0_STLB_total_miss 31
Core_0_STLB_total_MPKI 0.00031
Core_0_STLB_total_miss_rate 0.000261756
Core_0_STLB_demand_access 118431
Core_0_STLB_demand_hit 118400
Core_0_STLB_demand_miss 31
Core_0_STLB_demand_MPKI 0.00031
Core_0_STLB_demand_miss_rate 0.000261756
Core_0_STLB_load_access 118431
Core_0_STLB_load_hit 118400
Core_0_STLB_load_miss 31
Core_0_STLB_load_MPKI 0.00031
Core_0_STLB_load_miss_rate 0.000261756
Core_0_STLB_rfo_access 0
Core_0_STLB_rfo_hit 0
Core_0_STLB_rfo_miss 0
Core_0_STLB_rfo_MPKI 0
Core_0_STLB_rfo_miss_rate 0
Core_0_STLB_prefetch_access 0
Core_0_STLB_prefetch_hit 0
Core_0_STLB_prefetch_miss 0
Core_0_STLB_prefetch_MPKI 0
Core_0_STLB_prefetch_miss_rate 0
Core_0_STLB_writeback_access 0
Core_0_STLB_writeback_hit 0
Core_0_STLB_writeback_miss 0
Core_0_STLB_writeback_MPKI 0
Core_0_STLB_writeback_miss_rate 0
Core_0_STLB_prefetch_requested 0
Core_0_STLB_prefetch_issued 0
Core_0_STLB_prefetch_useful 0
Core_0_STLB_prefetch_useless 0
Core_0_STLB_prefetch_late 0
Core_0_STLB_prefetch_accuracy 0
Core_0_STLB_prefetch_coverage 0

Core_0_L1I_total_access 18358814
Core_0_L1I_total_hit 18358814
Core_0_L1I_total_miss 0
Core_0_L1I_total_MPKI 0
Core_0_L1I_total_miss_rate 0
Core_0_L1I_demand_access 18358814
Core_0_L1I_demand_hit 18358814
Core_0_L1I_demand_miss 0
Core_0_L1I_demand_MPKI 0
Core_0_L1I_demand_miss_rate 0
Core_0_L1I_load_access 18358814
Core_0_L1I_load_hit 18358814
Core_0_L1I_load_miss 0
Core_0_L1I_load_MPKI 0
Core_0_L1I_load_miss_rate 0
Core_0_L1I_rfo_access 0
Core_0_L1I_rfo_hit 0
Core_0_L1I_rfo_miss 0
Core_0_L1I_rfo_MPKI 0
Core_0_L1I_rfo_miss_rate 0
Core_0_L1I_prefetch_access 0
Core_0_L1I_prefetch_hit 0
Core_0_L1I_prefetch_miss 0
Core_0_L1I_prefetch_MPKI 0
Core_0_L1I_prefetch_miss_rate 0
Core_0_L1I_writeback_access 0
Core_0_L1I_writeback_hit 0
Core_0_L1I_writeback_miss 0
Core_0_L1I_writeback_MPKI 0
Core_0_L1I_writeback_miss_rate 0
Core_0_L1I_prefetch_requested 0
Core_0_L1I_prefetch_issued 0
Core_0_L1I_prefetch_useful 0
Core_0_L1I_prefetch_useless 0
Core_0_L1I_prefetch_late 0
Core_0_L1I_prefetch_accuracy 0
Core_0_L1I_prefetch_coverage 0

Core_0_L1D_total_access 49012813
Core_0_L1D_total_hit 32575960
Core_0_L1D_total_miss 16436853
Core_0_L1D_total_MPKI 164.369
Core_0_L1D_total_miss_rate 0.335358
Core_0_L1D_demand_access 16553959
Core_0_L1D_demand_hit 330545
Core_0_L1D_demand_miss 16223414
Core_0_L1D_demand_MPKI 162.234
Core_0_L1D_demand_miss_rate 0.980032
Core_0_L1D_load_access 16553959
Core_0_L1D_load_hit 330545
Core_0_L1D_load_miss 16223414
Core_0_L1D_load_MPKI 162.234
Core_0_L1D_load_miss_rate 0.980032
Core_0_L1D_rfo_access 0
Core_0_L1D_rfo_hit 0
Core_0_L1D_rfo_miss 0
Core_0_L1D_rfo_MPKI 0
Core_0_L1D_rfo_miss_rate 0
Core_0_L1D_prefetch_access 0
Core_0_L1D_prefetch_hit 0
Core_0_L1D_prefetch_miss 0
Core_0_L1D_prefetch_MPKI 0
Core_0_L1D_prefetch_miss_rate 0
Core_0_L1D_writeback_access 32458854
Core_0_L1D_writeback_hit 32245415
Core_0_L1D_writeback_miss 213439
Core_0_L1D_writeback_MPKI 2.13439
Core_0_L1D_writeback_miss_rate 0.00657568
Core_0_L1D_prefetch_requested 0
Core_0_L1D_prefetch_issued 0
Core_0_L1D_prefetch_useful 0
Core_0_L1D_prefetch_useless 0
Core_0_L1D_prefetch_late 0
Core_0_L1D_prefetch_accuracy 0
Core_0_L1D_prefetch_coverage 0

Core_0_L2C_total_access 24303541
Core_0_L2C_total_hit 24184466
Core_0_L2C_total_miss 119075
Core_0_L2C_total_MPKI 1.19075
Core_0_L2C_total_miss_rate 0.00489949
Core_0_L2C_demand_access 16199356
Core_0_L2C_demand_hit 16080281
Core_0_L2C_demand_miss 119075
Core_0_L2C_demand_MPKI 1.19075
Core_0_L2C_demand_miss_rate 0.0073506
Core_0_L2C_load_access 16132474
Core_0_L2C_load_hit 16013481
Core_0_L2C_load_miss 118993
Core_0_L2C_load_MPKI 1.18993
Core_0_L2C_load_miss_rate 0.00737599
Core_0_L2C_rfo_access 66882
Core_0_L2C_rfo_hit 66800
Core_0_L2C_rfo_miss 82
Core_0_L2C_rfo_MPKI 0.00082
Core_0_L2C_rfo_miss_rate 0.00122604
Core_0_L2C_prefetch_access 0
Core_0_L2C_prefetch_hit 0
Core_0_L2C_prefetch_miss 0
Core_0_L2C_prefetch_MPKI 0
Core_0_L2C_prefetch_miss_rate 0
Core_0_L2C_writeback_access 8104185
Core_0_L2C_writeback_hit 8104185
Core_0_L2C_writeback_miss 0
Core_0_L2C_writeback_MPKI 0
Core_0_L2C_writeback_miss_rate 0
Core_0_L2C_prefetch_requested 0
Core_0_L2C_prefetch_issued 0
Core_0_L2C_prefetch_useful 0
Core_0_L2C_prefetch_useless 0
Core_0_L2C_prefetch_late 0
Core_0_L2C_prefetch_accuracy 0
Core_0_L2C_prefetch_coverage 0

Core_0_LLC_total_access 237603
Core_0_LLC_total_hit 237344
Core_0_LLC_total_miss 259
Core_0_LLC_total_MPKI 0.00259
Core_0_LLC_total_miss_rate 0.00109005
Core_0_LLC_demand_access 119075
Core_0_LLC_demand_hit 118816
Core_0_LLC_demand_miss 259
Core_0_LLC_demand_MPKI 0.00259
Core_0_LLC_demand_miss_rate 0.0021751
Core_0_LLC_load_access 118993
Core_0_LLC_load_hit 118767
Core_0_LLC_load_miss 226
Core_0_LLC_load_MPKI 0.00226
Core_0_LLC_load_miss_rate 0.00189927
Core_0_LLC_rfo_access 82
Core_0_LLC_rfo_hit 49
Core_0_LLC_rfo_miss 33
Core_0_LLC_rfo_MPKI 0.00033
Core_0_LLC_rfo_miss_rate 0.402439
Core_0_LLC_prefetch_access 0
Core_0_LLC_prefetch_hit 0
Core_0_LLC_prefetch_miss 0
Core_0_LLC_prefetch_MPKI 0
Core_0_LLC_prefetch_miss_rate 0
Core_0_LLC_writeback_access 118528
Core_0_LLC_writeback_hit 118528
Core_0_LLC_writeback_miss 0
Core_0_LLC_writeback_MPKI 0
Core_0_LLC_writeback_miss_rate 0
Core_0_LLC_prefetch_requested 0
Core_0_LLC_prefetch_issued 0
Core_0_LLC_prefetch_useful 0
Core_0_LLC_prefetch_useless 0
Core_0_LLC_prefetch_late 0
Core_0_LLC_prefetch_accuracy 0
Core_0_LLC_prefetch_coverage 0

[DRAM Statistics]
Channel_0_RQ_row_buffer_hit 0
Channel_0_RQ_row_buffer_miss 270
Channel_0_WQ_row_buffer_hit 0
Channel_0_WQ_row_buffer_miss 0
Channel_0_WQ_full 0
Channel_0_dbus_congested 0
DRAM_total_RQ_row_buffer_hit 0
DRAM_total_RQ_row_buffer_miss 270
DRAM_total_WQ_row_buffer_hit 0
DRAM_total_WQ_row_buffer_miss 0
DRAM_total_WQ_full 0
DRAM_total_dbus_congested 0
DRAM_avg_congested_cycle 0

====== DRAM_RQ_TRAFFIC ========
DRAM_RQ_READ_TRAFFIC_BREAKDOWN:
data_demand_read.count = 259
data_demand_read.share = 95.93%

inst_demand_read.count = 0
inst_demand_read.share = 0.00%

cache_inst_prefetch.count = 0
cache_inst_prefetch.share = 0.00%

cache_data_prefetch.count = 0
cache_data_prefetch.share = 0.00%

stlb_data_demand.count = 11
stlb_data_demand.share = 4.07%

stlb_inst_demand.count = 0
stlb_inst_demand.share = 0.00%

stlb_l1i_pref.count = 0
stlb_l1i_pref.share = 0.00%

stlb_l1d_pref.count = 0
stlb_l1d_pref.share = 0.00%

DRAM_RQ_READ_TRAFFIC_SUMMARY:
cache_demand.count = 259
cache_demand.share = 95.93%

cache_prefetch.count = 0
cache_prefetch.share = 0.00%

stlb_demand.count = 11
stlb_demand.share = 4.07%

stlb_prefetch.count = 0
stlb_prefetch.share = 0.00%

DRAM_RQ_READ_TRAFFIC_DEBUG:
total_classified_read.count = 270
unclassified_read.count = 0
total_read_with_other.count = 270

classified_plus_unclassified_check.count = 270
dram_rq_read_total_observed.count = 270
dram_rq_read_total_observed.per_1K_instructions = 0.0027

STLB_MISS_PTW_DRAM_TOUCH_BREAKDOWN:
stlb_miss_total.count = 31

stlb_miss_touch_dram.count = 11
stlb_miss_touch_dram.share = 35.48%

stlb_miss_no_dram_touch.count = 20
stlb_miss_no_dram_touch.share = 64.52%

STLB_MISS_PTW_DRAM_TOUCH_DEBUG:
stlb_miss_touch_plus_no_touch.count = 31
stlb_miss_total_check.count = 31

======STLB miss causes ========
Core_0_STLB_miss_cause_breakdown
Core_0_STLB_cause_Demand_Data_miss 31
Core_0_STLB_cause_Demand_Data_miss_rate 0.000261756
Core_0_STLB_cause_Demand_Instruction_miss 0
Core_0_STLB_cause_Demand_Instruction_miss_rate 0
Core_0_STLB_cause_L1D_Prefetch_miss 0
Core_0_STLB_cause_L1D_Prefetch_miss_rate 0
Core_0_STLB_cause_L1I_Prefetch_miss 0
Core_0_STLB_cause_L1I_Prefetch_miss_rate 0
Core_0_STLB_cause_Other_miss 0
Core_0_STLB_cause_Other_miss_rate 0
Core_0_STLB_Demand_miss 31
Core_0_STLB_Demand_miss_rate 0.000261756
Core_0_STLB_L1D_Prefetch_miss 0
Core_0_STLB_L1D_Prefetch_miss_rate 0
Core_0_STLB_Other_miss 0
Core_0_STLB_Other_miss_rate 0
