[VMEM] WARNING: physical memory size is smaller than virtual memory size.

*** ChampSim Multicore Out-of-Order Simulator ***
Warmup Instructions: 50000000
Simulation Instructions: 100000000
Number of CPUs: 1
Page size: 4096
Core 0: /data2/zcq/champsim_traces_gap/pr.twitter-3197B.champsimtrace.xz
Off-chip DRAM Size: 16 GiB Channels: 1 Width: 64-bit Data Rate: 3205 MT/s
Warmup halting CPU 0 at instruction 50000000 cycle 22790876 for remainder of phase
Warmup finished CPU 0 instructions: 50000000 cycles: 22790876 cumulative IPC: 2.194 (Simulation time: 00 hr 05 min 31 sec)
Warmup complete CPU 0 instructions: 50000000 cycles: 22790876 cumulative IPC: 2.194 (Simulation time: 00 hr 05 min 31 sec)
Simulation CPU 0 warning: IPC 0.031757 < 0.05
Simulation CPU 0 warning: IPC 0.032735 < 0.05
Simulation CPU 0 warning: IPC 0.034606 < 0.05
Simulation CPU 0 warning: IPC 0.033302 < 0.05
Simulation CPU 0 warning: IPC 0.034268 < 0.05
Simulation CPU 0 warning: IPC 0.029644 < 0.05
Simulation CPU 0 warning: IPC 0.028222 < 0.05
Simulation CPU 0 warning: IPC 0.032635 < 0.05
Simulation CPU 0 warning: IPC 0.032233 < 0.05
Simulation CPU 0 warning: IPC 0.033059 < 0.05
Simulation CPU 0 warning: IPC 0.031989 < 0.05
Simulation CPU 0 warning: IPC 0.027623 < 0.05
Simulation CPU 0 warning: IPC 0.029736 < 0.05
Simulation CPU 0 warning: IPC 0.028192 < 0.05
Simulation CPU 0 warning: IPC 0.029924 < 0.05
Simulation CPU 0 warning: IPC 0.0286 < 0.05
Simulation CPU 0 warning: IPC 0.026613 < 0.05
Simulation CPU 0 warning: IPC 0.029266 < 0.05
Simulation CPU 0 warning: IPC 0.028498 < 0.05
Simulation CPU 0 warning: IPC 0.030782 < 0.05
Simulation CPU 0 warning: IPC 0.029161 < 0.05
Simulation CPU 0 warning: IPC 0.030568 < 0.05
Simulation CPU 0 warning: IPC 0.030137 < 0.05
Simulation CPU 0 warning: IPC 0.029705 < 0.05
Simulation CPU 0 warning: IPC 0.028498 < 0.05
Simulation CPU 0 warning: IPC 0.03069 < 0.05
Simulation CPU 0 warning: IPC 0.033102 < 0.05
Simulation CPU 0 warning: IPC 0.029951 < 0.05
Simulation CPU 0 warning: IPC 0.026976 < 0.05
Simulation CPU 0 warning: IPC 0.0299 < 0.05
Simulation CPU 0 warning: IPC 0.030628 < 0.05
Simulation CPU 0 warning: IPC 0.031315 < 0.05
Simulation CPU 0 warning: IPC 0.028176 < 0.05
Simulation CPU 0 warning: IPC 0.027222 < 0.05
Simulation CPU 0 warning: IPC 0.031108 < 0.05
Simulation CPU 0 warning: IPC 0.030971 < 0.05
Simulation CPU 0 warning: IPC 0.031697 < 0.05
Simulation CPU 0 warning: IPC 0.033295 < 0.05
Simulation CPU 0 warning: IPC 0.030531 < 0.05
Simulation CPU 0 warning: IPC 0.038342 < 0.05
Simulation CPU 0 warning: IPC 0.033805 < 0.05
Simulation CPU 0 warning: IPC 0.032186 < 0.05
Simulation CPU 0 warning: IPC 0.032696 < 0.05
Simulation CPU 0 warning: IPC 0.03367 < 0.05
Simulation CPU 0 warning: IPC 0.032677 < 0.05
Simulation CPU 0 warning: IPC 0.030998 < 0.05
Simulation CPU 0 warning: IPC 0.030705 < 0.05
Simulation CPU 0 warning: IPC 0.03096 < 0.05
Simulation CPU 0 warning: IPC 0.031227 < 0.05
Simulation CPU 0 warning: IPC 0.031142 < 0.05
Simulation CPU 0 warning: IPC 0.03093 < 0.05
Simulation CPU 0 warning: IPC 0.030053 < 0.05
Simulation CPU 0 warning: IPC 0.030533 < 0.05
Simulation CPU 0 warning: IPC 0.030252 < 0.05
Simulation CPU 0 warning: IPC 0.032609 < 0.05
Simulation CPU 0 warning: IPC 0.030452 < 0.05
Simulation CPU 0 warning: IPC 0.030319 < 0.05
Simulation CPU 0 warning: IPC 0.032942 < 0.05
Simulation CPU 0 warning: IPC 0.029833 < 0.05
Simulation CPU 0 warning: IPC 0.030919 < 0.05
Simulation CPU 0 warning: IPC 0.028235 < 0.05
Simulation CPU 0 warning: IPC 0.034925 < 0.05
Simulation CPU 0 warning: IPC 0.034212 < 0.05
Simulation CPU 0 warning: IPC 0.029261 < 0.05
Simulation CPU 0 warning: IPC 0.032475 < 0.05
Simulation CPU 0 warning: IPC 0.02949 < 0.05
Simulation CPU 0 warning: IPC 0.029353 < 0.05
Simulation CPU 0 warning: IPC 0.033078 < 0.05
Simulation CPU 0 warning: IPC 0.032888 < 0.05
Simulation CPU 0 warning: IPC 0.030194 < 0.05
Simulation CPU 0 warning: IPC 0.034887 < 0.05
Simulation CPU 0 warning: IPC 0.033032 < 0.05
Simulation CPU 0 warning: IPC 0.030535 < 0.05
Simulation CPU 0 warning: IPC 0.028617 < 0.05
Simulation CPU 0 warning: IPC 0.034157 < 0.05
Simulation CPU 0 warning: IPC 0.030685 < 0.05
Simulation CPU 0 warning: IPC 0.030079 < 0.05
Simulation CPU 0 warning: IPC 0.03152 < 0.05
Simulation CPU 0 warning: IPC 0.02918 < 0.05
Simulation CPU 0 warning: IPC 0.031919 < 0.05
Simulation CPU 0 warning: IPC 0.031254 < 0.05
Simulation CPU 0 warning: IPC 0.029177 < 0.05
Simulation CPU 0 warning: IPC 0.033476 < 0.05
Simulation CPU 0 warning: IPC 0.030904 < 0.05
Simulation CPU 0 warning: IPC 0.032586 < 0.05
Simulation CPU 0 warning: IPC 0.031618 < 0.05
Simulation CPU 0 warning: IPC 0.031309 < 0.05
Simulation CPU 0 warning: IPC 0.030827 < 0.05
Simulation CPU 0 warning: IPC 0.031431 < 0.05
Simulation CPU 0 warning: IPC 0.030048 < 0.05
Simulation CPU 0 warning: IPC 0.028156 < 0.05
Simulation CPU 0 warning: IPC 0.027591 < 0.05
Simulation CPU 0 warning: IPC 0.030507 < 0.05
Simulation CPU 0 warning: IPC 0.029621 < 0.05
Simulation CPU 0 warning: IPC 0.026187 < 0.05
Simulation CPU 0 warning: IPC 0.031159 < 0.05
Simulation CPU 0 warning: IPC 0.031189 < 0.05
Simulation CPU 0 warning: IPC 0.031815 < 0.05
Simulation CPU 0 warning: IPC 0.028304 < 0.05
Simulation CPU 0 warning: IPC 0.029086 < 0.05
Simulation CPU 0 warning: IPC 0.02937 < 0.05
Simulation CPU 0 warning: IPC 0.033158 < 0.05
Simulation CPU 0 warning: IPC 0.026888 < 0.05
Simulation CPU 0 warning: IPC 0.033426 < 0.05
Simulation CPU 0 warning: IPC 0.029838 < 0.05
Simulation CPU 0 warning: IPC 0.029285 < 0.05
Simulation CPU 0 warning: IPC 0.032655 < 0.05
Simulation CPU 0 warning: IPC 0.031963 < 0.05
Simulation CPU 0 warning: IPC 0.031824 < 0.05
Simulation CPU 0 warning: IPC 0.030335 < 0.05
Simulation CPU 0 warning: IPC 0.034047 < 0.05
Simulation CPU 0 warning: IPC 0.030915 < 0.05
Simulation CPU 0 warning: IPC 0.034642 < 0.05
Simulation CPU 0 warning: IPC 0.03258 < 0.05
Simulation CPU 0 warning: IPC 0.031209 < 0.05
Simulation CPU 0 warning: IPC 0.029381 < 0.05
Simulation CPU 0 warning: IPC 0.03077 < 0.05
Simulation CPU 0 warning: IPC 0.032642 < 0.05
Simulation CPU 0 warning: IPC 0.029208 < 0.05
Simulation CPU 0 warning: IPC 0.028675 < 0.05
Simulation CPU 0 warning: IPC 0.031512 < 0.05
Simulation CPU 0 warning: IPC 0.026049 < 0.05
Simulation CPU 0 warning: IPC 0.029885 < 0.05
Simulation CPU 0 warning: IPC 0.032019 < 0.05
Simulation CPU 0 warning: IPC 0.031773 < 0.05
Simulation CPU 0 warning: IPC 0.026431 < 0.05
Simulation CPU 0 warning: IPC 0.029306 < 0.05
Simulation CPU 0 warning: IPC 0.028668 < 0.05
Simulation CPU 0 warning: IPC 0.029091 < 0.05
Simulation CPU 0 warning: IPC 0.031761 < 0.05
Simulation CPU 0 warning: IPC 0.031052 < 0.05
Simulation CPU 0 warning: IPC 0.031065 < 0.05
Simulation CPU 0 warning: IPC 0.028379 < 0.05
Simulation CPU 0 warning: IPC 0.030866 < 0.05
Simulation CPU 0 warning: IPC 0.0299 < 0.05
Simulation CPU 0 warning: IPC 0.03007 < 0.05
Simulation CPU 0 warning: IPC 0.033274 < 0.05
Simulation CPU 0 warning: IPC 0.032241 < 0.05
Simulation CPU 0 warning: IPC 0.032957 < 0.05
Simulation CPU 0 warning: IPC 0.026073 < 0.05
Simulation CPU 0 warning: IPC 0.028406 < 0.05
Simulation CPU 0 warning: IPC 0.031282 < 0.05
Simulation CPU 0 warning: IPC 0.029689 < 0.05
Simulation CPU 0 warning: IPC 0.032146 < 0.05
Simulation CPU 0 warning: IPC 0.033739 < 0.05
Simulation CPU 0 warning: IPC 0.031748 < 0.05
Simulation CPU 0 warning: IPC 0.031132 < 0.05
Simulation CPU 0 warning: IPC 0.034719 < 0.05
Simulation CPU 0 warning: IPC 0.0308 < 0.05
Simulation CPU 0 warning: IPC 0.030571 < 0.05
Simulation CPU 0 warning: IPC 0.031742 < 0.05
Simulation CPU 0 warning: IPC 0.031303 < 0.05
Simulation CPU 0 warning: IPC 0.030425 < 0.05
Simulation CPU 0 warning: IPC 0.029699 < 0.05
Simulation CPU 0 warning: IPC 0.029343 < 0.05
Simulation CPU 0 warning: IPC 0.032472 < 0.05
Simulation CPU 0 warning: IPC 0.031828 < 0.05
Simulation CPU 0 warning: IPC 0.032747 < 0.05
Simulation CPU 0 warning: IPC 0.028958 < 0.05
Simulation CPU 0 warning: IPC 0.032262 < 0.05
Simulation CPU 0 warning: IPC 0.032345 < 0.05
Simulation CPU 0 warning: IPC 0.030165 < 0.05
Simulation CPU 0 warning: IPC 0.034384 < 0.05
Simulation CPU 0 warning: IPC 0.033124 < 0.05
Simulation CPU 0 warning: IPC 0.034881 < 0.05
Simulation CPU 0 warning: IPC 0.035434 < 0.05
Simulation CPU 0 warning: IPC 0.032926 < 0.05
Simulation CPU 0 warning: IPC 0.032095 < 0.05
Simulation CPU 0 warning: IPC 0.03181 < 0.05
Simulation CPU 0 warning: IPC 0.032438 < 0.05
Simulation CPU 0 warning: IPC 0.033168 < 0.05
Simulation CPU 0 warning: IPC 0.033699 < 0.05
Simulation CPU 0 warning: IPC 0.032802 < 0.05
Simulation CPU 0 warning: IPC 0.027363 < 0.05
Simulation CPU 0 warning: IPC 0.02843 < 0.05
Simulation CPU 0 warning: IPC 0.028456 < 0.05
Simulation CPU 0 warning: IPC 0.031973 < 0.05
Simulation CPU 0 warning: IPC 0.033001 < 0.05
Simulation CPU 0 warning: IPC 0.028466 < 0.05
Simulation CPU 0 warning: IPC 0.031392 < 0.05
Simulation CPU 0 warning: IPC 0.033118 < 0.05
Simulation CPU 0 warning: IPC 0.029365 < 0.05
Simulation CPU 0 warning: IPC 0.03029 < 0.05
Simulation CPU 0 warning: IPC 0.03321 < 0.05
Simulation CPU 0 warning: IPC 0.031934 < 0.05
Simulation CPU 0 warning: IPC 0.032058 < 0.05
Simulation CPU 0 warning: IPC 0.034632 < 0.05
Simulation CPU 0 warning: IPC 0.031277 < 0.05
Simulation CPU 0 warning: IPC 0.03438 < 0.05
Simulation CPU 0 warning: IPC 0.033917 < 0.05
Simulation CPU 0 warning: IPC 0.029916 < 0.05
Simulation CPU 0 warning: IPC 0.029933 < 0.05
Simulation CPU 0 warning: IPC 0.033272 < 0.05
Simulation CPU 0 warning: IPC 0.03077 < 0.05
Simulation CPU 0 warning: IPC 0.032913 < 0.05
Simulation CPU 0 warning: IPC 0.032664 < 0.05
Simulation CPU 0 warning: IPC 0.03487 < 0.05
Simulation CPU 0 warning: IPC 0.032573 < 0.05
Simulation CPU 0 warning: IPC 0.032256 < 0.05
Simulation CPU 0 warning: IPC 0.032663 < 0.05
Simulation CPU 0 warning: IPC 0.035132 < 0.05
Simulation CPU 0 warning: IPC 0.036754 < 0.05
Simulation CPU 0 warning: IPC 0.036577 < 0.05
Simulation CPU 0 warning: IPC 0.036288 < 0.05
Simulation CPU 0 warning: IPC 0.034863 < 0.05
Simulation CPU 0 warning: IPC 0.031364 < 0.05
Simulation CPU 0 warning: IPC 0.033155 < 0.05
Simulation CPU 0 warning: IPC 0.033586 < 0.05
Simulation CPU 0 warning: IPC 0.032376 < 0.05
Simulation CPU 0 warning: IPC 0.034089 < 0.05
Simulation CPU 0 warning: IPC 0.035168 < 0.05
Simulation CPU 0 warning: IPC 0.034339 < 0.05
Simulation CPU 0 warning: IPC 0.02982 < 0.05
Simulation CPU 0 warning: IPC 0.031826 < 0.05
Simulation CPU 0 warning: IPC 0.032905 < 0.05
Simulation CPU 0 warning: IPC 0.032249 < 0.05
Simulation CPU 0 warning: IPC 0.031627 < 0.05
Simulation CPU 0 warning: IPC 0.032266 < 0.05
Simulation CPU 0 warning: IPC 0.031606 < 0.05
Simulation CPU 0 warning: IPC 0.032322 < 0.05
Simulation CPU 0 warning: IPC 0.032976 < 0.05
Simulation CPU 0 warning: IPC 0.03174 < 0.05
Simulation CPU 0 warning: IPC 0.033373 < 0.05
Simulation CPU 0 warning: IPC 0.032295 < 0.05
Simulation CPU 0 warning: IPC 0.032586 < 0.05
Simulation CPU 0 warning: IPC 0.030766 < 0.05
Simulation CPU 0 warning: IPC 0.030944 < 0.05
Simulation CPU 0 warning: IPC 0.030278 < 0.05
Simulation CPU 0 warning: IPC 0.030326 < 0.05
Simulation CPU 0 warning: IPC 0.033073 < 0.05
Simulation CPU 0 warning: IPC 0.031552 < 0.05
Simulation CPU 0 warning: IPC 0.031279 < 0.05
Simulation CPU 0 warning: IPC 0.032197 < 0.05
Simulation CPU 0 warning: IPC 0.02823 < 0.05
Simulation CPU 0 warning: IPC 0.031578 < 0.05
Simulation CPU 0 warning: IPC 0.031305 < 0.05
Simulation CPU 0 warning: IPC 0.026223 < 0.05
Simulation CPU 0 warning: IPC 0.030085 < 0.05
Simulation CPU 0 warning: IPC 0.032012 < 0.05
Simulation CPU 0 warning: IPC 0.029149 < 0.05
Simulation CPU 0 warning: IPC 0.029923 < 0.05
Simulation CPU 0 warning: IPC 0.031022 < 0.05
Simulation CPU 0 warning: IPC 0.035868 < 0.05
Simulation CPU 0 warning: IPC 0.034353 < 0.05
Simulation CPU 0 warning: IPC 0.027987 < 0.05
Simulation CPU 0 warning: IPC 0.032092 < 0.05
Simulation CPU 0 warning: IPC 0.031492 < 0.05
Simulation CPU 0 warning: IPC 0.02667 < 0.05
Simulation CPU 0 warning: IPC 0.02995 < 0.05
Simulation CPU 0 warning: IPC 0.034823 < 0.05
Simulation CPU 0 warning: IPC 0.033405 < 0.05
Simulation CPU 0 warning: IPC 0.035755 < 0.05
Simulation CPU 0 warning: IPC 0.034178 < 0.05
Simulation CPU 0 warning: IPC 0.033251 < 0.05
Simulation CPU 0 warning: IPC 0.035175 < 0.05
Simulation CPU 0 warning: IPC 0.035835 < 0.05
Simulation CPU 0 warning: IPC 0.033803 < 0.05
Simulation CPU 0 warning: IPC 0.032759 < 0.05
Simulation CPU 0 warning: IPC 0.033247 < 0.05
Simulation CPU 0 warning: IPC 0.031716 < 0.05
Simulation CPU 0 warning: IPC 0.028574 < 0.05
Simulation CPU 0 warning: IPC 0.029642 < 0.05
Simulation CPU 0 warning: IPC 0.032321 < 0.05
Simulation CPU 0 warning: IPC 0.032291 < 0.05
Simulation CPU 0 warning: IPC 0.032394 < 0.05
Simulation CPU 0 warning: IPC 0.032004 < 0.05
Simulation CPU 0 warning: IPC 0.032873 < 0.05
Simulation CPU 0 warning: IPC 0.031976 < 0.05
Simulation CPU 0 warning: IPC 0.031273 < 0.05
Simulation CPU 0 warning: IPC 0.032999 < 0.05
Simulation CPU 0 warning: IPC 0.033871 < 0.05
Simulation CPU 0 warning: IPC 0.034845 < 0.05
Simulation CPU 0 warning: IPC 0.028974 < 0.05
Simulation CPU 0 warning: IPC 0.033999 < 0.05
Simulation CPU 0 warning: IPC 0.033966 < 0.05
Simulation CPU 0 warning: IPC 0.033507 < 0.05
Simulation CPU 0 warning: IPC 0.034622 < 0.05
Simulation CPU 0 warning: IPC 0.029992 < 0.05
Simulation CPU 0 warning: IPC 0.034236 < 0.05
Simulation CPU 0 warning: IPC 0.033852 < 0.05
Simulation CPU 0 warning: IPC 0.03243 < 0.05
Simulation CPU 0 warning: IPC 0.032971 < 0.05
Simulation CPU 0 warning: IPC 0.034942 < 0.05
Simulation CPU 0 warning: IPC 0.034418 < 0.05
Simulation CPU 0 warning: IPC 0.032291 < 0.05
Simulation CPU 0 warning: IPC 0.029788 < 0.05
Simulation CPU 0 warning: IPC 0.030835 < 0.05
Simulation CPU 0 warning: IPC 0.030217 < 0.05
Simulation CPU 0 warning: IPC 0.03116 < 0.05
Simulation CPU 0 warning: IPC 0.0328 < 0.05
Simulation CPU 0 warning: IPC 0.03186 < 0.05
Simulation CPU 0 warning: IPC 0.030857 < 0.05
Simulation CPU 0 warning: IPC 0.033183 < 0.05
Simulation CPU 0 warning: IPC 0.030975 < 0.05
Simulation CPU 0 warning: IPC 0.031314 < 0.05
Simulation CPU 0 warning: IPC 0.032338 < 0.05
Simulation CPU 0 warning: IPC 0.030788 < 0.05
Simulation CPU 0 warning: IPC 0.031093 < 0.05
Simulation CPU 0 warning: IPC 0.030655 < 0.05
Simulation CPU 0 warning: IPC 0.033206 < 0.05
Simulation CPU 0 warning: IPC 0.031912 < 0.05
Simulation CPU 0 warning: IPC 0.031608 < 0.05
Simulation CPU 0 warning: IPC 0.031648 < 0.05
Simulation CPU 0 warning: IPC 0.031232 < 0.05
Simulation CPU 0 warning: IPC 0.031935 < 0.05
Simulation CPU 0 warning: IPC 0.033135 < 0.05
Simulation CPU 0 warning: IPC 0.033706 < 0.05
Simulation CPU 0 warning: IPC 0.031302 < 0.05
Simulation CPU 0 warning: IPC 0.032694 < 0.05
Simulation CPU 0 warning: IPC 0.030921 < 0.05
Simulation CPU 0 warning: IPC 0.032138 < 0.05
Simulation CPU 0 warning: IPC 0.030461 < 0.05
Simulation CPU 0 warning: IPC 0.032462 < 0.05
Simulation CPU 0 warning: IPC 0.032712 < 0.05
Simulation CPU 0 warning: IPC 0.034187 < 0.05
Simulation CPU 0 warning: IPC 0.033261 < 0.05
Simulation CPU 0 warning: IPC 0.029229 < 0.05
Simulation finished CPU 0 instructions: 100000000 cycles: 3170384217 cumulative IPC: 0.03154 (Simulation time: 04 hr 23 min 06 sec)
Simulation complete CPU 0 instructions: 100000000 cycles: 3170384217 cumulative IPC: 0.03154 (Simulation time: 04 hr 23 min 06 sec)

ChampSim completed all CPUs

=== Simulation ===
CPU 0 runs /data2/zcq/champsim_traces_gap/pr.twitter-3197B.champsimtrace.xz

Region of Interest Statistics

CPU 0 cumulative IPC: 0.03154 instructions: 100000000 cycles: 3170384217
CPU 0 Branch Prediction Accuracy: 97.56% MPKI: 4.734 Average ROB Occupancy at Mispredict: 261.1
Branch type MPKI
BRANCH_DIRECT_JUMP: 0
BRANCH_INDIRECT: 0
BRANCH_CONDITIONAL: 4.734
BRANCH_DIRECT_CALL: 0
BRANCH_INDIRECT_CALL: 0
BRANCH_RETURN: 0

cpu0->cpu0_STLB TOTAL        ACCESS:   16884308 HIT:    2477271 MISS:   14407037 MSHR_MERGE:          0
cpu0->cpu0_STLB LOAD         ACCESS:   16884308 HIT:    2477271 MISS:   14407037 MSHR_MERGE:          0
cpu0->cpu0_STLB RFO          ACCESS:          0 HIT:          0 MISS:          0 MSHR_MERGE:          0
cpu0->cpu0_STLB PREFETCH     ACCESS:          0 HIT:          0 MISS:          0 MSHR_MERGE:          0
cpu0->cpu0_STLB WRITE        ACCESS:          0 HIT:          0 MISS:          0 MSHR_MERGE:          0
cpu0->cpu0_STLB TRANSLATION  ACCESS:          0 HIT:          0 MISS:          0 MSHR_MERGE:          0
cpu0->cpu0_STLB PREFETCH REQUESTED:          0 ISSUED:          0 USEFUL:          0 USELESS:          0 LATE:          0
cpu0->cpu0_STLB AVERAGE MISS LATENCY: 25.25 cycles
cpu0->cpu0_L2C TOTAL        ACCESS:   29723444 HIT:    7844666 MISS:   21878778 MSHR_MERGE:          0
cpu0->cpu0_L2C LOAD         ACCESS:   18224561 HIT:    1642468 MISS:   16582093 MSHR_MERGE:          0
cpu0->cpu0_L2C RFO          ACCESS:      14357 HIT:      12893 MISS:       1464 MSHR_MERGE:          0
cpu0->cpu0_L2C PREFETCH     ACCESS:          0 HIT:          0 MISS:          0 MSHR_MERGE:          0
cpu0->cpu0_L2C WRITE        ACCESS:      56994 HIT:      56990 MISS:          4 MSHR_MERGE:          0
cpu0->cpu0_L2C TRANSLATION  ACCESS:   11427532 HIT:    6132315 MISS:    5295217 MSHR_MERGE:          0
cpu0->cpu0_L2C PREFETCH REQUESTED:          0 ISSUED:          0 USEFUL:          0 USELESS:          0 LATE:          0
cpu0->cpu0_L2C AVERAGE MISS LATENCY: 124.2 cycles
cpu0->cpu0_L1I TOTAL        ACCESS:   12669117 HIT:   12669117 MISS:          0 MSHR_MERGE:          0
cpu0->cpu0_L1I LOAD         ACCESS:   12669117 HIT:   12669117 MISS:          0 MSHR_MERGE:          0
cpu0->cpu0_L1I RFO          ACCESS:          0 HIT:          0 MISS:          0 MSHR_MERGE:          0
cpu0->cpu0_L1I PREFETCH     ACCESS:          0 HIT:          0 MISS:          0 MSHR_MERGE:          0
cpu0->cpu0_L1I WRITE        ACCESS:          0 HIT:          0 MISS:          0 MSHR_MERGE:          0
cpu0->cpu0_L1I TRANSLATION  ACCESS:          0 HIT:          0 MISS:          0 MSHR_MERGE:          0
cpu0->cpu0_L1I PREFETCH REQUESTED:          0 ISSUED:          0 USEFUL:          0 USELESS:          0 LATE:          0
cpu0->cpu0_L1I AVERAGE MISS LATENCY: - cycles
cpu0->cpu0_L1D TOTAL        ACCESS:   70186397 HIT:   38646547 MISS:   31539850 MSHR_MERGE:    1873401
cpu0->cpu0_L1D LOAD         ACCESS:   38013216 HIT:   17958272 MISS:   20054944 MSHR_MERGE:    1830384
cpu0->cpu0_L1D RFO          ACCESS:          0 HIT:          0 MISS:          0 MSHR_MERGE:          0
cpu0->cpu0_L1D PREFETCH     ACCESS:          0 HIT:          0 MISS:          0 MSHR_MERGE:          0
cpu0->cpu0_L1D WRITE        ACCESS:     537485 HIT:     480115 MISS:      57370 MSHR_MERGE:      43013
cpu0->cpu0_L1D TRANSLATION  ACCESS:   31635696 HIT:   20208160 MISS:   11427536 MSHR_MERGE:          4
cpu0->cpu0_L1D PREFETCH REQUESTED:          0 ISSUED:          0 USEFUL:          0 USELESS:          0 LATE:          0
cpu0->cpu0_L1D AVERAGE MISS LATENCY: 100.4 cycles
cpu0->cpu0_ITLB TOTAL        ACCESS:   12669117 HIT:   12669117 MISS:          0 MSHR_MERGE:          0
cpu0->cpu0_ITLB LOAD         ACCESS:   12669117 HIT:   12669117 MISS:          0 MSHR_MERGE:          0
cpu0->cpu0_ITLB RFO          ACCESS:          0 HIT:          0 MISS:          0 MSHR_MERGE:          0
cpu0->cpu0_ITLB PREFETCH     ACCESS:          0 HIT:          0 MISS:          0 MSHR_MERGE:          0
cpu0->cpu0_ITLB WRITE        ACCESS:          0 HIT:          0 MISS:          0 MSHR_MERGE:          0
cpu0->cpu0_ITLB TRANSLATION  ACCESS:          0 HIT:          0 MISS:          0 MSHR_MERGE:          0
cpu0->cpu0_ITLB PREFETCH REQUESTED:          0 ISSUED:          0 USEFUL:          0 USELESS:          0 LATE:          0
cpu0->cpu0_ITLB AVERAGE MISS LATENCY: - cycles
cpu0->cpu0_DTLB TOTAL        ACCESS:   38538249 HIT:   21596644 MISS:   16941605 MSHR_MERGE:      57298
cpu0->cpu0_DTLB LOAD         ACCESS:   38538249 HIT:   21596644 MISS:   16941605 MSHR_MERGE:      57298
cpu0->cpu0_DTLB RFO          ACCESS:          0 HIT:          0 MISS:          0 MSHR_MERGE:          0
cpu0->cpu0_DTLB PREFETCH     ACCESS:          0 HIT:          0 MISS:          0 MSHR_MERGE:          0
cpu0->cpu0_DTLB WRITE        ACCESS:          0 HIT:          0 MISS:          0 MSHR_MERGE:          0
cpu0->cpu0_DTLB TRANSLATION  ACCESS:          0 HIT:          0 MISS:          0 MSHR_MERGE:          0
cpu0->cpu0_DTLB PREFETCH REQUESTED:          0 ISSUED:          0 USEFUL:          0 USELESS:          0 LATE:          0
cpu0->cpu0_DTLB AVERAGE MISS LATENCY: 27.4 cycles
cpu0->LLC TOTAL        ACCESS:   21910440 HIT:    8617370 MISS:   13293070 MSHR_MERGE:          0
cpu0->LLC LOAD         ACCESS:   16582093 HIT:    3411917 MISS:   13170176 MSHR_MERGE:          0
cpu0->LLC RFO          ACCESS:       1464 HIT:       1464 MISS:          0 MSHR_MERGE:          0
cpu0->LLC PREFETCH     ACCESS:          0 HIT:          0 MISS:          0 MSHR_MERGE:          0
cpu0->LLC WRITE        ACCESS:      31666 HIT:       8817 MISS:      22849 MSHR_MERGE:          0
cpu0->LLC TRANSLATION  ACCESS:    5295217 HIT:    5195172 MISS:     100045 MSHR_MERGE:          0
cpu0->LLC PREFETCH REQUESTED:          0 ISSUED:          0 USEFUL:          0 USELESS:          0 LATE:          0
cpu0->LLC AVERAGE MISS LATENCY: 178.8 cycles

DRAM Statistics

Channel 0 RQ ROW_BUFFER_HIT:      19746
  ROW_BUFFER_MISS:   13250473
  AVG DBUS CONGESTED CYCLE: 17.09
Channel 0 WQ ROW_BUFFER_HIT:       6133
  ROW_BUFFER_MISS:      23222
  FULL:          0
Channel 0 REFRESHES ISSUED:     264198

[ROI Statistics]
[System Configuration]
num_cpus 1
cpu_freq 4000
fetch_width 6
decode_width 6
dispatch_width 6
execute_width 6
lq_width 2
sq_width 2
retire_width 6
scheduler_size 128
branch_mispredict_penalty 15
rob_size 352
lq_size 128
sq_size 72
ifetch_buffer_size 64
decode_buffer_size 32
dispatch_buffer_size 32
register_file_size 288
decode_latency 1
dispatch_latency 1
schedule_latency 1
execute_latency 1
page_size 4096
block_size 64
core_0_itlb_set 16
core_0_itlb_way 4
core_0_itlb_rq_size 16
core_0_itlb_wq_size 16
core_0_itlb_pq_size 0
core_0_itlb_mshr_size 8
core_0_itlb_hit_latency 1
core_0_itlb_fill_latency 1
core_0_itlb_max_tag_check 2
core_0_itlb_max_fill 2
core_0_dtlb_set 16
core_0_dtlb_way 4
core_0_dtlb_rq_size 16
core_0_dtlb_wq_size 16
core_0_dtlb_pq_size 0
core_0_dtlb_mshr_size 8
core_0_dtlb_hit_latency 1
core_0_dtlb_fill_latency 1
core_0_dtlb_max_tag_check 2
core_0_dtlb_max_fill 2
core_0_stlb_set 128
core_0_stlb_way 12
core_0_stlb_rq_size 32
core_0_stlb_wq_size 32
core_0_stlb_pq_size 0
core_0_stlb_mshr_size 16
core_0_stlb_hit_latency 4
core_0_stlb_fill_latency 4
core_0_stlb_max_tag_check 1
core_0_stlb_max_fill 1
core_0_l1i_set 64
core_0_l1i_way 8
core_0_l1i_rq_size 64
core_0_l1i_wq_size 64
core_0_l1i_pq_size 32
core_0_l1i_mshr_size 8
core_0_l1i_hit_latency 2
core_0_l1i_fill_latency 2
core_0_l1i_max_tag_check 2
core_0_l1i_max_fill 2
core_0_l1d_set 64
core_0_l1d_way 12
core_0_l1d_rq_size 64
core_0_l1d_wq_size 64
core_0_l1d_pq_size 8
core_0_l1d_mshr_size 16
core_0_l1d_hit_latency 2
core_0_l1d_fill_latency 3
core_0_l1d_max_tag_check 2
core_0_l1d_max_fill 2
core_0_l2c_set 1024
core_0_l2c_way 8
core_0_l2c_rq_size 32
core_0_l2c_wq_size 32
core_0_l2c_pq_size 16
core_0_l2c_mshr_size 32
core_0_l2c_hit_latency 5
core_0_l2c_fill_latency 5
core_0_l2c_max_tag_check 1
core_0_l2c_max_fill 1
llc_set 2048
llc_way 16
llc_rq_size 32
llc_wq_size 32
llc_pq_size 32
llc_mshr_size 64
llc_hit_latency 10
llc_fill_latency 10
llc_max_tag_check 1
llc_max_fill 1
dram_channels 1
dram_ranks 1
dram_bankgroups 8
dram_banks 4
dram_rows 65536
dram_columns 1024
dram_channel_width 8
dram_rq_size 64
dram_wq_size 64
dram_size 17179869184
core_0_itlb_prefetcher no
core_0_dtlb_prefetcher no
core_0_stlb_prefetcher no
core_0_l1i_prefetcher no
core_0_l1d_prefetcher no
core_0_l2c_prefetcher no
llc_prefetcher no
llc_replacement drrip

Core_0_instructions 100000000
Core_0_cycles 3170384217
Core_0_IPC 0.0315419
Core_0_branch_prediction_accuracy 97.5573
Core_0_branch_MPKI 4.73448
Core_0_average_ROB_occupancy_at_mispredict 261.147

Core_0_ITLB_total_access 12669117
Core_0_ITLB_total_hit 12669117
Core_0_ITLB_total_miss 0
Core_0_ITLB_total_MPKI 0
Core_0_ITLB_total_miss_rate 0
Core_0_ITLB_demand_access 12669117
Core_0_ITLB_demand_hit 12669117
Core_0_ITLB_demand_miss 0
Core_0_ITLB_demand_MPKI 0
Core_0_ITLB_demand_miss_rate 0
Core_0_ITLB_load_access 12669117
Core_0_ITLB_load_hit 12669117
Core_0_ITLB_load_miss 0
Core_0_ITLB_load_MPKI 0
Core_0_ITLB_load_miss_rate 0
Core_0_ITLB_rfo_access 0
Core_0_ITLB_rfo_hit 0
Core_0_ITLB_rfo_miss 0
Core_0_ITLB_rfo_MPKI 0
Core_0_ITLB_rfo_miss_rate 0
Core_0_ITLB_prefetch_access 0
Core_0_ITLB_prefetch_hit 0
Core_0_ITLB_prefetch_miss 0
Core_0_ITLB_prefetch_MPKI 0
Core_0_ITLB_prefetch_miss_rate 0
Core_0_ITLB_writeback_access 0
Core_0_ITLB_writeback_hit 0
Core_0_ITLB_writeback_miss 0
Core_0_ITLB_writeback_MPKI 0
Core_0_ITLB_writeback_miss_rate 0
Core_0_ITLB_prefetch_requested 0
Core_0_ITLB_prefetch_issued 0
Core_0_ITLB_prefetch_useful 0
Core_0_ITLB_prefetch_useless 0
Core_0_ITLB_prefetch_late 0
Core_0_ITLB_prefetch_accuracy 0
Core_0_ITLB_prefetch_coverage 0

Core_0_DTLB_total_access 38538249
Core_0_DTLB_total_hit 21596644
Core_0_DTLB_total_miss 16941605
Core_0_DTLB_total_MPKI 169.416
Core_0_DTLB_total_miss_rate 0.439605
Core_0_DTLB_demand_access 38538249
Core_0_DTLB_demand_hit 21596644
Core_0_DTLB_demand_miss 16941605
Core_0_DTLB_demand_MPKI 169.416
Core_0_DTLB_demand_miss_rate 0.439605
Core_0_DTLB_load_access 38538249
Core_0_DTLB_load_hit 21596644
Core_0_DTLB_load_miss 16941605
Core_0_DTLB_load_MPKI 169.416
Core_0_DTLB_load_miss_rate 0.439605
Core_0_DTLB_rfo_access 0
Core_0_DTLB_rfo_hit 0
Core_0_DTLB_rfo_miss 0
Core_0_DTLB_rfo_MPKI 0
Core_0_DTLB_rfo_miss_rate 0
Core_0_DTLB_prefetch_access 0
Core_0_DTLB_prefetch_hit 0
Core_0_DTLB_prefetch_miss 0
Core_0_DTLB_prefetch_MPKI 0
Core_0_DTLB_prefetch_miss_rate 0
Core_0_DTLB_writeback_access 0
Core_0_DTLB_writeback_hit 0
Core_0_DTLB_writeback_miss 0
Core_0_DTLB_writeback_MPKI 0
Core_0_DTLB_writeback_miss_rate 0
Core_0_DTLB_prefetch_requested 0
Core_0_DTLB_prefetch_issued 0
Core_0_DTLB_prefetch_useful 0
Core_0_DTLB_prefetch_useless 0
Core_0_DTLB_prefetch_late 0
Core_0_DTLB_prefetch_accuracy 0
Core_0_DTLB_prefetch_coverage 0

Core_0_STLB_total_access 16884308
Core_0_STLB_total_hit 2477271
Core_0_STLB_total_miss 14407037
Core_0_STLB_total_MPKI 144.07
Core_0_STLB_total_miss_rate 0.85328
Core_0_STLB_demand_access 16884308
Core_0_STLB_demand_hit 2477271
Core_0_STLB_demand_miss 14407037
Core_0_STLB_demand_MPKI 144.07
Core_0_STLB_demand_miss_rate 0.85328
Core_0_STLB_load_access 16884308
Core_0_STLB_load_hit 2477271
Core_0_STLB_load_miss 14407037
Core_0_STLB_load_MPKI 144.07
Core_0_STLB_load_miss_rate 0.85328
Core_0_STLB_rfo_access 0
Core_0_STLB_rfo_hit 0
Core_0_STLB_rfo_miss 0
Core_0_STLB_rfo_MPKI 0
Core_0_STLB_rfo_miss_rate 0
Core_0_STLB_prefetch_access 0
Core_0_STLB_prefetch_hit 0
Core_0_STLB_prefetch_miss 0
Core_0_STLB_prefetch_MPKI 0
Core_0_STLB_prefetch_miss_rate 0
Core_0_STLB_writeback_access 0
Core_0_STLB_writeback_hit 0
Core_0_STLB_writeback_miss 0
Core_0_STLB_writeback_MPKI 0
Core_0_STLB_writeback_miss_rate 0
Core_0_STLB_prefetch_requested 0
Core_0_STLB_prefetch_issued 0
Core_0_STLB_prefetch_useful 0
Core_0_STLB_prefetch_useless 0
Core_0_STLB_prefetch_late 0
Core_0_STLB_prefetch_accuracy 0
Core_0_STLB_prefetch_coverage 0

Core_0_L1I_total_access 12669117
Core_0_L1I_total_hit 12669117
Core_0_L1I_total_miss 0
Core_0_L1I_total_MPKI 0
Core_0_L1I_total_miss_rate 0
Core_0_L1I_demand_access 12669117
Core_0_L1I_demand_hit 12669117
Core_0_L1I_demand_miss 0
Core_0_L1I_demand_MPKI 0
Core_0_L1I_demand_miss_rate 0
Core_0_L1I_load_access 12669117
Core_0_L1I_load_hit 12669117
Core_0_L1I_load_miss 0
Core_0_L1I_load_MPKI 0
Core_0_L1I_load_miss_rate 0
Core_0_L1I_rfo_access 0
Core_0_L1I_rfo_hit 0
Core_0_L1I_rfo_miss 0
Core_0_L1I_rfo_MPKI 0
Core_0_L1I_rfo_miss_rate 0
Core_0_L1I_prefetch_access 0
Core_0_L1I_prefetch_hit 0
Core_0_L1I_prefetch_miss 0
Core_0_L1I_prefetch_MPKI 0
Core_0_L1I_prefetch_miss_rate 0
Core_0_L1I_writeback_access 0
Core_0_L1I_writeback_hit 0
Core_0_L1I_writeback_miss 0
Core_0_L1I_writeback_MPKI 0
Core_0_L1I_writeback_miss_rate 0
Core_0_L1I_prefetch_requested 0
Core_0_L1I_prefetch_issued 0
Core_0_L1I_prefetch_useful 0
Core_0_L1I_prefetch_useless 0
Core_0_L1I_prefetch_late 0
Core_0_L1I_prefetch_accuracy 0
Core_0_L1I_prefetch_coverage 0

Core_0_L1D_total_access 38550701
Core_0_L1D_total_hit 18438387
Core_0_L1D_total_miss 20112314
Core_0_L1D_total_MPKI 201.123
Core_0_L1D_total_miss_rate 0.521711
Core_0_L1D_demand_access 38013216
Core_0_L1D_demand_hit 17958272
Core_0_L1D_demand_miss 20054944
Core_0_L1D_demand_MPKI 200.549
Core_0_L1D_demand_miss_rate 0.527578
Core_0_L1D_load_access 38013216
Core_0_L1D_load_hit 17958272
Core_0_L1D_load_miss 20054944
Core_0_L1D_load_MPKI 200.549
Core_0_L1D_load_miss_rate 0.527578
Core_0_L1D_rfo_access 0
Core_0_L1D_rfo_hit 0
Core_0_L1D_rfo_miss 0
Core_0_L1D_rfo_MPKI 0
Core_0_L1D_rfo_miss_rate 0
Core_0_L1D_prefetch_access 0
Core_0_L1D_prefetch_hit 0
Core_0_L1D_prefetch_miss 0
Core_0_L1D_prefetch_MPKI 0
Core_0_L1D_prefetch_miss_rate 0
Core_0_L1D_writeback_access 537485
Core_0_L1D_writeback_hit 480115
Core_0_L1D_writeback_miss 57370
Core_0_L1D_writeback_MPKI 0.5737
Core_0_L1D_writeback_miss_rate 0.106738
Core_0_L1D_prefetch_requested 0
Core_0_L1D_prefetch_issued 0
Core_0_L1D_prefetch_useful 0
Core_0_L1D_prefetch_useless 0
Core_0_L1D_prefetch_late 0
Core_0_L1D_prefetch_accuracy 0
Core_0_L1D_prefetch_coverage 0

Core_0_L2C_total_access 18295912
Core_0_L2C_total_hit 1712351
Core_0_L2C_total_miss 16583561
Core_0_L2C_total_MPKI 165.836
Core_0_L2C_total_miss_rate 0.906408
Core_0_L2C_demand_access 18238918
Core_0_L2C_demand_hit 1655361
Core_0_L2C_demand_miss 16583557
Core_0_L2C_demand_MPKI 165.836
Core_0_L2C_demand_miss_rate 0.90924
Core_0_L2C_load_access 18224561
Core_0_L2C_load_hit 1642468
Core_0_L2C_load_miss 16582093
Core_0_L2C_load_MPKI 165.821
Core_0_L2C_load_miss_rate 0.909876
Core_0_L2C_rfo_access 14357
Core_0_L2C_rfo_hit 12893
Core_0_L2C_rfo_miss 1464
Core_0_L2C_rfo_MPKI 0.01464
Core_0_L2C_rfo_miss_rate 0.101971
Core_0_L2C_prefetch_access 0
Core_0_L2C_prefetch_hit 0
Core_0_L2C_prefetch_miss 0
Core_0_L2C_prefetch_MPKI 0
Core_0_L2C_prefetch_miss_rate 0
Core_0_L2C_writeback_access 56994
Core_0_L2C_writeback_hit 56990
Core_0_L2C_writeback_miss 4
Core_0_L2C_writeback_MPKI 4e-05
Core_0_L2C_writeback_miss_rate 7.01828e-05
Core_0_L2C_prefetch_requested 0
Core_0_L2C_prefetch_issued 0
Core_0_L2C_prefetch_useful 0
Core_0_L2C_prefetch_useless 0
Core_0_L2C_prefetch_late 0
Core_0_L2C_prefetch_accuracy 0
Core_0_L2C_prefetch_coverage 0

Core_0_LLC_total_access 16615223
Core_0_LLC_total_hit 3422198
Core_0_LLC_total_miss 13193025
Core_0_LLC_total_MPKI 131.93
Core_0_LLC_total_miss_rate 0.794032
Core_0_LLC_demand_access 16583557
Core_0_LLC_demand_hit 3413381
Core_0_LLC_demand_miss 13170176
Core_0_LLC_demand_MPKI 131.702
Core_0_LLC_demand_miss_rate 0.794171
Core_0_LLC_load_access 16582093
Core_0_LLC_load_hit 3411917
Core_0_LLC_load_miss 13170176
Core_0_LLC_load_MPKI 131.702
Core_0_LLC_load_miss_rate 0.794241
Core_0_LLC_rfo_access 1464
Core_0_LLC_rfo_hit 1464
Core_0_LLC_rfo_miss 0
Core_0_LLC_rfo_MPKI 0
Core_0_LLC_rfo_miss_rate 0
Core_0_LLC_prefetch_access 0
Core_0_LLC_prefetch_hit 0
Core_0_LLC_prefetch_miss 0
Core_0_LLC_prefetch_MPKI 0
Core_0_LLC_prefetch_miss_rate 0
Core_0_LLC_writeback_access 31666
Core_0_LLC_writeback_hit 8817
Core_0_LLC_writeback_miss 22849
Core_0_LLC_writeback_MPKI 0.22849
Core_0_LLC_writeback_miss_rate 0.721563
Core_0_LLC_prefetch_requested 0
Core_0_LLC_prefetch_issued 0
Core_0_LLC_prefetch_useful 0
Core_0_LLC_prefetch_useless 0
Core_0_LLC_prefetch_late 0
Core_0_LLC_prefetch_accuracy 0
Core_0_LLC_prefetch_coverage 0

[DRAM Statistics]
Channel_0_RQ_row_buffer_hit 19746
Channel_0_RQ_row_buffer_miss 13250473
Channel_0_WQ_row_buffer_hit 6133
Channel_0_WQ_row_buffer_miss 23222
Channel_0_WQ_full 0
Channel_0_dbus_congested 2587847
DRAM_total_RQ_row_buffer_hit 19746
DRAM_total_RQ_row_buffer_miss 13250473
DRAM_total_WQ_row_buffer_hit 6133
DRAM_total_WQ_row_buffer_miss 23222
DRAM_total_WQ_full 0
DRAM_total_dbus_congested 2587847
DRAM_avg_congested_cycle 17.0932

====== DRAM_RQ_TRAFFIC ========
DRAM_RQ_READ_TRAFFIC_BREAKDOWN:
data_demand_read.count = 13170176
data_demand_read.share = 99.25%

inst_demand_read.count = 0
inst_demand_read.share = 0.00%

cache_inst_prefetch.count = 0
cache_inst_prefetch.share = 0.00%

cache_data_prefetch.count = 0
cache_data_prefetch.share = 0.00%

stlb_data_demand.count = 100045
stlb_data_demand.share = 0.75%

stlb_inst_demand.count = 0
stlb_inst_demand.share = 0.00%

stlb_l1i_pref.count = 0
stlb_l1i_pref.share = 0.00%

stlb_l1d_pref.count = 0
stlb_l1d_pref.share = 0.00%

DRAM_RQ_READ_TRAFFIC_SUMMARY:
cache_demand.count = 13170176
cache_demand.share = 99.25%

cache_prefetch.count = 0
cache_prefetch.share = 0.00%

stlb_demand.count = 100045
stlb_demand.share = 0.75%

stlb_prefetch.count = 0
stlb_prefetch.share = 0.00%

DRAM_RQ_READ_TRAFFIC_DEBUG:
total_classified_read.count = 13270221
unclassified_read.count = 0
total_read_with_other.count = 13270221

classified_plus_unclassified_check.count = 13270221
dram_rq_read_total_observed.count = 13270221
dram_rq_read_total_observed.per_1K_instructions = 132.702

STLB_MISS_PTW_DRAM_TOUCH_BREAKDOWN:
stlb_miss_total.count = 14407037

stlb_miss_touch_dram.count = 100020
stlb_miss_touch_dram.share = 0.69%

stlb_miss_no_dram_touch.count = 14307017
stlb_miss_no_dram_touch.share = 99.31%

STLB_MISS_PTW_DRAM_TOUCH_DEBUG:
stlb_miss_touch_plus_no_touch.count = 14407037
stlb_miss_total_check.count = 14407037

======STLB miss causes ========
Core_0_STLB_miss_cause_breakdown
Core_0_STLB_cause_Demand_Data_miss 14407037
Core_0_STLB_cause_Demand_Data_miss_rate 0.85328
Core_0_STLB_cause_Demand_Instruction_miss 0
Core_0_STLB_cause_Demand_Instruction_miss_rate 0
Core_0_STLB_cause_L1D_Prefetch_miss 0
Core_0_STLB_cause_L1D_Prefetch_miss_rate 0
Core_0_STLB_cause_L1I_Prefetch_miss 0
Core_0_STLB_cause_L1I_Prefetch_miss_rate 0
Core_0_STLB_cause_Other_miss 0
Core_0_STLB_cause_Other_miss_rate 0
Core_0_STLB_Demand_miss 14407037
Core_0_STLB_Demand_miss_rate 0.85328
Core_0_STLB_L1D_Prefetch_miss 0
Core_0_STLB_L1D_Prefetch_miss_rate 0
Core_0_STLB_Other_miss 0
Core_0_STLB_Other_miss_rate 0
