[VMEM] WARNING: physical memory size is smaller than virtual memory size.

*** ChampSim Multicore Out-of-Order Simulator ***
Warmup Instructions: 50000000
Simulation Instructions: 100000000
Number of CPUs: 1
Page size: 4096
Core 0: /data0/tzh/champsim_traces/QMM/srv_67_new.xz
Off-chip DRAM Size: 16 GiB Channels: 1 Width: 64-bit Data Rate: 3205 MT/s
[BTB] WARNING: target of return is a lower address than the corresponding call. This is usually a problem with your trace.
[BTB] WARNING: target of return is a lower address than the corresponding call. This is usually a problem with your trace.
[BTB] WARNING: target of return is a lower address than the corresponding call. This is usually a problem with your trace.
[BTB] WARNING: target of return is a lower address than the corresponding call. This is usually a problem with your trace.
[BTB] WARNING: target of return is a lower address than the corresponding call. This is usually a problem with your trace.
[BTB] WARNING: target of return is a lower address than the corresponding call. This is usually a problem with your trace.
[BTB] WARNING: target of return is a lower address than the corresponding call. This is usually a problem with your trace.
[BTB] WARNING: target of return is a lower address than the corresponding call. This is usually a problem with your trace.
[BTB] WARNING: target of return is a lower address than the corresponding call. This is usually a problem with your trace.
[BTB] WARNING: target of return is a lower address than the corresponding call. This is usually a problem with your trace.
*** Reached end of trace: (0, "/data0/tzh/champsim_traces/QMM/srv_67_new.xz")
Warmup halting CPU 0 at instruction 50000005 cycle 10841767 for remainder of phase
Warmup finished CPU 0 instructions: 50000005 cycles: 10841767 cumulative IPC: 4.612 (Simulation time: 00 hr 02 min 23 sec)
Warmup complete CPU 0 instructions: 50000005 cycles: 10841767 cumulative IPC: 4.612 (Simulation time: 00 hr 02 min 23 sec)
*** Reached end of trace: (0, "/data0/tzh/champsim_traces/QMM/srv_67_new.xz")
*** Reached end of trace: (0, "/data0/tzh/champsim_traces/QMM/srv_67_new.xz")
*** Reached end of trace: (0, "/data0/tzh/champsim_traces/QMM/srv_67_new.xz")
Simulation finished CPU 0 instructions: 100000004 cycles: 54513949 cumulative IPC: 1.834 (Simulation time: 00 hr 10 min 28 sec)
Simulation complete CPU 0 instructions: 100000004 cycles: 54513949 cumulative IPC: 1.834 (Simulation time: 00 hr 10 min 28 sec)

ChampSim completed all CPUs

=== Simulation ===
CPU 0 runs /data0/tzh/champsim_traces/QMM/srv_67_new.xz

Region of Interest Statistics

CPU 0 cumulative IPC: 1.834 instructions: 100000004 cycles: 54513949
CPU 0 Branch Prediction Accuracy: 98.69% MPKI: 2.346 Average ROB Occupancy at Mispredict: 145.8
Branch type MPKI
BRANCH_DIRECT_JUMP: 0.1477
BRANCH_INDIRECT: 0.1944
BRANCH_CONDITIONAL: 1.365
BRANCH_DIRECT_CALL: 0.2726
BRANCH_INDIRECT_CALL: 0.1012
BRANCH_RETURN: 0.265

cpu0->cpu0_STLB TOTAL        ACCESS:    1640400 HIT:    1477006 MISS:     163394 MSHR_MERGE:          0
cpu0->cpu0_STLB LOAD         ACCESS:    1640400 HIT:    1477006 MISS:     163394 MSHR_MERGE:          0
cpu0->cpu0_STLB RFO          ACCESS:          0 HIT:          0 MISS:          0 MSHR_MERGE:          0
cpu0->cpu0_STLB PREFETCH     ACCESS:          0 HIT:          0 MISS:          0 MSHR_MERGE:          0
cpu0->cpu0_STLB WRITE        ACCESS:          0 HIT:          0 MISS:          0 MSHR_MERGE:          0
cpu0->cpu0_STLB TRANSLATION  ACCESS:          0 HIT:          0 MISS:          0 MSHR_MERGE:          0
cpu0->cpu0_STLB PREFETCH REQUESTED:          0 ISSUED:          0 USEFUL:          0 USELESS:          0 LATE:          0
cpu0->cpu0_STLB AVERAGE MISS LATENCY: 36.75 cycles
cpu0->cpu0_L2C TOTAL        ACCESS:    4422162 HIT:    2911587 MISS:    1510575 MSHR_MERGE:          0
cpu0->cpu0_L2C LOAD         ACCESS:    3588608 HIT:    2259107 MISS:    1329501 MSHR_MERGE:          0
cpu0->cpu0_L2C RFO          ACCESS:     163905 HIT:      78086 MISS:      85819 MSHR_MERGE:          0
cpu0->cpu0_L2C PREFETCH     ACCESS:          0 HIT:          0 MISS:          0 MSHR_MERGE:          0
cpu0->cpu0_L2C WRITE        ACCESS:     516283 HIT:     513456 MISS:       2827 MSHR_MERGE:          0
cpu0->cpu0_L2C TRANSLATION  ACCESS:     153366 HIT:      60938 MISS:      92428 MSHR_MERGE:          0
cpu0->cpu0_L2C PREFETCH REQUESTED:          0 ISSUED:          0 USEFUL:          0 USELESS:          0 LATE:          0
cpu0->cpu0_L2C AVERAGE MISS LATENCY: 34.33 cycles
cpu0->cpu0_L1I TOTAL        ACCESS:   15811947 HIT:   11746593 MISS:    4065354 MSHR_MERGE:    1557163
cpu0->cpu0_L1I LOAD         ACCESS:   15811947 HIT:   11746593 MISS:    4065354 MSHR_MERGE:    1557163
cpu0->cpu0_L1I RFO          ACCESS:          0 HIT:          0 MISS:          0 MSHR_MERGE:          0
cpu0->cpu0_L1I PREFETCH     ACCESS:          0 HIT:          0 MISS:          0 MSHR_MERGE:          0
cpu0->cpu0_L1I WRITE        ACCESS:          0 HIT:          0 MISS:          0 MSHR_MERGE:          0
cpu0->cpu0_L1I TRANSLATION  ACCESS:          0 HIT:          0 MISS:          0 MSHR_MERGE:          0
cpu0->cpu0_L1I PREFETCH REQUESTED:          0 ISSUED:          0 USEFUL:          0 USELESS:          0 LATE:          0
cpu0->cpu0_L1I AVERAGE MISS LATENCY: 13.44 cycles
cpu0->cpu0_L1D TOTAL        ACCESS:   23119217 HIT:   21033055 MISS:    2086162 MSHR_MERGE:     688444
cpu0->cpu0_L1D LOAD         ACCESS:   12781168 HIT:   11310388 MISS:    1470780 MSHR_MERGE:     390349
cpu0->cpu0_L1D RFO          ACCESS:          0 HIT:          0 MISS:          0 MSHR_MERGE:          0
cpu0->cpu0_L1D PREFETCH     ACCESS:          0 HIT:          0 MISS:          0 MSHR_MERGE:          0
cpu0->cpu0_L1D WRITE        ACCESS:    9965136 HIT:    9506199 MISS:     458937 MSHR_MERGE:     295016
cpu0->cpu0_L1D TRANSLATION  ACCESS:     372913 HIT:     216468 MISS:     156445 MSHR_MERGE:       3079
cpu0->cpu0_L1D PREFETCH REQUESTED:          0 ISSUED:          0 USEFUL:          0 USELESS:          0 LATE:          0
cpu0->cpu0_L1D AVERAGE MISS LATENCY: 35.34 cycles
cpu0->cpu0_ITLB TOTAL        ACCESS:   13457293 HIT:   12469300 MISS:     987993 MSHR_MERGE:     610831
cpu0->cpu0_ITLB LOAD         ACCESS:   13457293 HIT:   12469300 MISS:     987993 MSHR_MERGE:     610831
cpu0->cpu0_ITLB RFO          ACCESS:          0 HIT:          0 MISS:          0 MSHR_MERGE:          0
cpu0->cpu0_ITLB PREFETCH     ACCESS:          0 HIT:          0 MISS:          0 MSHR_MERGE:          0
cpu0->cpu0_ITLB WRITE        ACCESS:          0 HIT:          0 MISS:          0 MSHR_MERGE:          0
cpu0->cpu0_ITLB TRANSLATION  ACCESS:          0 HIT:          0 MISS:          0 MSHR_MERGE:          0
cpu0->cpu0_ITLB PREFETCH REQUESTED:          0 ISSUED:          0 USEFUL:          0 USELESS:          0 LATE:          0
cpu0->cpu0_ITLB AVERAGE MISS LATENCY: 9.072 cycles
cpu0->cpu0_DTLB TOTAL        ACCESS:   21398425 HIT:   19685789 MISS:    1712636 MSHR_MERGE:     449398
cpu0->cpu0_DTLB LOAD         ACCESS:   21398425 HIT:   19685789 MISS:    1712636 MSHR_MERGE:     449398
cpu0->cpu0_DTLB RFO          ACCESS:          0 HIT:          0 MISS:          0 MSHR_MERGE:          0
cpu0->cpu0_DTLB PREFETCH     ACCESS:          0 HIT:          0 MISS:          0 MSHR_MERGE:          0
cpu0->cpu0_DTLB WRITE        ACCESS:          0 HIT:          0 MISS:          0 MSHR_MERGE:          0
cpu0->cpu0_DTLB TRANSLATION  ACCESS:          0 HIT:          0 MISS:          0 MSHR_MERGE:          0
cpu0->cpu0_DTLB PREFETCH REQUESTED:          0 ISSUED:          0 USEFUL:          0 USELESS:          0 LATE:          0
cpu0->cpu0_DTLB AVERAGE MISS LATENCY: 8.684 cycles
cpu0->LLC TOTAL        ACCESS:    1782798 HIT:    1622437 MISS:     160361 MSHR_MERGE:          0
cpu0->LLC LOAD         ACCESS:    1329501 HIT:    1203772 MISS:     125729 MSHR_MERGE:          0
cpu0->LLC RFO          ACCESS:      85819 HIT:      62625 MISS:      23194 MSHR_MERGE:          0
cpu0->LLC PREFETCH     ACCESS:          0 HIT:          0 MISS:          0 MSHR_MERGE:          0
cpu0->LLC WRITE        ACCESS:     275050 HIT:     269781 MISS:       5269 MSHR_MERGE:          0
cpu0->LLC TRANSLATION  ACCESS:      92428 HIT:      86259 MISS:       6169 MSHR_MERGE:          0
cpu0->LLC PREFETCH REQUESTED:          0 ISSUED:          0 USEFUL:          0 USELESS:          0 LATE:          0
cpu0->LLC AVERAGE MISS LATENCY: 181.5 cycles

DRAM Statistics

Channel 0 RQ ROW_BUFFER_HIT:       5625
  ROW_BUFFER_MISS:     149464
  AVG DBUS CONGESTED CYCLE: 15.84
Channel 0 WQ ROW_BUFFER_HIT:      23179
  ROW_BUFFER_MISS:      81841
  FULL:          0
Channel 0 REFRESHES ISSUED:       4543

[ROI Statistics]
[System Configuration]
num_cpus 1
cpu_freq 4000
fetch_width 6
decode_width 6
dispatch_width 6
execute_width 6
lq_width 2
sq_width 2
retire_width 6
scheduler_size 128
branch_mispredict_penalty 15
rob_size 352
lq_size 128
sq_size 72
ifetch_buffer_size 64
decode_buffer_size 32
dispatch_buffer_size 32
register_file_size 288
decode_latency 1
dispatch_latency 1
schedule_latency 1
execute_latency 1
page_size 4096
block_size 64
core_0_itlb_set 16
core_0_itlb_way 4
core_0_itlb_rq_size 16
core_0_itlb_wq_size 16
core_0_itlb_pq_size 0
core_0_itlb_mshr_size 8
core_0_itlb_hit_latency 1
core_0_itlb_fill_latency 1
core_0_itlb_max_tag_check 2
core_0_itlb_max_fill 2
core_0_dtlb_set 16
core_0_dtlb_way 4
core_0_dtlb_rq_size 16
core_0_dtlb_wq_size 16
core_0_dtlb_pq_size 0
core_0_dtlb_mshr_size 8
core_0_dtlb_hit_latency 1
core_0_dtlb_fill_latency 1
core_0_dtlb_max_tag_check 2
core_0_dtlb_max_fill 2
core_0_stlb_set 128
core_0_stlb_way 12
core_0_stlb_rq_size 32
core_0_stlb_wq_size 32
core_0_stlb_pq_size 0
core_0_stlb_mshr_size 16
core_0_stlb_hit_latency 4
core_0_stlb_fill_latency 4
core_0_stlb_max_tag_check 1
core_0_stlb_max_fill 1
core_0_l1i_set 64
core_0_l1i_way 8
core_0_l1i_rq_size 64
core_0_l1i_wq_size 64
core_0_l1i_pq_size 32
core_0_l1i_mshr_size 8
core_0_l1i_hit_latency 2
core_0_l1i_fill_latency 2
core_0_l1i_max_tag_check 2
core_0_l1i_max_fill 2
core_0_l1d_set 64
core_0_l1d_way 12
core_0_l1d_rq_size 64
core_0_l1d_wq_size 64
core_0_l1d_pq_size 8
core_0_l1d_mshr_size 16
core_0_l1d_hit_latency 2
core_0_l1d_fill_latency 3
core_0_l1d_max_tag_check 2
core_0_l1d_max_fill 2
core_0_l2c_set 1024
core_0_l2c_way 8
core_0_l2c_rq_size 32
core_0_l2c_wq_size 32
core_0_l2c_pq_size 16
core_0_l2c_mshr_size 32
core_0_l2c_hit_latency 5
core_0_l2c_fill_latency 5
core_0_l2c_max_tag_check 1
core_0_l2c_max_fill 1
llc_set 2048
llc_way 16
llc_rq_size 32
llc_wq_size 32
llc_pq_size 32
llc_mshr_size 64
llc_hit_latency 10
llc_fill_latency 10
llc_max_tag_check 1
llc_max_fill 1
dram_channels 1
dram_ranks 1
dram_bankgroups 8
dram_banks 4
dram_rows 65536
dram_columns 1024
dram_channel_width 8
dram_rq_size 64
dram_wq_size 64
dram_size 17179869184
core_0_itlb_prefetcher no
core_0_dtlb_prefetcher no
core_0_stlb_prefetcher no
core_0_l1i_prefetcher no
core_0_l1d_prefetcher no
core_0_l2c_prefetcher no
llc_prefetcher no
llc_replacement drrip

Core_0_instructions 100000004
Core_0_cycles 54513949
Core_0_IPC 1.83439
Core_0_branch_prediction_accuracy 98.6898
Core_0_branch_MPKI 2.3456
Core_0_average_ROB_occupancy_at_mispredict 145.849

Core_0_ITLB_total_access 13457293
Core_0_ITLB_total_hit 12469300
Core_0_ITLB_total_miss 987993
Core_0_ITLB_total_MPKI 9.87993
Core_0_ITLB_total_miss_rate 0.0734169
Core_0_ITLB_demand_access 13457293
Core_0_ITLB_demand_hit 12469300
Core_0_ITLB_demand_miss 987993
Core_0_ITLB_demand_MPKI 9.87993
Core_0_ITLB_demand_miss_rate 0.0734169
Core_0_ITLB_load_access 13457293
Core_0_ITLB_load_hit 12469300
Core_0_ITLB_load_miss 987993
Core_0_ITLB_load_MPKI 9.87993
Core_0_ITLB_load_miss_rate 0.0734169
Core_0_ITLB_rfo_access 0
Core_0_ITLB_rfo_hit 0
Core_0_ITLB_rfo_miss 0
Core_0_ITLB_rfo_MPKI 0
Core_0_ITLB_rfo_miss_rate 0
Core_0_ITLB_prefetch_access 0
Core_0_ITLB_prefetch_hit 0
Core_0_ITLB_prefetch_miss 0
Core_0_ITLB_prefetch_MPKI 0
Core_0_ITLB_prefetch_miss_rate 0
Core_0_ITLB_writeback_access 0
Core_0_ITLB_writeback_hit 0
Core_0_ITLB_writeback_miss 0
Core_0_ITLB_writeback_MPKI 0
Core_0_ITLB_writeback_miss_rate 0
Core_0_ITLB_prefetch_requested 0
Core_0_ITLB_prefetch_issued 0
Core_0_ITLB_prefetch_useful 0
Core_0_ITLB_prefetch_useless 0
Core_0_ITLB_prefetch_late 0
Core_0_ITLB_prefetch_accuracy 0
Core_0_ITLB_prefetch_coverage 0

Core_0_DTLB_total_access 21398425
Core_0_DTLB_total_hit 19685789
Core_0_DTLB_total_miss 1712636
Core_0_DTLB_total_MPKI 17.1264
Core_0_DTLB_total_miss_rate 0.0800356
Core_0_DTLB_demand_access 21398425
Core_0_DTLB_demand_hit 19685789
Core_0_DTLB_demand_miss 1712636
Core_0_DTLB_demand_MPKI 17.1264
Core_0_DTLB_demand_miss_rate 0.0800356
Core_0_DTLB_load_access 21398425
Core_0_DTLB_load_hit 19685789
Core_0_DTLB_load_miss 1712636
Core_0_DTLB_load_MPKI 17.1264
Core_0_DTLB_load_miss_rate 0.0800356
Core_0_DTLB_rfo_access 0
Core_0_DTLB_rfo_hit 0
Core_0_DTLB_rfo_miss 0
Core_0_DTLB_rfo_MPKI 0
Core_0_DTLB_rfo_miss_rate 0
Core_0_DTLB_prefetch_access 0
Core_0_DTLB_prefetch_hit 0
Core_0_DTLB_prefetch_miss 0
Core_0_DTLB_prefetch_MPKI 0
Core_0_DTLB_prefetch_miss_rate 0
Core_0_DTLB_writeback_access 0
Core_0_DTLB_writeback_hit 0
Core_0_DTLB_writeback_miss 0
Core_0_DTLB_writeback_MPKI 0
Core_0_DTLB_writeback_miss_rate 0
Core_0_DTLB_prefetch_requested 0
Core_0_DTLB_prefetch_issued 0
Core_0_DTLB_prefetch_useful 0
Core_0_DTLB_prefetch_useless 0
Core_0_DTLB_prefetch_late 0
Core_0_DTLB_prefetch_accuracy 0
Core_0_DTLB_prefetch_coverage 0

Core_0_STLB_total_access 1640400
Core_0_STLB_total_hit 1477006
Core_0_STLB_total_miss 163394
Core_0_STLB_total_MPKI 1.63394
Core_0_STLB_total_miss_rate 0.0996062
Core_0_STLB_demand_access 1640400
Core_0_STLB_demand_hit 1477006
Core_0_STLB_demand_miss 163394
Core_0_STLB_demand_MPKI 1.63394
Core_0_STLB_demand_miss_rate 0.0996062
Core_0_STLB_load_access 1640400
Core_0_STLB_load_hit 1477006
Core_0_STLB_load_miss 163394
Core_0_STLB_load_MPKI 1.63394
Core_0_STLB_load_miss_rate 0.0996062
Core_0_STLB_rfo_access 0
Core_0_STLB_rfo_hit 0
Core_0_STLB_rfo_miss 0
Core_0_STLB_rfo_MPKI 0
Core_0_STLB_rfo_miss_rate 0
Core_0_STLB_prefetch_access 0
Core_0_STLB_prefetch_hit 0
Core_0_STLB_prefetch_miss 0
Core_0_STLB_prefetch_MPKI 0
Core_0_STLB_prefetch_miss_rate 0
Core_0_STLB_writeback_access 0
Core_0_STLB_writeback_hit 0
Core_0_STLB_writeback_miss 0
Core_0_STLB_writeback_MPKI 0
Core_0_STLB_writeback_miss_rate 0
Core_0_STLB_prefetch_requested 0
Core_0_STLB_prefetch_issued 0
Core_0_STLB_prefetch_useful 0
Core_0_STLB_prefetch_useless 0
Core_0_STLB_prefetch_late 0
Core_0_STLB_prefetch_accuracy 0
Core_0_STLB_prefetch_coverage 0

Core_0_L1I_total_access 15811947
Core_0_L1I_total_hit 11746593
Core_0_L1I_total_miss 4065354
Core_0_L1I_total_MPKI 40.6535
Core_0_L1I_total_miss_rate 0.257106
Core_0_L1I_demand_access 15811947
Core_0_L1I_demand_hit 11746593
Core_0_L1I_demand_miss 4065354
Core_0_L1I_demand_MPKI 40.6535
Core_0_L1I_demand_miss_rate 0.257106
Core_0_L1I_load_access 15811947
Core_0_L1I_load_hit 11746593
Core_0_L1I_load_miss 4065354
Core_0_L1I_load_MPKI 40.6535
Core_0_L1I_load_miss_rate 0.257106
Core_0_L1I_rfo_access 0
Core_0_L1I_rfo_hit 0
Core_0_L1I_rfo_miss 0
Core_0_L1I_rfo_MPKI 0
Core_0_L1I_rfo_miss_rate 0
Core_0_L1I_prefetch_access 0
Core_0_L1I_prefetch_hit 0
Core_0_L1I_prefetch_miss 0
Core_0_L1I_prefetch_MPKI 0
Core_0_L1I_prefetch_miss_rate 0
Core_0_L1I_writeback_access 0
Core_0_L1I_writeback_hit 0
Core_0_L1I_writeback_miss 0
Core_0_L1I_writeback_MPKI 0
Core_0_L1I_writeback_miss_rate 0
Core_0_L1I_prefetch_requested 0
Core_0_L1I_prefetch_issued 0
Core_0_L1I_prefetch_useful 0
Core_0_L1I_prefetch_useless 0
Core_0_L1I_prefetch_late 0
Core_0_L1I_prefetch_accuracy 0
Core_0_L1I_prefetch_coverage 0

Core_0_L1D_total_access 22746304
Core_0_L1D_total_hit 20816587
Core_0_L1D_total_miss 1929717
Core_0_L1D_total_MPKI 19.2972
Core_0_L1D_total_miss_rate 0.0848365
Core_0_L1D_demand_access 12781168
Core_0_L1D_demand_hit 11310388
Core_0_L1D_demand_miss 1470780
Core_0_L1D_demand_MPKI 14.7078
Core_0_L1D_demand_miss_rate 0.115074
Core_0_L1D_load_access 12781168
Core_0_L1D_load_hit 11310388
Core_0_L1D_load_miss 1470780
Core_0_L1D_load_MPKI 14.7078
Core_0_L1D_load_miss_rate 0.115074
Core_0_L1D_rfo_access 0
Core_0_L1D_rfo_hit 0
Core_0_L1D_rfo_miss 0
Core_0_L1D_rfo_MPKI 0
Core_0_L1D_rfo_miss_rate 0
Core_0_L1D_prefetch_access 0
Core_0_L1D_prefetch_hit 0
Core_0_L1D_prefetch_miss 0
Core_0_L1D_prefetch_MPKI 0
Core_0_L1D_prefetch_miss_rate 0
Core_0_L1D_writeback_access 9965136
Core_0_L1D_writeback_hit 9506199
Core_0_L1D_writeback_miss 458937
Core_0_L1D_writeback_MPKI 4.58937
Core_0_L1D_writeback_miss_rate 0.0460543
Core_0_L1D_prefetch_requested 0
Core_0_L1D_prefetch_issued 0
Core_0_L1D_prefetch_useful 0
Core_0_L1D_prefetch_useless 0
Core_0_L1D_prefetch_late 0
Core_0_L1D_prefetch_accuracy 0
Core_0_L1D_prefetch_coverage 0

Core_0_L2C_total_access 4268796
Core_0_L2C_total_hit 2850649
Core_0_L2C_total_miss 1418147
Core_0_L2C_total_MPKI 14.1815
Core_0_L2C_total_miss_rate 0.332212
Core_0_L2C_demand_access 3752513
Core_0_L2C_demand_hit 2337193
Core_0_L2C_demand_miss 1415320
Core_0_L2C_demand_MPKI 14.1532
Core_0_L2C_demand_miss_rate 0.377166
Core_0_L2C_load_access 3588608
Core_0_L2C_load_hit 2259107
Core_0_L2C_load_miss 1329501
Core_0_L2C_load_MPKI 13.295
Core_0_L2C_load_miss_rate 0.370478
Core_0_L2C_rfo_access 163905
Core_0_L2C_rfo_hit 78086
Core_0_L2C_rfo_miss 85819
Core_0_L2C_rfo_MPKI 0.85819
Core_0_L2C_rfo_miss_rate 0.52359
Core_0_L2C_prefetch_access 0
Core_0_L2C_prefetch_hit 0
Core_0_L2C_prefetch_miss 0
Core_0_L2C_prefetch_MPKI 0
Core_0_L2C_prefetch_miss_rate 0
Core_0_L2C_writeback_access 516283
Core_0_L2C_writeback_hit 513456
Core_0_L2C_writeback_miss 2827
Core_0_L2C_writeback_MPKI 0.02827
Core_0_L2C_writeback_miss_rate 0.00547568
Core_0_L2C_prefetch_requested 0
Core_0_L2C_prefetch_issued 0
Core_0_L2C_prefetch_useful 0
Core_0_L2C_prefetch_useless 0
Core_0_L2C_prefetch_late 0
Core_0_L2C_prefetch_accuracy 0
Core_0_L2C_prefetch_coverage 0

Core_0_LLC_total_access 1690370
Core_0_LLC_total_hit 1536178
Core_0_LLC_total_miss 154192
Core_0_LLC_total_MPKI 1.54192
Core_0_LLC_total_miss_rate 0.0912179
Core_0_LLC_demand_access 1415320
Core_0_LLC_demand_hit 1266397
Core_0_LLC_demand_miss 148923
Core_0_LLC_demand_MPKI 1.48923
Core_0_LLC_demand_miss_rate 0.105222
Core_0_LLC_load_access 1329501
Core_0_LLC_load_hit 1203772
Core_0_LLC_load_miss 125729
Core_0_LLC_load_MPKI 1.25729
Core_0_LLC_load_miss_rate 0.0945686
Core_0_LLC_rfo_access 85819
Core_0_LLC_rfo_hit 62625
Core_0_LLC_rfo_miss 23194
Core_0_LLC_rfo_MPKI 0.23194
Core_0_LLC_rfo_miss_rate 0.270266
Core_0_LLC_prefetch_access 0
Core_0_LLC_prefetch_hit 0
Core_0_LLC_prefetch_miss 0
Core_0_LLC_prefetch_MPKI 0
Core_0_LLC_prefetch_miss_rate 0
Core_0_LLC_writeback_access 275050
Core_0_LLC_writeback_hit 269781
Core_0_LLC_writeback_miss 5269
Core_0_LLC_writeback_MPKI 0.05269
Core_0_LLC_writeback_miss_rate 0.0191565
Core_0_LLC_prefetch_requested 0
Core_0_LLC_prefetch_issued 0
Core_0_LLC_prefetch_useful 0
Core_0_LLC_prefetch_useless 0
Core_0_LLC_prefetch_late 0
Core_0_LLC_prefetch_accuracy 0
Core_0_LLC_prefetch_coverage 0

[DRAM Statistics]
Channel_0_RQ_row_buffer_hit 5625
Channel_0_RQ_row_buffer_miss 149464
Channel_0_WQ_row_buffer_hit 23179
Channel_0_WQ_row_buffer_miss 81841
Channel_0_WQ_full 0
Channel_0_dbus_congested 812933
DRAM_total_RQ_row_buffer_hit 5625
DRAM_total_RQ_row_buffer_miss 149464
DRAM_total_WQ_row_buffer_hit 23179
DRAM_total_WQ_row_buffer_miss 81841
DRAM_total_WQ_full 0
DRAM_total_dbus_congested 812933
DRAM_avg_congested_cycle 15.8415

====== DRAM_RQ_TRAFFIC ========
DRAM_RQ_READ_TRAFFIC_BREAKDOWN:
data_demand_read.count = 138198
data_demand_read.share = 89.11%

inst_demand_read.count = 10725
inst_demand_read.share = 6.92%

cache_inst_prefetch.count = 0
cache_inst_prefetch.share = 0.00%

cache_data_prefetch.count = 0
cache_data_prefetch.share = 0.00%

stlb_data_demand.count = 6009
stlb_data_demand.share = 3.87%

stlb_inst_demand.count = 160
stlb_inst_demand.share = 0.10%

stlb_l1i_pref.count = 0
stlb_l1i_pref.share = 0.00%

stlb_l1d_pref.count = 0
stlb_l1d_pref.share = 0.00%

DRAM_RQ_READ_TRAFFIC_SUMMARY:
cache_demand.count = 148923
cache_demand.share = 96.02%

cache_prefetch.count = 0
cache_prefetch.share = 0.00%

stlb_demand.count = 6169
stlb_demand.share = 3.98%

stlb_prefetch.count = 0
stlb_prefetch.share = 0.00%

DRAM_RQ_READ_TRAFFIC_DEBUG:
total_classified_read.count = 155092
unclassified_read.count = 0
total_read_with_other.count = 155092

classified_plus_unclassified_check.count = 155092
dram_rq_read_total_observed.count = 155092
dram_rq_read_total_observed.per_1K_instructions = 1.55092

STLB_MISS_PTW_DRAM_TOUCH_BREAKDOWN:
stlb_miss_total.count = 163394

stlb_miss_touch_dram.count = 6159
stlb_miss_touch_dram.share = 3.77%

stlb_miss_no_dram_touch.count = 157235
stlb_miss_no_dram_touch.share = 96.23%

STLB_MISS_PTW_DRAM_TOUCH_DEBUG:
stlb_miss_touch_plus_no_touch.count = 163394
stlb_miss_total_check.count = 163394

======STLB miss causes ========
Core_0_STLB_miss_cause_breakdown
Core_0_STLB_cause_Demand_Data_miss 104386
Core_0_STLB_cause_Demand_Data_miss_rate 0.0636345
Core_0_STLB_cause_Demand_Instruction_miss 59008
Core_0_STLB_cause_Demand_Instruction_miss_rate 0.0359717
Core_0_STLB_cause_L1D_Prefetch_miss 0
Core_0_STLB_cause_L1D_Prefetch_miss_rate 0
Core_0_STLB_cause_L1I_Prefetch_miss 0
Core_0_STLB_cause_L1I_Prefetch_miss_rate 0
Core_0_STLB_cause_Other_miss 0
Core_0_STLB_cause_Other_miss_rate 0
Core_0_STLB_Demand_miss 163394
Core_0_STLB_Demand_miss_rate 0.0996062
Core_0_STLB_L1D_Prefetch_miss 0
Core_0_STLB_L1D_Prefetch_miss_rate 0
Core_0_STLB_Other_miss 0
Core_0_STLB_Other_miss_rate 0
