[VMEM] WARNING: physical memory size is smaller than virtual memory size.

*** ChampSim Multicore Out-of-Order Simulator ***
Warmup Instructions: 50000000
Simulation Instructions: 100000000
Number of CPUs: 1
Page size: 4096
Core 0: /data0/tzh/champsim_traces/QMM/srv_6_new.xz
Off-chip DRAM Size: 16 GiB Channels: 1 Width: 64-bit Data Rate: 3205 MT/s
[BTB] WARNING: target of return is a lower address than the corresponding call. This is usually a problem with your trace.
[BTB] WARNING: target of return is a lower address than the corresponding call. This is usually a problem with your trace.
[BTB] WARNING: target of return is a lower address than the corresponding call. This is usually a problem with your trace.
[BTB] WARNING: target of return is a lower address than the corresponding call. This is usually a problem with your trace.
[BTB] WARNING: target of return is a lower address than the corresponding call. This is usually a problem with your trace.
[BTB] WARNING: target of return is a lower address than the corresponding call. This is usually a problem with your trace.
[BTB] WARNING: target of return is a lower address than the corresponding call. This is usually a problem with your trace.
[BTB] WARNING: target of return is a lower address than the corresponding call. This is usually a problem with your trace.
[BTB] WARNING: target of return is a lower address than the corresponding call. This is usually a problem with your trace.
[BTB] WARNING: target of return is a lower address than the corresponding call. This is usually a problem with your trace.
*** Reached end of trace: (0, "/data0/tzh/champsim_traces/QMM/srv_6_new.xz")
Warmup halting CPU 0 at instruction 50000003 cycle 10834193 for remainder of phase
Warmup finished CPU 0 instructions: 50000003 cycles: 10834193 cumulative IPC: 4.615 (Simulation time: 00 hr 02 min 22 sec)
Warmup complete CPU 0 instructions: 50000003 cycles: 10834193 cumulative IPC: 4.615 (Simulation time: 00 hr 02 min 22 sec)
*** Reached end of trace: (0, "/data0/tzh/champsim_traces/QMM/srv_6_new.xz")
*** Reached end of trace: (0, "/data0/tzh/champsim_traces/QMM/srv_6_new.xz")
*** Reached end of trace: (0, "/data0/tzh/champsim_traces/QMM/srv_6_new.xz")
Simulation finished CPU 0 instructions: 100000003 cycles: 53724327 cumulative IPC: 1.861 (Simulation time: 00 hr 10 min 29 sec)
Simulation complete CPU 0 instructions: 100000003 cycles: 53724327 cumulative IPC: 1.861 (Simulation time: 00 hr 10 min 29 sec)

ChampSim completed all CPUs

=== Simulation ===
CPU 0 runs /data0/tzh/champsim_traces/QMM/srv_6_new.xz

Region of Interest Statistics

CPU 0 cumulative IPC: 1.861 instructions: 100000003 cycles: 53724327
CPU 0 Branch Prediction Accuracy: 98.74% MPKI: 2.249 Average ROB Occupancy at Mispredict: 150.6
Branch type MPKI
BRANCH_DIRECT_JUMP: 0.1464
BRANCH_INDIRECT: 0.1665
BRANCH_CONDITIONAL: 1.327
BRANCH_DIRECT_CALL: 0.2688
BRANCH_INDIRECT_CALL: 0.07991
BRANCH_RETURN: 0.2602

cpu0->cpu0_STLB TOTAL        ACCESS:    1612990 HIT:    1441018 MISS:     171972 MSHR_MERGE:          0
cpu0->cpu0_STLB LOAD         ACCESS:    1612990 HIT:    1441018 MISS:     171972 MSHR_MERGE:          0
cpu0->cpu0_STLB RFO          ACCESS:          0 HIT:          0 MISS:          0 MSHR_MERGE:          0
cpu0->cpu0_STLB PREFETCH     ACCESS:          0 HIT:          0 MISS:          0 MSHR_MERGE:          0
cpu0->cpu0_STLB WRITE        ACCESS:          0 HIT:          0 MISS:          0 MSHR_MERGE:          0
cpu0->cpu0_STLB TRANSLATION  ACCESS:          0 HIT:          0 MISS:          0 MSHR_MERGE:          0
cpu0->cpu0_STLB PREFETCH REQUESTED:          0 ISSUED:          0 USEFUL:          0 USELESS:          0 LATE:          0
cpu0->cpu0_STLB AVERAGE MISS LATENCY: 36.07 cycles
cpu0->cpu0_L2C TOTAL        ACCESS:    4445962 HIT:    2874170 MISS:    1571792 MSHR_MERGE:          0
cpu0->cpu0_L2C LOAD         ACCESS:    3600339 HIT:    2210542 MISS:    1389797 MSHR_MERGE:          0
cpu0->cpu0_L2C RFO          ACCESS:     164823 HIT:      81053 MISS:      83770 MSHR_MERGE:          0
cpu0->cpu0_L2C PREFETCH     ACCESS:          0 HIT:          0 MISS:          0 MSHR_MERGE:          0
cpu0->cpu0_L2C WRITE        ACCESS:     519430 HIT:     516062 MISS:       3368 MSHR_MERGE:          0
cpu0->cpu0_L2C TRANSLATION  ACCESS:     161370 HIT:      66513 MISS:      94857 MSHR_MERGE:          0
cpu0->cpu0_L2C PREFETCH REQUESTED:          0 ISSUED:          0 USEFUL:          0 USELESS:          0 LATE:          0
cpu0->cpu0_L2C AVERAGE MISS LATENCY: 33.14 cycles
cpu0->cpu0_L1I TOTAL        ACCESS:   15875624 HIT:   11801672 MISS:    4073952 MSHR_MERGE:    1567349
cpu0->cpu0_L1I LOAD         ACCESS:   15875624 HIT:   11801672 MISS:    4073952 MSHR_MERGE:    1567349
cpu0->cpu0_L1I RFO          ACCESS:          0 HIT:          0 MISS:          0 MSHR_MERGE:          0
cpu0->cpu0_L1I PREFETCH     ACCESS:          0 HIT:          0 MISS:          0 MSHR_MERGE:          0
cpu0->cpu0_L1I WRITE        ACCESS:          0 HIT:          0 MISS:          0 MSHR_MERGE:          0
cpu0->cpu0_L1I TRANSLATION  ACCESS:          0 HIT:          0 MISS:          0 MSHR_MERGE:          0
cpu0->cpu0_L1I PREFETCH REQUESTED:          0 ISSUED:          0 USEFUL:          0 USELESS:          0 LATE:          0
cpu0->cpu0_L1I AVERAGE MISS LATENCY: 13.74 cycles
cpu0->cpu0_L1D TOTAL        ACCESS:   23087044 HIT:   20971488 MISS:    2115556 MSHR_MERGE:     695604
cpu0->cpu0_L1D LOAD         ACCESS:   12743694 HIT:   11255357 MISS:    1488337 MSHR_MERGE:     394588
cpu0->cpu0_L1D RFO          ACCESS:          0 HIT:          0 MISS:          0 MSHR_MERGE:          0
cpu0->cpu0_L1D PREFETCH     ACCESS:          0 HIT:          0 MISS:          0 MSHR_MERGE:          0
cpu0->cpu0_L1D WRITE        ACCESS:    9949829 HIT:    9487231 MISS:     462598 MSHR_MERGE:     297765
cpu0->cpu0_L1D TRANSLATION  ACCESS:     393521 HIT:     228900 MISS:     164621 MSHR_MERGE:       3251
cpu0->cpu0_L1D PREFETCH REQUESTED:          0 ISSUED:          0 USEFUL:          0 USELESS:          0 LATE:          0
cpu0->cpu0_L1D AVERAGE MISS LATENCY: 34.62 cycles
cpu0->cpu0_ITLB TOTAL        ACCESS:   13491350 HIT:   12502278 MISS:     989072 MSHR_MERGE:     612712
cpu0->cpu0_ITLB LOAD         ACCESS:   13491350 HIT:   12502278 MISS:     989072 MSHR_MERGE:     612712
cpu0->cpu0_ITLB RFO          ACCESS:          0 HIT:          0 MISS:          0 MSHR_MERGE:          0
cpu0->cpu0_ITLB PREFETCH     ACCESS:          0 HIT:          0 MISS:          0 MSHR_MERGE:          0
cpu0->cpu0_ITLB WRITE        ACCESS:          0 HIT:          0 MISS:          0 MSHR_MERGE:          0
cpu0->cpu0_ITLB TRANSLATION  ACCESS:          0 HIT:          0 MISS:          0 MSHR_MERGE:          0
cpu0->cpu0_ITLB PREFETCH REQUESTED:          0 ISSUED:          0 USEFUL:          0 USELESS:          0 LATE:          0
cpu0->cpu0_ITLB AVERAGE MISS LATENCY: 9.157 cycles
cpu0->cpu0_DTLB TOTAL        ACCESS:   21328095 HIT:   19646357 MISS:    1681738 MSHR_MERGE:     445108
cpu0->cpu0_DTLB LOAD         ACCESS:   21328095 HIT:   19646357 MISS:    1681738 MSHR_MERGE:     445108
cpu0->cpu0_DTLB RFO          ACCESS:          0 HIT:          0 MISS:          0 MSHR_MERGE:          0
cpu0->cpu0_DTLB PREFETCH     ACCESS:          0 HIT:          0 MISS:          0 MSHR_MERGE:          0
cpu0->cpu0_DTLB WRITE        ACCESS:          0 HIT:          0 MISS:          0 MSHR_MERGE:          0
cpu0->cpu0_DTLB TRANSLATION  ACCESS:          0 HIT:          0 MISS:          0 MSHR_MERGE:          0
cpu0->cpu0_DTLB PREFETCH REQUESTED:          0 ISSUED:          0 USEFUL:          0 USELESS:          0 LATE:          0
cpu0->cpu0_DTLB AVERAGE MISS LATENCY: 8.905 cycles
cpu0->LLC TOTAL        ACCESS:    1836985 HIT:    1681167 MISS:     155818 MSHR_MERGE:          0
cpu0->LLC LOAD         ACCESS:    1389796 HIT:    1267497 MISS:     122299 MSHR_MERGE:          0
cpu0->LLC RFO          ACCESS:      83770 HIT:      61024 MISS:      22746 MSHR_MERGE:          0
cpu0->LLC PREFETCH     ACCESS:          0 HIT:          0 MISS:          0 MSHR_MERGE:          0
cpu0->LLC WRITE        ACCESS:     268562 HIT:     263913 MISS:       4649 MSHR_MERGE:          0
cpu0->LLC TRANSLATION  ACCESS:      94857 HIT:      88733 MISS:       6124 MSHR_MERGE:          0
cpu0->LLC PREFETCH REQUESTED:          0 ISSUED:          0 USEFUL:          0 USELESS:          0 LATE:          0
cpu0->LLC AVERAGE MISS LATENCY: 182.4 cycles

DRAM Statistics

Channel 0 RQ ROW_BUFFER_HIT:       5644
  ROW_BUFFER_MISS:     145523
  AVG DBUS CONGESTED CYCLE: 15.65
Channel 0 WQ ROW_BUFFER_HIT:      22530
  ROW_BUFFER_MISS:      82233
  FULL:          0
Channel 0 REFRESHES ISSUED:       4477

[ROI Statistics]
[System Configuration]
num_cpus 1
cpu_freq 4000
fetch_width 6
decode_width 6
dispatch_width 6
execute_width 6
lq_width 2
sq_width 2
retire_width 6
scheduler_size 128
branch_mispredict_penalty 15
rob_size 352
lq_size 128
sq_size 72
ifetch_buffer_size 64
decode_buffer_size 32
dispatch_buffer_size 32
register_file_size 288
decode_latency 1
dispatch_latency 1
schedule_latency 1
execute_latency 1
page_size 4096
block_size 64
core_0_itlb_set 16
core_0_itlb_way 4
core_0_itlb_rq_size 16
core_0_itlb_wq_size 16
core_0_itlb_pq_size 0
core_0_itlb_mshr_size 8
core_0_itlb_hit_latency 1
core_0_itlb_fill_latency 1
core_0_itlb_max_tag_check 2
core_0_itlb_max_fill 2
core_0_dtlb_set 16
core_0_dtlb_way 4
core_0_dtlb_rq_size 16
core_0_dtlb_wq_size 16
core_0_dtlb_pq_size 0
core_0_dtlb_mshr_size 8
core_0_dtlb_hit_latency 1
core_0_dtlb_fill_latency 1
core_0_dtlb_max_tag_check 2
core_0_dtlb_max_fill 2
core_0_stlb_set 128
core_0_stlb_way 12
core_0_stlb_rq_size 32
core_0_stlb_wq_size 32
core_0_stlb_pq_size 0
core_0_stlb_mshr_size 16
core_0_stlb_hit_latency 4
core_0_stlb_fill_latency 4
core_0_stlb_max_tag_check 1
core_0_stlb_max_fill 1
core_0_l1i_set 64
core_0_l1i_way 8
core_0_l1i_rq_size 64
core_0_l1i_wq_size 64
core_0_l1i_pq_size 32
core_0_l1i_mshr_size 8
core_0_l1i_hit_latency 2
core_0_l1i_fill_latency 2
core_0_l1i_max_tag_check 2
core_0_l1i_max_fill 2
core_0_l1d_set 64
core_0_l1d_way 12
core_0_l1d_rq_size 64
core_0_l1d_wq_size 64
core_0_l1d_pq_size 8
core_0_l1d_mshr_size 16
core_0_l1d_hit_latency 2
core_0_l1d_fill_latency 3
core_0_l1d_max_tag_check 2
core_0_l1d_max_fill 2
core_0_l2c_set 1024
core_0_l2c_way 8
core_0_l2c_rq_size 32
core_0_l2c_wq_size 32
core_0_l2c_pq_size 16
core_0_l2c_mshr_size 32
core_0_l2c_hit_latency 5
core_0_l2c_fill_latency 5
core_0_l2c_max_tag_check 1
core_0_l2c_max_fill 1
llc_set 2048
llc_way 16
llc_rq_size 32
llc_wq_size 32
llc_pq_size 32
llc_mshr_size 64
llc_hit_latency 10
llc_fill_latency 10
llc_max_tag_check 1
llc_max_fill 1
dram_channels 1
dram_ranks 1
dram_bankgroups 8
dram_banks 4
dram_rows 65536
dram_columns 1024
dram_channel_width 8
dram_rq_size 64
dram_wq_size 64
dram_size 17179869184
core_0_itlb_prefetcher no
core_0_dtlb_prefetcher no
core_0_stlb_prefetcher no
core_0_l1i_prefetcher no
core_0_l1d_prefetcher no
core_0_l2c_prefetcher no
llc_prefetcher no
llc_replacement drrip

Core_0_instructions 100000003
Core_0_cycles 53724327
Core_0_IPC 1.86135
Core_0_branch_prediction_accuracy 98.7414
Core_0_branch_MPKI 2.24872
Core_0_average_ROB_occupancy_at_mispredict 150.597

Core_0_ITLB_total_access 13491350
Core_0_ITLB_total_hit 12502278
Core_0_ITLB_total_miss 989072
Core_0_ITLB_total_MPKI 9.89072
Core_0_ITLB_total_miss_rate 0.0733116
Core_0_ITLB_demand_access 13491350
Core_0_ITLB_demand_hit 12502278
Core_0_ITLB_demand_miss 989072
Core_0_ITLB_demand_MPKI 9.89072
Core_0_ITLB_demand_miss_rate 0.0733116
Core_0_ITLB_load_access 13491350
Core_0_ITLB_load_hit 12502278
Core_0_ITLB_load_miss 989072
Core_0_ITLB_load_MPKI 9.89072
Core_0_ITLB_load_miss_rate 0.0733116
Core_0_ITLB_rfo_access 0
Core_0_ITLB_rfo_hit 0
Core_0_ITLB_rfo_miss 0
Core_0_ITLB_rfo_MPKI 0
Core_0_ITLB_rfo_miss_rate 0
Core_0_ITLB_prefetch_access 0
Core_0_ITLB_prefetch_hit 0
Core_0_ITLB_prefetch_miss 0
Core_0_ITLB_prefetch_MPKI 0
Core_0_ITLB_prefetch_miss_rate 0
Core_0_ITLB_writeback_access 0
Core_0_ITLB_writeback_hit 0
Core_0_ITLB_writeback_miss 0
Core_0_ITLB_writeback_MPKI 0
Core_0_ITLB_writeback_miss_rate 0
Core_0_ITLB_prefetch_requested 0
Core_0_ITLB_prefetch_issued 0
Core_0_ITLB_prefetch_useful 0
Core_0_ITLB_prefetch_useless 0
Core_0_ITLB_prefetch_late 0
Core_0_ITLB_prefetch_accuracy 0
Core_0_ITLB_prefetch_coverage 0

Core_0_DTLB_total_access 21328095
Core_0_DTLB_total_hit 19646357
Core_0_DTLB_total_miss 1681738
Core_0_DTLB_total_MPKI 16.8174
Core_0_DTLB_total_miss_rate 0.0788508
Core_0_DTLB_demand_access 21328095
Core_0_DTLB_demand_hit 19646357
Core_0_DTLB_demand_miss 1681738
Core_0_DTLB_demand_MPKI 16.8174
Core_0_DTLB_demand_miss_rate 0.0788508
Core_0_DTLB_load_access 21328095
Core_0_DTLB_load_hit 19646357
Core_0_DTLB_load_miss 1681738
Core_0_DTLB_load_MPKI 16.8174
Core_0_DTLB_load_miss_rate 0.0788508
Core_0_DTLB_rfo_access 0
Core_0_DTLB_rfo_hit 0
Core_0_DTLB_rfo_miss 0
Core_0_DTLB_rfo_MPKI 0
Core_0_DTLB_rfo_miss_rate 0
Core_0_DTLB_prefetch_access 0
Core_0_DTLB_prefetch_hit 0
Core_0_DTLB_prefetch_miss 0
Core_0_DTLB_prefetch_MPKI 0
Core_0_DTLB_prefetch_miss_rate 0
Core_0_DTLB_writeback_access 0
Core_0_DTLB_writeback_hit 0
Core_0_DTLB_writeback_miss 0
Core_0_DTLB_writeback_MPKI 0
Core_0_DTLB_writeback_miss_rate 0
Core_0_DTLB_prefetch_requested 0
Core_0_DTLB_prefetch_issued 0
Core_0_DTLB_prefetch_useful 0
Core_0_DTLB_prefetch_useless 0
Core_0_DTLB_prefetch_late 0
Core_0_DTLB_prefetch_accuracy 0
Core_0_DTLB_prefetch_coverage 0

Core_0_STLB_total_access 1612990
Core_0_STLB_total_hit 1441018
Core_0_STLB_total_miss 171972
Core_0_STLB_total_MPKI 1.71972
Core_0_STLB_total_miss_rate 0.106617
Core_0_STLB_demand_access 1612990
Core_0_STLB_demand_hit 1441018
Core_0_STLB_demand_miss 171972
Core_0_STLB_demand_MPKI 1.71972
Core_0_STLB_demand_miss_rate 0.106617
Core_0_STLB_load_access 1612990
Core_0_STLB_load_hit 1441018
Core_0_STLB_load_miss 171972
Core_0_STLB_load_MPKI 1.71972
Core_0_STLB_load_miss_rate 0.106617
Core_0_STLB_rfo_access 0
Core_0_STLB_rfo_hit 0
Core_0_STLB_rfo_miss 0
Core_0_STLB_rfo_MPKI 0
Core_0_STLB_rfo_miss_rate 0
Core_0_STLB_prefetch_access 0
Core_0_STLB_prefetch_hit 0
Core_0_STLB_prefetch_miss 0
Core_0_STLB_prefetch_MPKI 0
Core_0_STLB_prefetch_miss_rate 0
Core_0_STLB_writeback_access 0
Core_0_STLB_writeback_hit 0
Core_0_STLB_writeback_miss 0
Core_0_STLB_writeback_MPKI 0
Core_0_STLB_writeback_miss_rate 0
Core_0_STLB_prefetch_requested 0
Core_0_STLB_prefetch_issued 0
Core_0_STLB_prefetch_useful 0
Core_0_STLB_prefetch_useless 0
Core_0_STLB_prefetch_late 0
Core_0_STLB_prefetch_accuracy 0
Core_0_STLB_prefetch_coverage 0

Core_0_L1I_total_access 15875624
Core_0_L1I_total_hit 11801672
Core_0_L1I_total_miss 4073952
Core_0_L1I_total_MPKI 40.7395
Core_0_L1I_total_miss_rate 0.256617
Core_0_L1I_demand_access 15875624
Core_0_L1I_demand_hit 11801672
Core_0_L1I_demand_miss 4073952
Core_0_L1I_demand_MPKI 40.7395
Core_0_L1I_demand_miss_rate 0.256617
Core_0_L1I_load_access 15875624
Core_0_L1I_load_hit 11801672
Core_0_L1I_load_miss 4073952
Core_0_L1I_load_MPKI 40.7395
Core_0_L1I_load_miss_rate 0.256617
Core_0_L1I_rfo_access 0
Core_0_L1I_rfo_hit 0
Core_0_L1I_rfo_miss 0
Core_0_L1I_rfo_MPKI 0
Core_0_L1I_rfo_miss_rate 0
Core_0_L1I_prefetch_access 0
Core_0_L1I_prefetch_hit 0
Core_0_L1I_prefetch_miss 0
Core_0_L1I_prefetch_MPKI 0
Core_0_L1I_prefetch_miss_rate 0
Core_0_L1I_writeback_access 0
Core_0_L1I_writeback_hit 0
Core_0_L1I_writeback_miss 0
Core_0_L1I_writeback_MPKI 0
Core_0_L1I_writeback_miss_rate 0
Core_0_L1I_prefetch_requested 0
Core_0_L1I_prefetch_issued 0
Core_0_L1I_prefetch_useful 0
Core_0_L1I_prefetch_useless 0
Core_0_L1I_prefetch_late 0
Core_0_L1I_prefetch_accuracy 0
Core_0_L1I_prefetch_coverage 0

Core_0_L1D_total_access 22693523
Core_0_L1D_total_hit 20742588
Core_0_L1D_total_miss 1950935
Core_0_L1D_total_MPKI 19.5093
Core_0_L1D_total_miss_rate 0.0859688
Core_0_L1D_demand_access 12743694
Core_0_L1D_demand_hit 11255357
Core_0_L1D_demand_miss 1488337
Core_0_L1D_demand_MPKI 14.8834
Core_0_L1D_demand_miss_rate 0.11679
Core_0_L1D_load_access 12743694
Core_0_L1D_load_hit 11255357
Core_0_L1D_load_miss 1488337
Core_0_L1D_load_MPKI 14.8834
Core_0_L1D_load_miss_rate 0.11679
Core_0_L1D_rfo_access 0
Core_0_L1D_rfo_hit 0
Core_0_L1D_rfo_miss 0
Core_0_L1D_rfo_MPKI 0
Core_0_L1D_rfo_miss_rate 0
Core_0_L1D_prefetch_access 0
Core_0_L1D_prefetch_hit 0
Core_0_L1D_prefetch_miss 0
Core_0_L1D_prefetch_MPKI 0
Core_0_L1D_prefetch_miss_rate 0
Core_0_L1D_writeback_access 9949829
Core_0_L1D_writeback_hit 9487231
Core_0_L1D_writeback_miss 462598
Core_0_L1D_writeback_MPKI 4.62598
Core_0_L1D_writeback_miss_rate 0.0464931
Core_0_L1D_prefetch_requested 0
Core_0_L1D_prefetch_issued 0
Core_0_L1D_prefetch_useful 0
Core_0_L1D_prefetch_useless 0
Core_0_L1D_prefetch_late 0
Core_0_L1D_prefetch_accuracy 0
Core_0_L1D_prefetch_coverage 0

Core_0_L2C_total_access 4284592
Core_0_L2C_total_hit 2807657
Core_0_L2C_total_miss 1476935
Core_0_L2C_total_MPKI 14.7693
Core_0_L2C_total_miss_rate 0.344708
Core_0_L2C_demand_access 3765162
Core_0_L2C_demand_hit 2291595
Core_0_L2C_demand_miss 1473567
Core_0_L2C_demand_MPKI 14.7357
Core_0_L2C_demand_miss_rate 0.391369
Core_0_L2C_load_access 3600339
Core_0_L2C_load_hit 2210542
Core_0_L2C_load_miss 1389797
Core_0_L2C_load_MPKI 13.898
Core_0_L2C_load_miss_rate 0.386018
Core_0_L2C_rfo_access 164823
Core_0_L2C_rfo_hit 81053
Core_0_L2C_rfo_miss 83770
Core_0_L2C_rfo_MPKI 0.8377
Core_0_L2C_rfo_miss_rate 0.508242
Core_0_L2C_prefetch_access 0
Core_0_L2C_prefetch_hit 0
Core_0_L2C_prefetch_miss 0
Core_0_L2C_prefetch_MPKI 0
Core_0_L2C_prefetch_miss_rate 0
Core_0_L2C_writeback_access 519430
Core_0_L2C_writeback_hit 516062
Core_0_L2C_writeback_miss 3368
Core_0_L2C_writeback_MPKI 0.03368
Core_0_L2C_writeback_miss_rate 0.00648403
Core_0_L2C_prefetch_requested 0
Core_0_L2C_prefetch_issued 0
Core_0_L2C_prefetch_useful 0
Core_0_L2C_prefetch_useless 0
Core_0_L2C_prefetch_late 0
Core_0_L2C_prefetch_accuracy 0
Core_0_L2C_prefetch_coverage 0

Core_0_LLC_total_access 1742128
Core_0_LLC_total_hit 1592434
Core_0_LLC_total_miss 149694
Core_0_LLC_total_MPKI 1.49694
Core_0_LLC_total_miss_rate 0.0859259
Core_0_LLC_demand_access 1473566
Core_0_LLC_demand_hit 1328521
Core_0_LLC_demand_miss 145045
Core_0_LLC_demand_MPKI 1.45045
Core_0_LLC_demand_miss_rate 0.0984313
Core_0_LLC_load_access 1389796
Core_0_LLC_load_hit 1267497
Core_0_LLC_load_miss 122299
Core_0_LLC_load_MPKI 1.22299
Core_0_LLC_load_miss_rate 0.0879978
Core_0_LLC_rfo_access 83770
Core_0_LLC_rfo_hit 61024
Core_0_LLC_rfo_miss 22746
Core_0_LLC_rfo_MPKI 0.22746
Core_0_LLC_rfo_miss_rate 0.271529
Core_0_LLC_prefetch_access 0
Core_0_LLC_prefetch_hit 0
Core_0_LLC_prefetch_miss 0
Core_0_LLC_prefetch_MPKI 0
Core_0_LLC_prefetch_miss_rate 0
Core_0_LLC_writeback_access 268562
Core_0_LLC_writeback_hit 263913
Core_0_LLC_writeback_miss 4649
Core_0_LLC_writeback_MPKI 0.04649
Core_0_LLC_writeback_miss_rate 0.0173107
Core_0_LLC_prefetch_requested 0
Core_0_LLC_prefetch_issued 0
Core_0_LLC_prefetch_useful 0
Core_0_LLC_prefetch_useless 0
Core_0_LLC_prefetch_late 0
Core_0_LLC_prefetch_accuracy 0
Core_0_LLC_prefetch_coverage 0

[DRAM Statistics]
Channel_0_RQ_row_buffer_hit 5644
Channel_0_RQ_row_buffer_miss 145523
Channel_0_WQ_row_buffer_hit 22530
Channel_0_WQ_row_buffer_miss 82233
Channel_0_WQ_full 0
Channel_0_dbus_congested 795807
DRAM_total_RQ_row_buffer_hit 5644
DRAM_total_RQ_row_buffer_miss 145523
DRAM_total_WQ_row_buffer_hit 22530
DRAM_total_WQ_row_buffer_miss 82233
DRAM_total_WQ_full 0
DRAM_total_dbus_congested 795807
DRAM_avg_congested_cycle 15.6478

====== DRAM_RQ_TRAFFIC ========
DRAM_RQ_READ_TRAFFIC_BREAKDOWN:
data_demand_read.count = 134988
data_demand_read.share = 89.30%

inst_demand_read.count = 10057
inst_demand_read.share = 6.65%

cache_inst_prefetch.count = 0
cache_inst_prefetch.share = 0.00%

cache_data_prefetch.count = 0
cache_data_prefetch.share = 0.00%

stlb_data_demand.count = 5921
stlb_data_demand.share = 3.92%

stlb_inst_demand.count = 203
stlb_inst_demand.share = 0.13%

stlb_l1i_pref.count = 0
stlb_l1i_pref.share = 0.00%

stlb_l1d_pref.count = 0
stlb_l1d_pref.share = 0.00%

DRAM_RQ_READ_TRAFFIC_SUMMARY:
cache_demand.count = 145045
cache_demand.share = 95.95%

cache_prefetch.count = 0
cache_prefetch.share = 0.00%

stlb_demand.count = 6124
stlb_demand.share = 4.05%

stlb_prefetch.count = 0
stlb_prefetch.share = 0.00%

DRAM_RQ_READ_TRAFFIC_DEBUG:
total_classified_read.count = 151169
unclassified_read.count = 0
total_read_with_other.count = 151169

classified_plus_unclassified_check.count = 151169
dram_rq_read_total_observed.count = 151169
dram_rq_read_total_observed.per_1K_instructions = 1.51169

STLB_MISS_PTW_DRAM_TOUCH_BREAKDOWN:
stlb_miss_total.count = 171972

stlb_miss_touch_dram.count = 6101
stlb_miss_touch_dram.share = 3.55%

stlb_miss_no_dram_touch.count = 165871
stlb_miss_no_dram_touch.share = 96.45%

STLB_MISS_PTW_DRAM_TOUCH_DEBUG:
stlb_miss_touch_plus_no_touch.count = 171972
stlb_miss_total_check.count = 171972

======STLB miss causes ========
Core_0_STLB_miss_cause_breakdown
Core_0_STLB_cause_Demand_Data_miss 110556
Core_0_STLB_cause_Demand_Data_miss_rate 0.068541
Core_0_STLB_cause_Demand_Instruction_miss 61416
Core_0_STLB_cause_Demand_Instruction_miss_rate 0.0380759
Core_0_STLB_cause_L1D_Prefetch_miss 0
Core_0_STLB_cause_L1D_Prefetch_miss_rate 0
Core_0_STLB_cause_L1I_Prefetch_miss 0
Core_0_STLB_cause_L1I_Prefetch_miss_rate 0
Core_0_STLB_cause_Other_miss 0
Core_0_STLB_cause_Other_miss_rate 0
Core_0_STLB_Demand_miss 171972
Core_0_STLB_Demand_miss_rate 0.106617
Core_0_STLB_L1D_Prefetch_miss 0
Core_0_STLB_L1D_Prefetch_miss_rate 0
Core_0_STLB_Other_miss 0
Core_0_STLB_Other_miss_rate 0
