[VMEM] WARNING: physical memory size is smaller than virtual memory size.

*** ChampSim Multicore Out-of-Order Simulator ***
Warmup Instructions: 50000000
Simulation Instructions: 100000000
Number of CPUs: 1
Page size: 4096
Core 0: /data0/tzh/champsim_traces/QMM/srv_31_new.xz
Off-chip DRAM Size: 16 GiB Channels: 1 Width: 64-bit Data Rate: 3205 MT/s
*** Reached end of trace: (0, "/data0/tzh/champsim_traces/QMM/srv_31_new.xz")
[BTB] WARNING: target of return is a lower address than the corresponding call. This is usually a problem with your trace.
[BTB] WARNING: target of return is a lower address than the corresponding call. This is usually a problem with your trace.
Warmup halting CPU 0 at instruction 50000005 cycle 11843335 for remainder of phase
Warmup finished CPU 0 instructions: 50000005 cycles: 11843335 cumulative IPC: 4.222 (Simulation time: 00 hr 02 min 34 sec)
Warmup complete CPU 0 instructions: 50000005 cycles: 11843335 cumulative IPC: 4.222 (Simulation time: 00 hr 02 min 34 sec)
*** Reached end of trace: (0, "/data0/tzh/champsim_traces/QMM/srv_31_new.xz")
[BTB] WARNING: target of return is a lower address than the corresponding call. This is usually a problem with your trace.
[BTB] WARNING: target of return is a lower address than the corresponding call. This is usually a problem with your trace.
*** Reached end of trace: (0, "/data0/tzh/champsim_traces/QMM/srv_31_new.xz")
[BTB] WARNING: target of return is a lower address than the corresponding call. This is usually a problem with your trace.
[BTB] WARNING: target of return is a lower address than the corresponding call. This is usually a problem with your trace.
*** Reached end of trace: (0, "/data0/tzh/champsim_traces/QMM/srv_31_new.xz")
[BTB] WARNING: target of return is a lower address than the corresponding call. This is usually a problem with your trace.
[BTB] WARNING: target of return is a lower address than the corresponding call. This is usually a problem with your trace.
Simulation finished CPU 0 instructions: 100000004 cycles: 41343109 cumulative IPC: 2.419 (Simulation time: 00 hr 09 min 52 sec)
Simulation complete CPU 0 instructions: 100000004 cycles: 41343109 cumulative IPC: 2.419 (Simulation time: 00 hr 09 min 52 sec)

ChampSim completed all CPUs

=== Simulation ===
CPU 0 runs /data0/tzh/champsim_traces/QMM/srv_31_new.xz

Region of Interest Statistics

CPU 0 cumulative IPC: 2.419 instructions: 100000004 cycles: 41343109
CPU 0 Branch Prediction Accuracy: 99.65% MPKI: 0.6337 Average ROB Occupancy at Mispredict: 229
Branch type MPKI
BRANCH_DIRECT_JUMP: 0
BRANCH_INDIRECT: 0.00624
BRANCH_CONDITIONAL: 0.626
BRANCH_DIRECT_CALL: 0
BRANCH_INDIRECT_CALL: 0.00132
BRANCH_RETURN: 0.00018

cpu0->cpu0_STLB TOTAL        ACCESS:     953653 HIT:     910072 MISS:      43581 MSHR_MERGE:          0
cpu0->cpu0_STLB LOAD         ACCESS:     953653 HIT:     910072 MISS:      43581 MSHR_MERGE:          0
cpu0->cpu0_STLB RFO          ACCESS:          0 HIT:          0 MISS:          0 MSHR_MERGE:          0
cpu0->cpu0_STLB PREFETCH     ACCESS:          0 HIT:          0 MISS:          0 MSHR_MERGE:          0
cpu0->cpu0_STLB WRITE        ACCESS:          0 HIT:          0 MISS:          0 MSHR_MERGE:          0
cpu0->cpu0_STLB TRANSLATION  ACCESS:          0 HIT:          0 MISS:          0 MSHR_MERGE:          0
cpu0->cpu0_STLB PREFETCH REQUESTED:          0 ISSUED:          0 USEFUL:          0 USELESS:          0 LATE:          0
cpu0->cpu0_STLB AVERAGE MISS LATENCY: 29.77 cycles
cpu0->cpu0_L2C TOTAL        ACCESS:     718423 HIT:     464204 MISS:     254219 MSHR_MERGE:          0
cpu0->cpu0_L2C LOAD         ACCESS:     520708 HIT:     338149 MISS:     182559 MSHR_MERGE:          0
cpu0->cpu0_L2C RFO          ACCESS:      61939 HIT:       5542 MISS:      56397 MSHR_MERGE:          0
cpu0->cpu0_L2C PREFETCH     ACCESS:          0 HIT:          0 MISS:          0 MSHR_MERGE:          0
cpu0->cpu0_L2C WRITE        ACCESS:      87835 HIT:      87310 MISS:        525 MSHR_MERGE:          0
cpu0->cpu0_L2C TRANSLATION  ACCESS:      47941 HIT:      33203 MISS:      14738 MSHR_MERGE:          0
cpu0->cpu0_L2C PREFETCH REQUESTED:          0 ISSUED:          0 USEFUL:          0 USELESS:          0 LATE:          0
cpu0->cpu0_L2C AVERAGE MISS LATENCY: 69.61 cycles
cpu0->cpu0_L1I TOTAL        ACCESS:   17383436 HIT:   16885372 MISS:     498064 MSHR_MERGE:     167764
cpu0->cpu0_L1I LOAD         ACCESS:   17383436 HIT:   16885372 MISS:     498064 MSHR_MERGE:     167764
cpu0->cpu0_L1I RFO          ACCESS:          0 HIT:          0 MISS:          0 MSHR_MERGE:          0
cpu0->cpu0_L1I PREFETCH     ACCESS:          0 HIT:          0 MISS:          0 MSHR_MERGE:          0
cpu0->cpu0_L1I WRITE        ACCESS:          0 HIT:          0 MISS:          0 MSHR_MERGE:          0
cpu0->cpu0_L1I TRANSLATION  ACCESS:          0 HIT:          0 MISS:          0 MSHR_MERGE:          0
cpu0->cpu0_L1I PREFETCH REQUESTED:          0 ISSUED:          0 USEFUL:          0 USELESS:          0 LATE:          0
cpu0->cpu0_L1I AVERAGE MISS LATENCY: 9.336 cycles
cpu0->cpu0_L1D TOTAL        ACCESS:   25190532 HIT:   24466262 MISS:     724270 MSHR_MERGE:     423973
cpu0->cpu0_L1D LOAD         ACCESS:   13099784 HIT:   12733550 MISS:     366234 MSHR_MERGE:     175820
cpu0->cpu0_L1D RFO          ACCESS:          0 HIT:          0 MISS:          0 MSHR_MERGE:          0
cpu0->cpu0_L1D PREFETCH     ACCESS:          0 HIT:          0 MISS:          0 MSHR_MERGE:          0
cpu0->cpu0_L1D WRITE        ACCESS:   11986386 HIT:   11676571 MISS:     309815 MSHR_MERGE:     247873
cpu0->cpu0_L1D TRANSLATION  ACCESS:     104362 HIT:      56141 MISS:      48221 MSHR_MERGE:        280
cpu0->cpu0_L1D PREFETCH REQUESTED:          0 ISSUED:          0 USEFUL:          0 USELESS:          0 LATE:          0
cpu0->cpu0_L1D AVERAGE MISS LATENCY: 65.72 cycles
cpu0->cpu0_ITLB TOTAL        ACCESS:   15700608 HIT:   15571484 MISS:     129124 MSHR_MERGE:      79102
cpu0->cpu0_ITLB LOAD         ACCESS:   15700608 HIT:   15571484 MISS:     129124 MSHR_MERGE:      79102
cpu0->cpu0_ITLB RFO          ACCESS:          0 HIT:          0 MISS:          0 MSHR_MERGE:          0
cpu0->cpu0_ITLB PREFETCH     ACCESS:          0 HIT:          0 MISS:          0 MSHR_MERGE:          0
cpu0->cpu0_ITLB WRITE        ACCESS:          0 HIT:          0 MISS:          0 MSHR_MERGE:          0
cpu0->cpu0_ITLB TRANSLATION  ACCESS:          0 HIT:          0 MISS:          0 MSHR_MERGE:          0
cpu0->cpu0_ITLB PREFETCH REQUESTED:          0 ISSUED:          0 USEFUL:          0 USELESS:          0 LATE:          0
cpu0->cpu0_ITLB AVERAGE MISS LATENCY: 6.495 cycles
cpu0->cpu0_DTLB TOTAL        ACCESS:   22987611 HIT:   21549126 MISS:    1438485 MSHR_MERGE:     534854
cpu0->cpu0_DTLB LOAD         ACCESS:   22987611 HIT:   21549126 MISS:    1438485 MSHR_MERGE:     534854
cpu0->cpu0_DTLB RFO          ACCESS:          0 HIT:          0 MISS:          0 MSHR_MERGE:          0
cpu0->cpu0_DTLB PREFETCH     ACCESS:          0 HIT:          0 MISS:          0 MSHR_MERGE:          0
cpu0->cpu0_DTLB WRITE        ACCESS:          0 HIT:          0 MISS:          0 MSHR_MERGE:          0
cpu0->cpu0_DTLB TRANSLATION  ACCESS:          0 HIT:          0 MISS:          0 MSHR_MERGE:          0
cpu0->cpu0_DTLB PREFETCH REQUESTED:          0 ISSUED:          0 USEFUL:          0 USELESS:          0 LATE:          0
cpu0->cpu0_DTLB AVERAGE MISS LATENCY: 6.403 cycles
cpu0->LLC TOTAL        ACCESS:     330292 HIT:     248564 MISS:      81728 MSHR_MERGE:          0
cpu0->LLC LOAD         ACCESS:     182559 HIT:     109573 MISS:      72986 MSHR_MERGE:          0
cpu0->LLC RFO          ACCESS:      56397 HIT:      50735 MISS:       5662 MSHR_MERGE:          0
cpu0->LLC PREFETCH     ACCESS:          0 HIT:          0 MISS:          0 MSHR_MERGE:          0
cpu0->LLC WRITE        ACCESS:      76598 HIT:      74213 MISS:       2385 MSHR_MERGE:          0
cpu0->LLC TRANSLATION  ACCESS:      14738 HIT:      14043 MISS:        695 MSHR_MERGE:          0
cpu0->LLC PREFETCH REQUESTED:          0 ISSUED:          0 USEFUL:          0 USELESS:          0 LATE:          0
cpu0->LLC AVERAGE MISS LATENCY: 169.1 cycles

DRAM Statistics

Channel 0 RQ ROW_BUFFER_HIT:       3805
  ROW_BUFFER_MISS:      75529
  AVG DBUS CONGESTED CYCLE: 13.16
Channel 0 WQ ROW_BUFFER_HIT:       1837
  ROW_BUFFER_MISS:       5755
  FULL:          0
Channel 0 REFRESHES ISSUED:       3446

[ROI Statistics]
[System Configuration]
num_cpus 1
cpu_freq 4000
fetch_width 6
decode_width 6
dispatch_width 6
execute_width 6
lq_width 2
sq_width 2
retire_width 6
scheduler_size 128
branch_mispredict_penalty 15
rob_size 352
lq_size 128
sq_size 72
ifetch_buffer_size 64
decode_buffer_size 32
dispatch_buffer_size 32
register_file_size 288
decode_latency 1
dispatch_latency 1
schedule_latency 1
execute_latency 1
page_size 4096
block_size 64
core_0_itlb_set 16
core_0_itlb_way 4
core_0_itlb_rq_size 16
core_0_itlb_wq_size 16
core_0_itlb_pq_size 0
core_0_itlb_mshr_size 8
core_0_itlb_hit_latency 1
core_0_itlb_fill_latency 1
core_0_itlb_max_tag_check 2
core_0_itlb_max_fill 2
core_0_dtlb_set 16
core_0_dtlb_way 4
core_0_dtlb_rq_size 16
core_0_dtlb_wq_size 16
core_0_dtlb_pq_size 0
core_0_dtlb_mshr_size 8
core_0_dtlb_hit_latency 1
core_0_dtlb_fill_latency 1
core_0_dtlb_max_tag_check 2
core_0_dtlb_max_fill 2
core_0_stlb_set 128
core_0_stlb_way 12
core_0_stlb_rq_size 32
core_0_stlb_wq_size 32
core_0_stlb_pq_size 0
core_0_stlb_mshr_size 16
core_0_stlb_hit_latency 4
core_0_stlb_fill_latency 4
core_0_stlb_max_tag_check 1
core_0_stlb_max_fill 1
core_0_l1i_set 64
core_0_l1i_way 8
core_0_l1i_rq_size 64
core_0_l1i_wq_size 64
core_0_l1i_pq_size 32
core_0_l1i_mshr_size 8
core_0_l1i_hit_latency 2
core_0_l1i_fill_latency 2
core_0_l1i_max_tag_check 2
core_0_l1i_max_fill 2
core_0_l1d_set 64
core_0_l1d_way 12
core_0_l1d_rq_size 64
core_0_l1d_wq_size 64
core_0_l1d_pq_size 8
core_0_l1d_mshr_size 16
core_0_l1d_hit_latency 2
core_0_l1d_fill_latency 3
core_0_l1d_max_tag_check 2
core_0_l1d_max_fill 2
core_0_l2c_set 1024
core_0_l2c_way 8
core_0_l2c_rq_size 32
core_0_l2c_wq_size 32
core_0_l2c_pq_size 16
core_0_l2c_mshr_size 32
core_0_l2c_hit_latency 5
core_0_l2c_fill_latency 5
core_0_l2c_max_tag_check 1
core_0_l2c_max_fill 1
llc_set 2048
llc_way 16
llc_rq_size 32
llc_wq_size 32
llc_pq_size 32
llc_mshr_size 64
llc_hit_latency 10
llc_fill_latency 10
llc_max_tag_check 1
llc_max_fill 1
dram_channels 1
dram_ranks 1
dram_bankgroups 8
dram_banks 4
dram_rows 65536
dram_columns 1024
dram_channel_width 8
dram_rq_size 64
dram_wq_size 64
dram_size 17179869184
core_0_itlb_prefetcher no
core_0_dtlb_prefetcher no
core_0_stlb_prefetcher no
core_0_l1i_prefetcher no
core_0_l1d_prefetcher no
core_0_l2c_prefetcher no
llc_prefetcher no
llc_replacement drrip

Core_0_instructions 100000004
Core_0_cycles 41343109
Core_0_IPC 2.41878
Core_0_branch_prediction_accuracy 99.653
Core_0_branch_MPKI 0.63373
Core_0_average_ROB_occupancy_at_mispredict 228.995

Core_0_ITLB_total_access 15700608
Core_0_ITLB_total_hit 15571484
Core_0_ITLB_total_miss 129124
Core_0_ITLB_total_MPKI 1.29124
Core_0_ITLB_total_miss_rate 0.00822414
Core_0_ITLB_demand_access 15700608
Core_0_ITLB_demand_hit 15571484
Core_0_ITLB_demand_miss 129124
Core_0_ITLB_demand_MPKI 1.29124
Core_0_ITLB_demand_miss_rate 0.00822414
Core_0_ITLB_load_access 15700608
Core_0_ITLB_load_hit 15571484
Core_0_ITLB_load_miss 129124
Core_0_ITLB_load_MPKI 1.29124
Core_0_ITLB_load_miss_rate 0.00822414
Core_0_ITLB_rfo_access 0
Core_0_ITLB_rfo_hit 0
Core_0_ITLB_rfo_miss 0
Core_0_ITLB_rfo_MPKI 0
Core_0_ITLB_rfo_miss_rate 0
Core_0_ITLB_prefetch_access 0
Core_0_ITLB_prefetch_hit 0
Core_0_ITLB_prefetch_miss 0
Core_0_ITLB_prefetch_MPKI 0
Core_0_ITLB_prefetch_miss_rate 0
Core_0_ITLB_writeback_access 0
Core_0_ITLB_writeback_hit 0
Core_0_ITLB_writeback_miss 0
Core_0_ITLB_writeback_MPKI 0
Core_0_ITLB_writeback_miss_rate 0
Core_0_ITLB_prefetch_requested 0
Core_0_ITLB_prefetch_issued 0
Core_0_ITLB_prefetch_useful 0
Core_0_ITLB_prefetch_useless 0
Core_0_ITLB_prefetch_late 0
Core_0_ITLB_prefetch_accuracy 0
Core_0_ITLB_prefetch_coverage 0

Core_0_DTLB_total_access 22987611
Core_0_DTLB_total_hit 21549126
Core_0_DTLB_total_miss 1438485
Core_0_DTLB_total_MPKI 14.3848
Core_0_DTLB_total_miss_rate 0.0625765
Core_0_DTLB_demand_access 22987611
Core_0_DTLB_demand_hit 21549126
Core_0_DTLB_demand_miss 1438485
Core_0_DTLB_demand_MPKI 14.3848
Core_0_DTLB_demand_miss_rate 0.0625765
Core_0_DTLB_load_access 22987611
Core_0_DTLB_load_hit 21549126
Core_0_DTLB_load_miss 1438485
Core_0_DTLB_load_MPKI 14.3848
Core_0_DTLB_load_miss_rate 0.0625765
Core_0_DTLB_rfo_access 0
Core_0_DTLB_rfo_hit 0
Core_0_DTLB_rfo_miss 0
Core_0_DTLB_rfo_MPKI 0
Core_0_DTLB_rfo_miss_rate 0
Core_0_DTLB_prefetch_access 0
Core_0_DTLB_prefetch_hit 0
Core_0_DTLB_prefetch_miss 0
Core_0_DTLB_prefetch_MPKI 0
Core_0_DTLB_prefetch_miss_rate 0
Core_0_DTLB_writeback_access 0
Core_0_DTLB_writeback_hit 0
Core_0_DTLB_writeback_miss 0
Core_0_DTLB_writeback_MPKI 0
Core_0_DTLB_writeback_miss_rate 0
Core_0_DTLB_prefetch_requested 0
Core_0_DTLB_prefetch_issued 0
Core_0_DTLB_prefetch_useful 0
Core_0_DTLB_prefetch_useless 0
Core_0_DTLB_prefetch_late 0
Core_0_DTLB_prefetch_accuracy 0
Core_0_DTLB_prefetch_coverage 0

Core_0_STLB_total_access 953653
Core_0_STLB_total_hit 910072
Core_0_STLB_total_miss 43581
Core_0_STLB_total_MPKI 0.43581
Core_0_STLB_total_miss_rate 0.045699
Core_0_STLB_demand_access 953653
Core_0_STLB_demand_hit 910072
Core_0_STLB_demand_miss 43581
Core_0_STLB_demand_MPKI 0.43581
Core_0_STLB_demand_miss_rate 0.045699
Core_0_STLB_load_access 953653
Core_0_STLB_load_hit 910072
Core_0_STLB_load_miss 43581
Core_0_STLB_load_MPKI 0.43581
Core_0_STLB_load_miss_rate 0.045699
Core_0_STLB_rfo_access 0
Core_0_STLB_rfo_hit 0
Core_0_STLB_rfo_miss 0
Core_0_STLB_rfo_MPKI 0
Core_0_STLB_rfo_miss_rate 0
Core_0_STLB_prefetch_access 0
Core_0_STLB_prefetch_hit 0
Core_0_STLB_prefetch_miss 0
Core_0_STLB_prefetch_MPKI 0
Core_0_STLB_prefetch_miss_rate 0
Core_0_STLB_writeback_access 0
Core_0_STLB_writeback_hit 0
Core_0_STLB_writeback_miss 0
Core_0_STLB_writeback_MPKI 0
Core_0_STLB_writeback_miss_rate 0
Core_0_STLB_prefetch_requested 0
Core_0_STLB_prefetch_issued 0
Core_0_STLB_prefetch_useful 0
Core_0_STLB_prefetch_useless 0
Core_0_STLB_prefetch_late 0
Core_0_STLB_prefetch_accuracy 0
Core_0_STLB_prefetch_coverage 0

Core_0_L1I_total_access 17383436
Core_0_L1I_total_hit 16885372
Core_0_L1I_total_miss 498064
Core_0_L1I_total_MPKI 4.98064
Core_0_L1I_total_miss_rate 0.0286516
Core_0_L1I_demand_access 17383436
Core_0_L1I_demand_hit 16885372
Core_0_L1I_demand_miss 498064
Core_0_L1I_demand_MPKI 4.98064
Core_0_L1I_demand_miss_rate 0.0286516
Core_0_L1I_load_access 17383436
Core_0_L1I_load_hit 16885372
Core_0_L1I_load_miss 498064
Core_0_L1I_load_MPKI 4.98064
Core_0_L1I_load_miss_rate 0.0286516
Core_0_L1I_rfo_access 0
Core_0_L1I_rfo_hit 0
Core_0_L1I_rfo_miss 0
Core_0_L1I_rfo_MPKI 0
Core_0_L1I_rfo_miss_rate 0
Core_0_L1I_prefetch_access 0
Core_0_L1I_prefetch_hit 0
Core_0_L1I_prefetch_miss 0
Core_0_L1I_prefetch_MPKI 0
Core_0_L1I_prefetch_miss_rate 0
Core_0_L1I_writeback_access 0
Core_0_L1I_writeback_hit 0
Core_0_L1I_writeback_miss 0
Core_0_L1I_writeback_MPKI 0
Core_0_L1I_writeback_miss_rate 0
Core_0_L1I_prefetch_requested 0
Core_0_L1I_prefetch_issued 0
Core_0_L1I_prefetch_useful 0
Core_0_L1I_prefetch_useless 0
Core_0_L1I_prefetch_late 0
Core_0_L1I_prefetch_accuracy 0
Core_0_L1I_prefetch_coverage 0

Core_0_L1D_total_access 25086170
Core_0_L1D_total_hit 24410121
Core_0_L1D_total_miss 676049
Core_0_L1D_total_MPKI 6.76049
Core_0_L1D_total_miss_rate 0.0269491
Core_0_L1D_demand_access 13099784
Core_0_L1D_demand_hit 12733550
Core_0_L1D_demand_miss 366234
Core_0_L1D_demand_MPKI 3.66234
Core_0_L1D_demand_miss_rate 0.0279573
Core_0_L1D_load_access 13099784
Core_0_L1D_load_hit 12733550
Core_0_L1D_load_miss 366234
Core_0_L1D_load_MPKI 3.66234
Core_0_L1D_load_miss_rate 0.0279573
Core_0_L1D_rfo_access 0
Core_0_L1D_rfo_hit 0
Core_0_L1D_rfo_miss 0
Core_0_L1D_rfo_MPKI 0
Core_0_L1D_rfo_miss_rate 0
Core_0_L1D_prefetch_access 0
Core_0_L1D_prefetch_hit 0
Core_0_L1D_prefetch_miss 0
Core_0_L1D_prefetch_MPKI 0
Core_0_L1D_prefetch_miss_rate 0
Core_0_L1D_writeback_access 11986386
Core_0_L1D_writeback_hit 11676571
Core_0_L1D_writeback_miss 309815
Core_0_L1D_writeback_MPKI 3.09815
Core_0_L1D_writeback_miss_rate 0.0258472
Core_0_L1D_prefetch_requested 0
Core_0_L1D_prefetch_issued 0
Core_0_L1D_prefetch_useful 0
Core_0_L1D_prefetch_useless 0
Core_0_L1D_prefetch_late 0
Core_0_L1D_prefetch_accuracy 0
Core_0_L1D_prefetch_coverage 0

Core_0_L2C_total_access 670482
Core_0_L2C_total_hit 431001
Core_0_L2C_total_miss 239481
Core_0_L2C_total_MPKI 2.39481
Core_0_L2C_total_miss_rate 0.357177
Core_0_L2C_demand_access 582647
Core_0_L2C_demand_hit 343691
Core_0_L2C_demand_miss 238956
Core_0_L2C_demand_MPKI 2.38956
Core_0_L2C_demand_miss_rate 0.410121
Core_0_L2C_load_access 520708
Core_0_L2C_load_hit 338149
Core_0_L2C_load_miss 182559
Core_0_L2C_load_MPKI 1.82559
Core_0_L2C_load_miss_rate 0.350598
Core_0_L2C_rfo_access 61939
Core_0_L2C_rfo_hit 5542
Core_0_L2C_rfo_miss 56397
Core_0_L2C_rfo_MPKI 0.56397
Core_0_L2C_rfo_miss_rate 0.910525
Core_0_L2C_prefetch_access 0
Core_0_L2C_prefetch_hit 0
Core_0_L2C_prefetch_miss 0
Core_0_L2C_prefetch_MPKI 0
Core_0_L2C_prefetch_miss_rate 0
Core_0_L2C_writeback_access 87835
Core_0_L2C_writeback_hit 87310
Core_0_L2C_writeback_miss 525
Core_0_L2C_writeback_MPKI 0.00525
Core_0_L2C_writeback_miss_rate 0.00597712
Core_0_L2C_prefetch_requested 0
Core_0_L2C_prefetch_issued 0
Core_0_L2C_prefetch_useful 0
Core_0_L2C_prefetch_useless 0
Core_0_L2C_prefetch_late 0
Core_0_L2C_prefetch_accuracy 0
Core_0_L2C_prefetch_coverage 0

Core_0_LLC_total_access 315554
Core_0_LLC_total_hit 234521
Core_0_LLC_total_miss 81033
Core_0_LLC_total_MPKI 0.81033
Core_0_LLC_total_miss_rate 0.256796
Core_0_LLC_demand_access 238956
Core_0_LLC_demand_hit 160308
Core_0_LLC_demand_miss 78648
Core_0_LLC_demand_MPKI 0.78648
Core_0_LLC_demand_miss_rate 0.329132
Core_0_LLC_load_access 182559
Core_0_LLC_load_hit 109573
Core_0_LLC_load_miss 72986
Core_0_LLC_load_MPKI 0.72986
Core_0_LLC_load_miss_rate 0.399794
Core_0_LLC_rfo_access 56397
Core_0_LLC_rfo_hit 50735
Core_0_LLC_rfo_miss 5662
Core_0_LLC_rfo_MPKI 0.05662
Core_0_LLC_rfo_miss_rate 0.100395
Core_0_LLC_prefetch_access 0
Core_0_LLC_prefetch_hit 0
Core_0_LLC_prefetch_miss 0
Core_0_LLC_prefetch_MPKI 0
Core_0_LLC_prefetch_miss_rate 0
Core_0_LLC_writeback_access 76598
Core_0_LLC_writeback_hit 74213
Core_0_LLC_writeback_miss 2385
Core_0_LLC_writeback_MPKI 0.02385
Core_0_LLC_writeback_miss_rate 0.0311366
Core_0_LLC_prefetch_requested 0
Core_0_LLC_prefetch_issued 0
Core_0_LLC_prefetch_useful 0
Core_0_LLC_prefetch_useless 0
Core_0_LLC_prefetch_late 0
Core_0_LLC_prefetch_accuracy 0
Core_0_LLC_prefetch_coverage 0

[DRAM Statistics]
Channel_0_RQ_row_buffer_hit 3805
Channel_0_RQ_row_buffer_miss 75529
Channel_0_WQ_row_buffer_hit 1837
Channel_0_WQ_row_buffer_miss 5755
Channel_0_WQ_full 0
Channel_0_dbus_congested 117713
DRAM_total_RQ_row_buffer_hit 3805
DRAM_total_RQ_row_buffer_miss 75529
DRAM_total_WQ_row_buffer_hit 1837
DRAM_total_WQ_row_buffer_miss 5755
DRAM_total_WQ_full 0
DRAM_total_dbus_congested 117713
DRAM_avg_congested_cycle 13.1568

====== DRAM_RQ_TRAFFIC ========
DRAM_RQ_READ_TRAFFIC_BREAKDOWN:
data_demand_read.count = 77064
data_demand_read.share = 97.13%

inst_demand_read.count = 1584
inst_demand_read.share = 2.00%

cache_inst_prefetch.count = 0
cache_inst_prefetch.share = 0.00%

cache_data_prefetch.count = 0
cache_data_prefetch.share = 0.00%

stlb_data_demand.count = 643
stlb_data_demand.share = 0.81%

stlb_inst_demand.count = 52
stlb_inst_demand.share = 0.07%

stlb_l1i_pref.count = 0
stlb_l1i_pref.share = 0.00%

stlb_l1d_pref.count = 0
stlb_l1d_pref.share = 0.00%

DRAM_RQ_READ_TRAFFIC_SUMMARY:
cache_demand.count = 78648
cache_demand.share = 99.12%

cache_prefetch.count = 0
cache_prefetch.share = 0.00%

stlb_demand.count = 695
stlb_demand.share = 0.88%

stlb_prefetch.count = 0
stlb_prefetch.share = 0.00%

DRAM_RQ_READ_TRAFFIC_DEBUG:
total_classified_read.count = 79343
unclassified_read.count = 0
total_read_with_other.count = 79343

classified_plus_unclassified_check.count = 79343
dram_rq_read_total_observed.count = 79343
dram_rq_read_total_observed.per_1K_instructions = 0.79343

STLB_MISS_PTW_DRAM_TOUCH_BREAKDOWN:
stlb_miss_total.count = 43581

stlb_miss_touch_dram.count = 636
stlb_miss_touch_dram.share = 1.46%

stlb_miss_no_dram_touch.count = 42945
stlb_miss_no_dram_touch.share = 98.54%

STLB_MISS_PTW_DRAM_TOUCH_DEBUG:
stlb_miss_touch_plus_no_touch.count = 43581
stlb_miss_total_check.count = 43581

======STLB miss causes ========
Core_0_STLB_miss_cause_breakdown
Core_0_STLB_cause_Demand_Data_miss 41229
Core_0_STLB_cause_Demand_Data_miss_rate 0.0432327
Core_0_STLB_cause_Demand_Instruction_miss 2352
Core_0_STLB_cause_Demand_Instruction_miss_rate 0.00246631
Core_0_STLB_cause_L1D_Prefetch_miss 0
Core_0_STLB_cause_L1D_Prefetch_miss_rate 0
Core_0_STLB_cause_L1I_Prefetch_miss 0
Core_0_STLB_cause_L1I_Prefetch_miss_rate 0
Core_0_STLB_cause_Other_miss 0
Core_0_STLB_cause_Other_miss_rate 0
Core_0_STLB_Demand_miss 43581
Core_0_STLB_Demand_miss_rate 0.045699
Core_0_STLB_L1D_Prefetch_miss 0
Core_0_STLB_L1D_Prefetch_miss_rate 0
Core_0_STLB_Other_miss 0
Core_0_STLB_Other_miss_rate 0
