[VMEM] WARNING: physical memory size is smaller than virtual memory size.

*** ChampSim Multicore Out-of-Order Simulator ***
Warmup Instructions: 50000000
Simulation Instructions: 100000000
Number of CPUs: 1
Page size: 4096
Core 0: /data2/zcq/champsim_traces_gap/sssp.web-1185B.champsimtrace.xz
Off-chip DRAM Size: 16 GiB Channels: 1 Width: 64-bit Data Rate: 3205 MT/s
Warmup halting CPU 0 at instruction 50000002 cycle 21977646 for remainder of phase
Warmup finished CPU 0 instructions: 50000002 cycles: 21977646 cumulative IPC: 2.275 (Simulation time: 00 hr 03 min 48 sec)
Warmup complete CPU 0 instructions: 50000002 cycles: 21977646 cumulative IPC: 2.275 (Simulation time: 00 hr 03 min 48 sec)
Simulation finished CPU 0 instructions: 100000001 cycles: 322714706 cumulative IPC: 0.3099 (Simulation time: 00 hr 31 min 03 sec)
Simulation complete CPU 0 instructions: 100000001 cycles: 322714706 cumulative IPC: 0.3099 (Simulation time: 00 hr 31 min 03 sec)

ChampSim completed all CPUs

=== Simulation ===
CPU 0 runs /data2/zcq/champsim_traces_gap/sssp.web-1185B.champsimtrace.xz

Region of Interest Statistics

CPU 0 cumulative IPC: 0.3099 instructions: 100000001 cycles: 322714706
CPU 0 Branch Prediction Accuracy: 97.58% MPKI: 3.609 Average ROB Occupancy at Mispredict: 119.2
Branch type MPKI
BRANCH_DIRECT_JUMP: 0.00013
BRANCH_INDIRECT: 4e-05
BRANCH_CONDITIONAL: 3.609
BRANCH_DIRECT_CALL: 0
BRANCH_INDIRECT_CALL: 2e-05
BRANCH_RETURN: 0

cpu0->cpu0_STLB TOTAL        ACCESS:    1147663 HIT:     425976 MISS:     721687 MSHR_MERGE:          0
cpu0->cpu0_STLB LOAD         ACCESS:    1147663 HIT:     425976 MISS:     721687 MSHR_MERGE:          0
cpu0->cpu0_STLB RFO          ACCESS:          0 HIT:          0 MISS:          0 MSHR_MERGE:          0
cpu0->cpu0_STLB PREFETCH     ACCESS:          0 HIT:          0 MISS:          0 MSHR_MERGE:          0
cpu0->cpu0_STLB WRITE        ACCESS:          0 HIT:          0 MISS:          0 MSHR_MERGE:          0
cpu0->cpu0_STLB TRANSLATION  ACCESS:          0 HIT:          0 MISS:          0 MSHR_MERGE:          0
cpu0->cpu0_STLB PREFETCH REQUESTED:          0 ISSUED:          0 USEFUL:          0 USELESS:          0 LATE:          0
cpu0->cpu0_STLB AVERAGE MISS LATENCY: 132.6 cycles
cpu0->cpu0_L2C TOTAL        ACCESS:    3829947 HIT:    1174915 MISS:    2655032 MSHR_MERGE:          0
cpu0->cpu0_L2C LOAD         ACCESS:    2547487 HIT:     445367 MISS:    2102120 MSHR_MERGE:          0
cpu0->cpu0_L2C RFO          ACCESS:     178176 HIT:     123228 MISS:      54948 MSHR_MERGE:          0
cpu0->cpu0_L2C PREFETCH     ACCESS:          0 HIT:          0 MISS:          0 MSHR_MERGE:          0
cpu0->cpu0_L2C WRITE        ACCESS:     354682 HIT:     354322 MISS:        360 MSHR_MERGE:          0
cpu0->cpu0_L2C TRANSLATION  ACCESS:     749602 HIT:     251998 MISS:     497604 MSHR_MERGE:          0
cpu0->cpu0_L2C PREFETCH REQUESTED:          0 ISSUED:          0 USEFUL:          0 USELESS:          0 LATE:          0
cpu0->cpu0_L2C AVERAGE MISS LATENCY: 168.8 cycles
cpu0->cpu0_L1I TOTAL        ACCESS:    9104267 HIT:    9104180 MISS:         87 MSHR_MERGE:         33
cpu0->cpu0_L1I LOAD         ACCESS:    9104267 HIT:    9104180 MISS:         87 MSHR_MERGE:         33
cpu0->cpu0_L1I RFO          ACCESS:          0 HIT:          0 MISS:          0 MSHR_MERGE:          0
cpu0->cpu0_L1I PREFETCH     ACCESS:          0 HIT:          0 MISS:          0 MSHR_MERGE:          0
cpu0->cpu0_L1I WRITE        ACCESS:          0 HIT:          0 MISS:          0 MSHR_MERGE:          0
cpu0->cpu0_L1I TRANSLATION  ACCESS:          0 HIT:          0 MISS:          0 MSHR_MERGE:          0
cpu0->cpu0_L1I PREFETCH REQUESTED:          0 ISSUED:          0 USEFUL:          0 USELESS:          0 LATE:          0
cpu0->cpu0_L1I AVERAGE MISS LATENCY: 201.7 cycles
cpu0->cpu0_L1D TOTAL        ACCESS:   36298419 HIT:   24317423 MISS:   11980996 MSHR_MERGE:    8505784
cpu0->cpu0_L1D LOAD         ACCESS:   31368108 HIT:   21240649 MISS:   10127459 MSHR_MERGE:    7580027
cpu0->cpu0_L1D RFO          ACCESS:          0 HIT:          0 MISS:          0 MSHR_MERGE:          0
cpu0->cpu0_L1D PREFETCH     ACCESS:          0 HIT:          0 MISS:          0 MSHR_MERGE:          0
cpu0->cpu0_L1D WRITE        ACCESS:    3062672 HIT:    1984839 MISS:    1077833 MSHR_MERGE:     899655
cpu0->cpu0_L1D TRANSLATION  ACCESS:    1867639 HIT:    1091935 MISS:     775704 MSHR_MERGE:      26102
cpu0->cpu0_L1D PREFETCH REQUESTED:          0 ISSUED:          0 USEFUL:          0 USELESS:          0 LATE:          0
cpu0->cpu0_L1D AVERAGE MISS LATENCY: 137.8 cycles
cpu0->cpu0_ITLB TOTAL        ACCESS:    9033503 HIT:    9033470 MISS:         33 MSHR_MERGE:         24
cpu0->cpu0_ITLB LOAD         ACCESS:    9033503 HIT:    9033470 MISS:         33 MSHR_MERGE:         24
cpu0->cpu0_ITLB RFO          ACCESS:          0 HIT:          0 MISS:          0 MSHR_MERGE:          0
cpu0->cpu0_ITLB PREFETCH     ACCESS:          0 HIT:          0 MISS:          0 MSHR_MERGE:          0
cpu0->cpu0_ITLB WRITE        ACCESS:          0 HIT:          0 MISS:          0 MSHR_MERGE:          0
cpu0->cpu0_ITLB TRANSLATION  ACCESS:          0 HIT:          0 MISS:          0 MSHR_MERGE:          0
cpu0->cpu0_ITLB PREFETCH REQUESTED:          0 ISSUED:          0 USEFUL:          0 USELESS:          0 LATE:          0
cpu0->cpu0_ITLB AVERAGE MISS LATENCY: 217.6 cycles
cpu0->cpu0_DTLB TOTAL        ACCESS:   34298519 HIT:   31135996 MISS:    3162523 MSHR_MERGE:    2014869
cpu0->cpu0_DTLB LOAD         ACCESS:   34298519 HIT:   31135996 MISS:    3162523 MSHR_MERGE:    2014869
cpu0->cpu0_DTLB RFO          ACCESS:          0 HIT:          0 MISS:          0 MSHR_MERGE:          0
cpu0->cpu0_DTLB PREFETCH     ACCESS:          0 HIT:          0 MISS:          0 MSHR_MERGE:          0
cpu0->cpu0_DTLB WRITE        ACCESS:          0 HIT:          0 MISS:          0 MSHR_MERGE:          0
cpu0->cpu0_DTLB TRANSLATION  ACCESS:          0 HIT:          0 MISS:          0 MSHR_MERGE:          0
cpu0->cpu0_DTLB PREFETCH REQUESTED:          0 ISSUED:          0 USEFUL:          0 USELESS:          0 LATE:          0
cpu0->cpu0_DTLB AVERAGE MISS LATENCY: 89.01 cycles
cpu0->LLC TOTAL        ACCESS:    2816318 HIT:     623011 MISS:    2193307 MSHR_MERGE:          0
cpu0->LLC LOAD         ACCESS:    2102119 HIT:     263274 MISS:    1838845 MSHR_MERGE:          0
cpu0->LLC RFO          ACCESS:      54948 HIT:       8925 MISS:      46023 MSHR_MERGE:          0
cpu0->LLC PREFETCH     ACCESS:          0 HIT:          0 MISS:          0 MSHR_MERGE:          0
cpu0->LLC WRITE        ACCESS:     161647 HIT:      80036 MISS:      81611 MSHR_MERGE:          0
cpu0->LLC TRANSLATION  ACCESS:     497604 HIT:     270776 MISS:     226828 MSHR_MERGE:          0
cpu0->LLC PREFETCH REQUESTED:          0 ISSUED:          0 USEFUL:          0 USELESS:          0 LATE:          0
cpu0->LLC AVERAGE MISS LATENCY: 185.5 cycles

DRAM Statistics

Channel 0 RQ ROW_BUFFER_HIT:      14910
  ROW_BUFFER_MISS:    2096786
  AVG DBUS CONGESTED CYCLE: 17.8
Channel 0 WQ ROW_BUFFER_HIT:      48263
  ROW_BUFFER_MISS:      99630
  FULL:          0
Channel 0 REFRESHES ISSUED:      26893

[ROI Statistics]
[System Configuration]
num_cpus 1
cpu_freq 4000
fetch_width 6
decode_width 6
dispatch_width 6
execute_width 6
lq_width 2
sq_width 2
retire_width 6
scheduler_size 128
branch_mispredict_penalty 15
rob_size 352
lq_size 128
sq_size 72
ifetch_buffer_size 64
decode_buffer_size 32
dispatch_buffer_size 32
register_file_size 288
decode_latency 1
dispatch_latency 1
schedule_latency 1
execute_latency 1
page_size 4096
block_size 64
core_0_itlb_set 16
core_0_itlb_way 4
core_0_itlb_rq_size 16
core_0_itlb_wq_size 16
core_0_itlb_pq_size 0
core_0_itlb_mshr_size 8
core_0_itlb_hit_latency 1
core_0_itlb_fill_latency 1
core_0_itlb_max_tag_check 2
core_0_itlb_max_fill 2
core_0_dtlb_set 16
core_0_dtlb_way 4
core_0_dtlb_rq_size 16
core_0_dtlb_wq_size 16
core_0_dtlb_pq_size 0
core_0_dtlb_mshr_size 8
core_0_dtlb_hit_latency 1
core_0_dtlb_fill_latency 1
core_0_dtlb_max_tag_check 2
core_0_dtlb_max_fill 2
core_0_stlb_set 128
core_0_stlb_way 12
core_0_stlb_rq_size 32
core_0_stlb_wq_size 32
core_0_stlb_pq_size 0
core_0_stlb_mshr_size 16
core_0_stlb_hit_latency 4
core_0_stlb_fill_latency 4
core_0_stlb_max_tag_check 1
core_0_stlb_max_fill 1
core_0_l1i_set 64
core_0_l1i_way 8
core_0_l1i_rq_size 64
core_0_l1i_wq_size 64
core_0_l1i_pq_size 32
core_0_l1i_mshr_size 8
core_0_l1i_hit_latency 2
core_0_l1i_fill_latency 2
core_0_l1i_max_tag_check 2
core_0_l1i_max_fill 2
core_0_l1d_set 64
core_0_l1d_way 12
core_0_l1d_rq_size 64
core_0_l1d_wq_size 64
core_0_l1d_pq_size 8
core_0_l1d_mshr_size 16
core_0_l1d_hit_latency 2
core_0_l1d_fill_latency 3
core_0_l1d_max_tag_check 2
core_0_l1d_max_fill 2
core_0_l2c_set 1024
core_0_l2c_way 8
core_0_l2c_rq_size 32
core_0_l2c_wq_size 32
core_0_l2c_pq_size 16
core_0_l2c_mshr_size 32
core_0_l2c_hit_latency 5
core_0_l2c_fill_latency 5
core_0_l2c_max_tag_check 1
core_0_l2c_max_fill 1
llc_set 2048
llc_way 16
llc_rq_size 32
llc_wq_size 32
llc_pq_size 32
llc_mshr_size 64
llc_hit_latency 10
llc_fill_latency 10
llc_max_tag_check 1
llc_max_fill 1
dram_channels 1
dram_ranks 1
dram_bankgroups 8
dram_banks 4
dram_rows 65536
dram_columns 1024
dram_channel_width 8
dram_rq_size 64
dram_wq_size 64
dram_size 17179869184
core_0_itlb_prefetcher no
core_0_dtlb_prefetcher no
core_0_stlb_prefetcher no
core_0_l1i_prefetcher no
core_0_l1d_prefetcher no
core_0_l2c_prefetcher no
llc_prefetcher no
llc_replacement drrip

Core_0_instructions 100000001
Core_0_cycles 322714706
Core_0_IPC 0.309871
Core_0_branch_prediction_accuracy 97.5842
Core_0_branch_MPKI 3.609
Core_0_average_ROB_occupancy_at_mispredict 119.249

Core_0_ITLB_total_access 9033503
Core_0_ITLB_total_hit 9033470
Core_0_ITLB_total_miss 33
Core_0_ITLB_total_MPKI 0.00033
Core_0_ITLB_total_miss_rate 3.65307e-06
Core_0_ITLB_demand_access 9033503
Core_0_ITLB_demand_hit 9033470
Core_0_ITLB_demand_miss 33
Core_0_ITLB_demand_MPKI 0.00033
Core_0_ITLB_demand_miss_rate 3.65307e-06
Core_0_ITLB_load_access 9033503
Core_0_ITLB_load_hit 9033470
Core_0_ITLB_load_miss 33
Core_0_ITLB_load_MPKI 0.00033
Core_0_ITLB_load_miss_rate 3.65307e-06
Core_0_ITLB_rfo_access 0
Core_0_ITLB_rfo_hit 0
Core_0_ITLB_rfo_miss 0
Core_0_ITLB_rfo_MPKI 0
Core_0_ITLB_rfo_miss_rate 0
Core_0_ITLB_prefetch_access 0
Core_0_ITLB_prefetch_hit 0
Core_0_ITLB_prefetch_miss 0
Core_0_ITLB_prefetch_MPKI 0
Core_0_ITLB_prefetch_miss_rate 0
Core_0_ITLB_writeback_access 0
Core_0_ITLB_writeback_hit 0
Core_0_ITLB_writeback_miss 0
Core_0_ITLB_writeback_MPKI 0
Core_0_ITLB_writeback_miss_rate 0
Core_0_ITLB_prefetch_requested 0
Core_0_ITLB_prefetch_issued 0
Core_0_ITLB_prefetch_useful 0
Core_0_ITLB_prefetch_useless 0
Core_0_ITLB_prefetch_late 0
Core_0_ITLB_prefetch_accuracy 0
Core_0_ITLB_prefetch_coverage 0

Core_0_DTLB_total_access 34298519
Core_0_DTLB_total_hit 31135996
Core_0_DTLB_total_miss 3162523
Core_0_DTLB_total_MPKI 31.6252
Core_0_DTLB_total_miss_rate 0.0922058
Core_0_DTLB_demand_access 34298519
Core_0_DTLB_demand_hit 31135996
Core_0_DTLB_demand_miss 3162523
Core_0_DTLB_demand_MPKI 31.6252
Core_0_DTLB_demand_miss_rate 0.0922058
Core_0_DTLB_load_access 34298519
Core_0_DTLB_load_hit 31135996
Core_0_DTLB_load_miss 3162523
Core_0_DTLB_load_MPKI 31.6252
Core_0_DTLB_load_miss_rate 0.0922058
Core_0_DTLB_rfo_access 0
Core_0_DTLB_rfo_hit 0
Core_0_DTLB_rfo_miss 0
Core_0_DTLB_rfo_MPKI 0
Core_0_DTLB_rfo_miss_rate 0
Core_0_DTLB_prefetch_access 0
Core_0_DTLB_prefetch_hit 0
Core_0_DTLB_prefetch_miss 0
Core_0_DTLB_prefetch_MPKI 0
Core_0_DTLB_prefetch_miss_rate 0
Core_0_DTLB_writeback_access 0
Core_0_DTLB_writeback_hit 0
Core_0_DTLB_writeback_miss 0
Core_0_DTLB_writeback_MPKI 0
Core_0_DTLB_writeback_miss_rate 0
Core_0_DTLB_prefetch_requested 0
Core_0_DTLB_prefetch_issued 0
Core_0_DTLB_prefetch_useful 0
Core_0_DTLB_prefetch_useless 0
Core_0_DTLB_prefetch_late 0
Core_0_DTLB_prefetch_accuracy 0
Core_0_DTLB_prefetch_coverage 0

Core_0_STLB_total_access 1147663
Core_0_STLB_total_hit 425976
Core_0_STLB_total_miss 721687
Core_0_STLB_total_MPKI 7.21687
Core_0_STLB_total_miss_rate 0.628832
Core_0_STLB_demand_access 1147663
Core_0_STLB_demand_hit 425976
Core_0_STLB_demand_miss 721687
Core_0_STLB_demand_MPKI 7.21687
Core_0_STLB_demand_miss_rate 0.628832
Core_0_STLB_load_access 1147663
Core_0_STLB_load_hit 425976
Core_0_STLB_load_miss 721687
Core_0_STLB_load_MPKI 7.21687
Core_0_STLB_load_miss_rate 0.628832
Core_0_STLB_rfo_access 0
Core_0_STLB_rfo_hit 0
Core_0_STLB_rfo_miss 0
Core_0_STLB_rfo_MPKI 0
Core_0_STLB_rfo_miss_rate 0
Core_0_STLB_prefetch_access 0
Core_0_STLB_prefetch_hit 0
Core_0_STLB_prefetch_miss 0
Core_0_STLB_prefetch_MPKI 0
Core_0_STLB_prefetch_miss_rate 0
Core_0_STLB_writeback_access 0
Core_0_STLB_writeback_hit 0
Core_0_STLB_writeback_miss 0
Core_0_STLB_writeback_MPKI 0
Core_0_STLB_writeback_miss_rate 0
Core_0_STLB_prefetch_requested 0
Core_0_STLB_prefetch_issued 0
Core_0_STLB_prefetch_useful 0
Core_0_STLB_prefetch_useless 0
Core_0_STLB_prefetch_late 0
Core_0_STLB_prefetch_accuracy 0
Core_0_STLB_prefetch_coverage 0

Core_0_L1I_total_access 9104267
Core_0_L1I_total_hit 9104180
Core_0_L1I_total_miss 87
Core_0_L1I_total_MPKI 0.00087
Core_0_L1I_total_miss_rate 9.55596e-06
Core_0_L1I_demand_access 9104267
Core_0_L1I_demand_hit 9104180
Core_0_L1I_demand_miss 87
Core_0_L1I_demand_MPKI 0.00087
Core_0_L1I_demand_miss_rate 9.55596e-06
Core_0_L1I_load_access 9104267
Core_0_L1I_load_hit 9104180
Core_0_L1I_load_miss 87
Core_0_L1I_load_MPKI 0.00087
Core_0_L1I_load_miss_rate 9.55596e-06
Core_0_L1I_rfo_access 0
Core_0_L1I_rfo_hit 0
Core_0_L1I_rfo_miss 0
Core_0_L1I_rfo_MPKI 0
Core_0_L1I_rfo_miss_rate 0
Core_0_L1I_prefetch_access 0
Core_0_L1I_prefetch_hit 0
Core_0_L1I_prefetch_miss 0
Core_0_L1I_prefetch_MPKI 0
Core_0_L1I_prefetch_miss_rate 0
Core_0_L1I_writeback_access 0
Core_0_L1I_writeback_hit 0
Core_0_L1I_writeback_miss 0
Core_0_L1I_writeback_MPKI 0
Core_0_L1I_writeback_miss_rate 0
Core_0_L1I_prefetch_requested 0
Core_0_L1I_prefetch_issued 0
Core_0_L1I_prefetch_useful 0
Core_0_L1I_prefetch_useless 0
Core_0_L1I_prefetch_late 0
Core_0_L1I_prefetch_accuracy 0
Core_0_L1I_prefetch_coverage 0

Core_0_L1D_total_access 34430780
Core_0_L1D_total_hit 23225488
Core_0_L1D_total_miss 11205292
Core_0_L1D_total_MPKI 112.053
Core_0_L1D_total_miss_rate 0.325444
Core_0_L1D_demand_access 31368108
Core_0_L1D_demand_hit 21240649
Core_0_L1D_demand_miss 10127459
Core_0_L1D_demand_MPKI 101.275
Core_0_L1D_demand_miss_rate 0.322858
Core_0_L1D_load_access 31368108
Core_0_L1D_load_hit 21240649
Core_0_L1D_load_miss 10127459
Core_0_L1D_load_MPKI 101.275
Core_0_L1D_load_miss_rate 0.322858
Core_0_L1D_rfo_access 0
Core_0_L1D_rfo_hit 0
Core_0_L1D_rfo_miss 0
Core_0_L1D_rfo_MPKI 0
Core_0_L1D_rfo_miss_rate 0
Core_0_L1D_prefetch_access 0
Core_0_L1D_prefetch_hit 0
Core_0_L1D_prefetch_miss 0
Core_0_L1D_prefetch_MPKI 0
Core_0_L1D_prefetch_miss_rate 0
Core_0_L1D_writeback_access 3062672
Core_0_L1D_writeback_hit 1984839
Core_0_L1D_writeback_miss 1077833
Core_0_L1D_writeback_MPKI 10.7783
Core_0_L1D_writeback_miss_rate 0.351926
Core_0_L1D_prefetch_requested 0
Core_0_L1D_prefetch_issued 0
Core_0_L1D_prefetch_useful 0
Core_0_L1D_prefetch_useless 0
Core_0_L1D_prefetch_late 0
Core_0_L1D_prefetch_accuracy 0
Core_0_L1D_prefetch_coverage 0

Core_0_L2C_total_access 3080345
Core_0_L2C_total_hit 922917
Core_0_L2C_total_miss 2157428
Core_0_L2C_total_MPKI 21.5743
Core_0_L2C_total_miss_rate 0.700385
Core_0_L2C_demand_access 2725663
Core_0_L2C_demand_hit 568595
Core_0_L2C_demand_miss 2157068
Core_0_L2C_demand_MPKI 21.5707
Core_0_L2C_demand_miss_rate 0.791392
Core_0_L2C_load_access 2547487
Core_0_L2C_load_hit 445367
Core_0_L2C_load_miss 2102120
Core_0_L2C_load_MPKI 21.0212
Core_0_L2C_load_miss_rate 0.825174
Core_0_L2C_rfo_access 178176
Core_0_L2C_rfo_hit 123228
Core_0_L2C_rfo_miss 54948
Core_0_L2C_rfo_MPKI 0.54948
Core_0_L2C_rfo_miss_rate 0.308392
Core_0_L2C_prefetch_access 0
Core_0_L2C_prefetch_hit 0
Core_0_L2C_prefetch_miss 0
Core_0_L2C_prefetch_MPKI 0
Core_0_L2C_prefetch_miss_rate 0
Core_0_L2C_writeback_access 354682
Core_0_L2C_writeback_hit 354322
Core_0_L2C_writeback_miss 360
Core_0_L2C_writeback_MPKI 0.0036
Core_0_L2C_writeback_miss_rate 0.00101499
Core_0_L2C_prefetch_requested 0
Core_0_L2C_prefetch_issued 0
Core_0_L2C_prefetch_useful 0
Core_0_L2C_prefetch_useless 0
Core_0_L2C_prefetch_late 0
Core_0_L2C_prefetch_accuracy 0
Core_0_L2C_prefetch_coverage 0

Core_0_LLC_total_access 2318714
Core_0_LLC_total_hit 352235
Core_0_LLC_total_miss 1966479
Core_0_LLC_total_MPKI 19.6648
Core_0_LLC_total_miss_rate 0.84809
Core_0_LLC_demand_access 2157067
Core_0_LLC_demand_hit 272199
Core_0_LLC_demand_miss 1884868
Core_0_LLC_demand_MPKI 18.8487
Core_0_LLC_demand_miss_rate 0.873811
Core_0_LLC_load_access 2102119
Core_0_LLC_load_hit 263274
Core_0_LLC_load_miss 1838845
Core_0_LLC_load_MPKI 18.3884
Core_0_LLC_load_miss_rate 0.874758
Core_0_LLC_rfo_access 54948
Core_0_LLC_rfo_hit 8925
Core_0_LLC_rfo_miss 46023
Core_0_LLC_rfo_MPKI 0.46023
Core_0_LLC_rfo_miss_rate 0.837574
Core_0_LLC_prefetch_access 0
Core_0_LLC_prefetch_hit 0
Core_0_LLC_prefetch_miss 0
Core_0_LLC_prefetch_MPKI 0
Core_0_LLC_prefetch_miss_rate 0
Core_0_LLC_writeback_access 161647
Core_0_LLC_writeback_hit 80036
Core_0_LLC_writeback_miss 81611
Core_0_LLC_writeback_MPKI 0.81611
Core_0_LLC_writeback_miss_rate 0.504872
Core_0_LLC_prefetch_requested 0
Core_0_LLC_prefetch_issued 0
Core_0_LLC_prefetch_useful 0
Core_0_LLC_prefetch_useless 0
Core_0_LLC_prefetch_late 0
Core_0_LLC_prefetch_accuracy 0
Core_0_LLC_prefetch_coverage 0

[DRAM Statistics]
Channel_0_RQ_row_buffer_hit 14910
Channel_0_RQ_row_buffer_miss 2096786
Channel_0_WQ_row_buffer_hit 48263
Channel_0_WQ_row_buffer_miss 99630
Channel_0_WQ_full 0
Channel_0_dbus_congested 3776277
DRAM_total_RQ_row_buffer_hit 14910
DRAM_total_RQ_row_buffer_miss 2096786
DRAM_total_WQ_row_buffer_hit 48263
DRAM_total_WQ_row_buffer_miss 99630
DRAM_total_WQ_full 0
DRAM_total_dbus_congested 3776277
DRAM_avg_congested_cycle 17.7958

====== DRAM_RQ_TRAFFIC ========
DRAM_RQ_READ_TRAFFIC_BREAKDOWN:
data_demand_read.count = 1884814
data_demand_read.share = 89.26%

inst_demand_read.count = 54
inst_demand_read.share = 0.00%

cache_inst_prefetch.count = 0
cache_inst_prefetch.share = 0.00%

cache_data_prefetch.count = 0
cache_data_prefetch.share = 0.00%

stlb_data_demand.count = 226819
stlb_data_demand.share = 10.74%

stlb_inst_demand.count = 9
stlb_inst_demand.share = 0.00%

stlb_l1i_pref.count = 0
stlb_l1i_pref.share = 0.00%

stlb_l1d_pref.count = 0
stlb_l1d_pref.share = 0.00%

DRAM_RQ_READ_TRAFFIC_SUMMARY:
cache_demand.count = 1884868
cache_demand.share = 89.26%

cache_prefetch.count = 0
cache_prefetch.share = 0.00%

stlb_demand.count = 226828
stlb_demand.share = 10.74%

stlb_prefetch.count = 0
stlb_prefetch.share = 0.00%

DRAM_RQ_READ_TRAFFIC_DEBUG:
total_classified_read.count = 2111696
unclassified_read.count = 0
total_read_with_other.count = 2111696

classified_plus_unclassified_check.count = 2111696
dram_rq_read_total_observed.count = 2111696
dram_rq_read_total_observed.per_1K_instructions = 21.117

STLB_MISS_PTW_DRAM_TOUCH_BREAKDOWN:
stlb_miss_total.count = 721687

stlb_miss_touch_dram.count = 222128
stlb_miss_touch_dram.share = 30.78%

stlb_miss_no_dram_touch.count = 499559
stlb_miss_no_dram_touch.share = 69.22%

STLB_MISS_PTW_DRAM_TOUCH_DEBUG:
stlb_miss_touch_plus_no_touch.count = 721687
stlb_miss_total_check.count = 721687

======STLB miss causes ========
Core_0_STLB_miss_cause_breakdown
Core_0_STLB_cause_Demand_Data_miss 721678
Core_0_STLB_cause_Demand_Data_miss_rate 0.628824
Core_0_STLB_cause_Demand_Instruction_miss 9
Core_0_STLB_cause_Demand_Instruction_miss_rate 7.84202e-06
Core_0_STLB_cause_L1D_Prefetch_miss 0
Core_0_STLB_cause_L1D_Prefetch_miss_rate 0
Core_0_STLB_cause_L1I_Prefetch_miss 0
Core_0_STLB_cause_L1I_Prefetch_miss_rate 0
Core_0_STLB_cause_Other_miss 0
Core_0_STLB_cause_Other_miss_rate 0
Core_0_STLB_Demand_miss 721687
Core_0_STLB_Demand_miss_rate 0.628832
Core_0_STLB_L1D_Prefetch_miss 0
Core_0_STLB_L1D_Prefetch_miss_rate 0
Core_0_STLB_Other_miss 0
Core_0_STLB_Other_miss_rate 0
