[VMEM] WARNING: physical memory size is smaller than virtual memory size.

*** ChampSim Multicore Out-of-Order Simulator ***
Warmup Instructions: 50000000
Simulation Instructions: 100000000
Number of CPUs: 1
Page size: 4096
Core 0: /data2/zcq/champsim_traces_xsbench/xs.XXL64hash-205B.champsimtrace.xz
Off-chip DRAM Size: 16 GiB Channels: 1 Width: 64-bit Data Rate: 3205 MT/s
Warmup halting CPU 0 at instruction 50000004 cycle 32929074 for remainder of phase
Warmup finished CPU 0 instructions: 50000004 cycles: 32929074 cumulative IPC: 1.518 (Simulation time: 00 hr 05 min 12 sec)
Warmup complete CPU 0 instructions: 50000004 cycles: 32929074 cumulative IPC: 1.518 (Simulation time: 00 hr 05 min 12 sec)
Simulation finished CPU 0 instructions: 100000005 cycles: 506969863 cumulative IPC: 0.1973 (Simulation time: 00 hr 38 min 37 sec)
Simulation complete CPU 0 instructions: 100000005 cycles: 506969863 cumulative IPC: 0.1973 (Simulation time: 00 hr 38 min 37 sec)

ChampSim completed all CPUs

=== Simulation ===
CPU 0 runs /data2/zcq/champsim_traces_xsbench/xs.XXL64hash-205B.champsimtrace.xz

Region of Interest Statistics

CPU 0 cumulative IPC: 0.1973 instructions: 100000005 cycles: 506969863
CPU 0 Branch Prediction Accuracy: 92.97% MPKI: 10.17 Average ROB Occupancy at Mispredict: 65.95
Branch type MPKI
BRANCH_DIRECT_JUMP: 1e-05
BRANCH_INDIRECT: 0
BRANCH_CONDITIONAL: 10.17
BRANCH_DIRECT_CALL: 0
BRANCH_INDIRECT_CALL: 0
BRANCH_RETURN: 0

cpu0->cpu0_STLB TOTAL        ACCESS:     947571 HIT:      12584 MISS:     934987 MSHR_MERGE:          0
cpu0->cpu0_STLB LOAD         ACCESS:     947571 HIT:      12584 MISS:     934987 MSHR_MERGE:          0
cpu0->cpu0_STLB RFO          ACCESS:          0 HIT:          0 MISS:          0 MSHR_MERGE:          0
cpu0->cpu0_STLB PREFETCH     ACCESS:          0 HIT:          0 MISS:          0 MSHR_MERGE:          0
cpu0->cpu0_STLB WRITE        ACCESS:          0 HIT:          0 MISS:          0 MSHR_MERGE:          0
cpu0->cpu0_STLB TRANSLATION  ACCESS:          0 HIT:          0 MISS:          0 MSHR_MERGE:          0
cpu0->cpu0_STLB PREFETCH REQUESTED:          0 ISSUED:          0 USEFUL:          0 USELESS:          0 LATE:          0
cpu0->cpu0_STLB AVERAGE MISS LATENCY: 364.5 cycles
cpu0->cpu0_L2C TOTAL        ACCESS:    5712658 HIT:     545577 MISS:    5167081 MSHR_MERGE:          0
cpu0->cpu0_L2C LOAD         ACCESS:    4543819 HIT:     110257 MISS:    4433562 MSHR_MERGE:          0
cpu0->cpu0_L2C RFO          ACCESS:       8642 HIT:       8527 MISS:        115 MSHR_MERGE:          0
cpu0->cpu0_L2C PREFETCH     ACCESS:          0 HIT:          0 MISS:          0 MSHR_MERGE:          0
cpu0->cpu0_L2C WRITE        ACCESS:      13182 HIT:      13119 MISS:         63 MSHR_MERGE:          0
cpu0->cpu0_L2C TRANSLATION  ACCESS:    1147015 HIT:     413674 MISS:     733341 MSHR_MERGE:          0
cpu0->cpu0_L2C PREFETCH REQUESTED:          0 ISSUED:          0 USEFUL:          0 USELESS:          0 LATE:          0
cpu0->cpu0_L2C AVERAGE MISS LATENCY: 218.6 cycles
cpu0->cpu0_L1I TOTAL        ACCESS:     341367 HIT:     341367 MISS:          0 MSHR_MERGE:          0
cpu0->cpu0_L1I LOAD         ACCESS:     341367 HIT:     341367 MISS:          0 MSHR_MERGE:          0
cpu0->cpu0_L1I RFO          ACCESS:          0 HIT:          0 MISS:          0 MSHR_MERGE:          0
cpu0->cpu0_L1I PREFETCH     ACCESS:          0 HIT:          0 MISS:          0 MSHR_MERGE:          0
cpu0->cpu0_L1I WRITE        ACCESS:          0 HIT:          0 MISS:          0 MSHR_MERGE:          0
cpu0->cpu0_L1I TRANSLATION  ACCESS:          0 HIT:          0 MISS:          0 MSHR_MERGE:          0
cpu0->cpu0_L1I PREFETCH REQUESTED:          0 ISSUED:          0 USEFUL:          0 USELESS:          0 LATE:          0
cpu0->cpu0_L1I AVERAGE MISS LATENCY: - cycles
cpu0->cpu0_L1D TOTAL        ACCESS:   19413723 HIT:   12396646 MISS:    7017077 MSHR_MERGE:    1317588
cpu0->cpu0_L1D LOAD         ACCESS:   13921755 HIT:    8377131 MISS:    5544624 MSHR_MERGE:    1000805
cpu0->cpu0_L1D RFO          ACCESS:          0 HIT:          0 MISS:          0 MSHR_MERGE:          0
cpu0->cpu0_L1D PREFETCH     ACCESS:          0 HIT:          0 MISS:          0 MSHR_MERGE:          0
cpu0->cpu0_L1D WRITE        ACCESS:    3261483 HIT:    3230235 MISS:      31248 MSHR_MERGE:      22593
cpu0->cpu0_L1D TRANSLATION  ACCESS:    2230485 HIT:     789280 MISS:    1441205 MSHR_MERGE:     294190
cpu0->cpu0_L1D PREFETCH REQUESTED:          0 ISSUED:          0 USEFUL:          0 USELESS:          0 LATE:          0
cpu0->cpu0_L1D AVERAGE MISS LATENCY: 207.7 cycles
cpu0->cpu0_ITLB TOTAL        ACCESS:     285831 HIT:     285831 MISS:          0 MSHR_MERGE:          0
cpu0->cpu0_ITLB LOAD         ACCESS:     285831 HIT:     285831 MISS:          0 MSHR_MERGE:          0
cpu0->cpu0_ITLB RFO          ACCESS:          0 HIT:          0 MISS:          0 MSHR_MERGE:          0
cpu0->cpu0_ITLB PREFETCH     ACCESS:          0 HIT:          0 MISS:          0 MSHR_MERGE:          0
cpu0->cpu0_ITLB WRITE        ACCESS:          0 HIT:          0 MISS:          0 MSHR_MERGE:          0
cpu0->cpu0_ITLB TRANSLATION  ACCESS:          0 HIT:          0 MISS:          0 MSHR_MERGE:          0
cpu0->cpu0_ITLB PREFETCH REQUESTED:          0 ISSUED:          0 USEFUL:          0 USELESS:          0 LATE:          0
cpu0->cpu0_ITLB AVERAGE MISS LATENCY: - cycles
cpu0->cpu0_DTLB TOTAL        ACCESS:   16964941 HIT:   13563296 MISS:    3401645 MSHR_MERGE:    2454074
cpu0->cpu0_DTLB LOAD         ACCESS:   16964941 HIT:   13563296 MISS:    3401645 MSHR_MERGE:    2454074
cpu0->cpu0_DTLB RFO          ACCESS:          0 HIT:          0 MISS:          0 MSHR_MERGE:          0
cpu0->cpu0_DTLB PREFETCH     ACCESS:          0 HIT:          0 MISS:          0 MSHR_MERGE:          0
cpu0->cpu0_DTLB WRITE        ACCESS:          0 HIT:          0 MISS:          0 MSHR_MERGE:          0
cpu0->cpu0_DTLB TRANSLATION  ACCESS:          0 HIT:          0 MISS:          0 MSHR_MERGE:          0
cpu0->cpu0_DTLB PREFETCH REQUESTED:          0 ISSUED:          0 USEFUL:          0 USELESS:          0 LATE:          0
cpu0->cpu0_DTLB AVERAGE MISS LATENCY: 365.6 cycles
cpu0->LLC TOTAL        ACCESS:    5167509 HIT:     147275 MISS:    5020234 MSHR_MERGE:          0
cpu0->LLC LOAD         ACCESS:    4433562 HIT:      18924 MISS:    4414638 MSHR_MERGE:          0
cpu0->LLC RFO          ACCESS:        115 HIT:        115 MISS:          0 MSHR_MERGE:          0
cpu0->LLC PREFETCH     ACCESS:          0 HIT:          0 MISS:          0 MSHR_MERGE:          0
cpu0->LLC WRITE        ACCESS:        491 HIT:        462 MISS:         29 MSHR_MERGE:          0
cpu0->LLC TRANSLATION  ACCESS:     733341 HIT:     127774 MISS:     605567 MSHR_MERGE:          0
cpu0->LLC PREFETCH REQUESTED:          0 ISSUED:          0 USEFUL:          0 USELESS:          0 LATE:          0
cpu0->LLC AVERAGE MISS LATENCY: 208.6 cycles

DRAM Statistics

Channel 0 RQ ROW_BUFFER_HIT:      75011
  ROW_BUFFER_MISS:    4945193
  AVG DBUS CONGESTED CYCLE: 3.004
Channel 0 WQ ROW_BUFFER_HIT:          8
  ROW_BUFFER_MISS:         18
  FULL:          0
Channel 0 REFRESHES ISSUED:      42247

[ROI Statistics]
[System Configuration]
num_cpus 1
cpu_freq 4000
fetch_width 6
decode_width 6
dispatch_width 6
execute_width 6
lq_width 2
sq_width 2
retire_width 6
scheduler_size 128
branch_mispredict_penalty 15
rob_size 352
lq_size 128
sq_size 72
ifetch_buffer_size 64
decode_buffer_size 32
dispatch_buffer_size 32
register_file_size 288
decode_latency 1
dispatch_latency 1
schedule_latency 1
execute_latency 1
page_size 4096
block_size 64
core_0_itlb_set 16
core_0_itlb_way 4
core_0_itlb_rq_size 16
core_0_itlb_wq_size 16
core_0_itlb_pq_size 0
core_0_itlb_mshr_size 8
core_0_itlb_hit_latency 1
core_0_itlb_fill_latency 1
core_0_itlb_max_tag_check 2
core_0_itlb_max_fill 2
core_0_dtlb_set 16
core_0_dtlb_way 4
core_0_dtlb_rq_size 16
core_0_dtlb_wq_size 16
core_0_dtlb_pq_size 0
core_0_dtlb_mshr_size 8
core_0_dtlb_hit_latency 1
core_0_dtlb_fill_latency 1
core_0_dtlb_max_tag_check 2
core_0_dtlb_max_fill 2
core_0_stlb_set 128
core_0_stlb_way 12
core_0_stlb_rq_size 32
core_0_stlb_wq_size 32
core_0_stlb_pq_size 0
core_0_stlb_mshr_size 16
core_0_stlb_hit_latency 4
core_0_stlb_fill_latency 4
core_0_stlb_max_tag_check 1
core_0_stlb_max_fill 1
core_0_l1i_set 64
core_0_l1i_way 8
core_0_l1i_rq_size 64
core_0_l1i_wq_size 64
core_0_l1i_pq_size 32
core_0_l1i_mshr_size 8
core_0_l1i_hit_latency 2
core_0_l1i_fill_latency 2
core_0_l1i_max_tag_check 2
core_0_l1i_max_fill 2
core_0_l1d_set 64
core_0_l1d_way 12
core_0_l1d_rq_size 64
core_0_l1d_wq_size 64
core_0_l1d_pq_size 8
core_0_l1d_mshr_size 16
core_0_l1d_hit_latency 2
core_0_l1d_fill_latency 3
core_0_l1d_max_tag_check 2
core_0_l1d_max_fill 2
core_0_l2c_set 1024
core_0_l2c_way 8
core_0_l2c_rq_size 32
core_0_l2c_wq_size 32
core_0_l2c_pq_size 16
core_0_l2c_mshr_size 32
core_0_l2c_hit_latency 5
core_0_l2c_fill_latency 5
core_0_l2c_max_tag_check 1
core_0_l2c_max_fill 1
llc_set 2048
llc_way 16
llc_rq_size 32
llc_wq_size 32
llc_pq_size 32
llc_mshr_size 64
llc_hit_latency 10
llc_fill_latency 10
llc_max_tag_check 1
llc_max_fill 1
dram_channels 1
dram_ranks 1
dram_bankgroups 8
dram_banks 4
dram_rows 65536
dram_columns 1024
dram_channel_width 8
dram_rq_size 64
dram_wq_size 64
dram_size 17179869184
core_0_itlb_prefetcher no
core_0_dtlb_prefetcher no
core_0_stlb_prefetcher no
core_0_l1i_prefetcher no
core_0_l1d_prefetcher no
core_0_l2c_prefetcher no
llc_prefetcher no
llc_replacement drrip

Core_0_instructions 100000005
Core_0_cycles 506969863
Core_0_IPC 0.19725
Core_0_branch_prediction_accuracy 92.9661
Core_0_branch_MPKI 10.1659
Core_0_average_ROB_occupancy_at_mispredict 65.9535

Core_0_ITLB_total_access 285831
Core_0_ITLB_total_hit 285831
Core_0_ITLB_total_miss 0
Core_0_ITLB_total_MPKI 0
Core_0_ITLB_total_miss_rate 0
Core_0_ITLB_demand_access 285831
Core_0_ITLB_demand_hit 285831
Core_0_ITLB_demand_miss 0
Core_0_ITLB_demand_MPKI 0
Core_0_ITLB_demand_miss_rate 0
Core_0_ITLB_load_access 285831
Core_0_ITLB_load_hit 285831
Core_0_ITLB_load_miss 0
Core_0_ITLB_load_MPKI 0
Core_0_ITLB_load_miss_rate 0
Core_0_ITLB_rfo_access 0
Core_0_ITLB_rfo_hit 0
Core_0_ITLB_rfo_miss 0
Core_0_ITLB_rfo_MPKI 0
Core_0_ITLB_rfo_miss_rate 0
Core_0_ITLB_prefetch_access 0
Core_0_ITLB_prefetch_hit 0
Core_0_ITLB_prefetch_miss 0
Core_0_ITLB_prefetch_MPKI 0
Core_0_ITLB_prefetch_miss_rate 0
Core_0_ITLB_writeback_access 0
Core_0_ITLB_writeback_hit 0
Core_0_ITLB_writeback_miss 0
Core_0_ITLB_writeback_MPKI 0
Core_0_ITLB_writeback_miss_rate 0
Core_0_ITLB_prefetch_requested 0
Core_0_ITLB_prefetch_issued 0
Core_0_ITLB_prefetch_useful 0
Core_0_ITLB_prefetch_useless 0
Core_0_ITLB_prefetch_late 0
Core_0_ITLB_prefetch_accuracy 0
Core_0_ITLB_prefetch_coverage 0

Core_0_DTLB_total_access 16964941
Core_0_DTLB_total_hit 13563296
Core_0_DTLB_total_miss 3401645
Core_0_DTLB_total_MPKI 34.0164
Core_0_DTLB_total_miss_rate 0.20051
Core_0_DTLB_demand_access 16964941
Core_0_DTLB_demand_hit 13563296
Core_0_DTLB_demand_miss 3401645
Core_0_DTLB_demand_MPKI 34.0164
Core_0_DTLB_demand_miss_rate 0.20051
Core_0_DTLB_load_access 16964941
Core_0_DTLB_load_hit 13563296
Core_0_DTLB_load_miss 3401645
Core_0_DTLB_load_MPKI 34.0164
Core_0_DTLB_load_miss_rate 0.20051
Core_0_DTLB_rfo_access 0
Core_0_DTLB_rfo_hit 0
Core_0_DTLB_rfo_miss 0
Core_0_DTLB_rfo_MPKI 0
Core_0_DTLB_rfo_miss_rate 0
Core_0_DTLB_prefetch_access 0
Core_0_DTLB_prefetch_hit 0
Core_0_DTLB_prefetch_miss 0
Core_0_DTLB_prefetch_MPKI 0
Core_0_DTLB_prefetch_miss_rate 0
Core_0_DTLB_writeback_access 0
Core_0_DTLB_writeback_hit 0
Core_0_DTLB_writeback_miss 0
Core_0_DTLB_writeback_MPKI 0
Core_0_DTLB_writeback_miss_rate 0
Core_0_DTLB_prefetch_requested 0
Core_0_DTLB_prefetch_issued 0
Core_0_DTLB_prefetch_useful 0
Core_0_DTLB_prefetch_useless 0
Core_0_DTLB_prefetch_late 0
Core_0_DTLB_prefetch_accuracy 0
Core_0_DTLB_prefetch_coverage 0

Core_0_STLB_total_access 947571
Core_0_STLB_total_hit 12584
Core_0_STLB_total_miss 934987
Core_0_STLB_total_MPKI 9.34987
Core_0_STLB_total_miss_rate 0.98672
Core_0_STLB_demand_access 947571
Core_0_STLB_demand_hit 12584
Core_0_STLB_demand_miss 934987
Core_0_STLB_demand_MPKI 9.34987
Core_0_STLB_demand_miss_rate 0.98672
Core_0_STLB_load_access 947571
Core_0_STLB_load_hit 12584
Core_0_STLB_load_miss 934987
Core_0_STLB_load_MPKI 9.34987
Core_0_STLB_load_miss_rate 0.98672
Core_0_STLB_rfo_access 0
Core_0_STLB_rfo_hit 0
Core_0_STLB_rfo_miss 0
Core_0_STLB_rfo_MPKI 0
Core_0_STLB_rfo_miss_rate 0
Core_0_STLB_prefetch_access 0
Core_0_STLB_prefetch_hit 0
Core_0_STLB_prefetch_miss 0
Core_0_STLB_prefetch_MPKI 0
Core_0_STLB_prefetch_miss_rate 0
Core_0_STLB_writeback_access 0
Core_0_STLB_writeback_hit 0
Core_0_STLB_writeback_miss 0
Core_0_STLB_writeback_MPKI 0
Core_0_STLB_writeback_miss_rate 0
Core_0_STLB_prefetch_requested 0
Core_0_STLB_prefetch_issued 0
Core_0_STLB_prefetch_useful 0
Core_0_STLB_prefetch_useless 0
Core_0_STLB_prefetch_late 0
Core_0_STLB_prefetch_accuracy 0
Core_0_STLB_prefetch_coverage 0

Core_0_L1I_total_access 341367
Core_0_L1I_total_hit 341367
Core_0_L1I_total_miss 0
Core_0_L1I_total_MPKI 0
Core_0_L1I_total_miss_rate 0
Core_0_L1I_demand_access 341367
Core_0_L1I_demand_hit 341367
Core_0_L1I_demand_miss 0
Core_0_L1I_demand_MPKI 0
Core_0_L1I_demand_miss_rate 0
Core_0_L1I_load_access 341367
Core_0_L1I_load_hit 341367
Core_0_L1I_load_miss 0
Core_0_L1I_load_MPKI 0
Core_0_L1I_load_miss_rate 0
Core_0_L1I_rfo_access 0
Core_0_L1I_rfo_hit 0
Core_0_L1I_rfo_miss 0
Core_0_L1I_rfo_MPKI 0
Core_0_L1I_rfo_miss_rate 0
Core_0_L1I_prefetch_access 0
Core_0_L1I_prefetch_hit 0
Core_0_L1I_prefetch_miss 0
Core_0_L1I_prefetch_MPKI 0
Core_0_L1I_prefetch_miss_rate 0
Core_0_L1I_writeback_access 0
Core_0_L1I_writeback_hit 0
Core_0_L1I_writeback_miss 0
Core_0_L1I_writeback_MPKI 0
Core_0_L1I_writeback_miss_rate 0
Core_0_L1I_prefetch_requested 0
Core_0_L1I_prefetch_issued 0
Core_0_L1I_prefetch_useful 0
Core_0_L1I_prefetch_useless 0
Core_0_L1I_prefetch_late 0
Core_0_L1I_prefetch_accuracy 0
Core_0_L1I_prefetch_coverage 0

Core_0_L1D_total_access 17183238
Core_0_L1D_total_hit 11607366
Core_0_L1D_total_miss 5575872
Core_0_L1D_total_MPKI 55.7587
Core_0_L1D_total_miss_rate 0.324495
Core_0_L1D_demand_access 13921755
Core_0_L1D_demand_hit 8377131
Core_0_L1D_demand_miss 5544624
Core_0_L1D_demand_MPKI 55.4462
Core_0_L1D_demand_miss_rate 0.39827
Core_0_L1D_load_access 13921755
Core_0_L1D_load_hit 8377131
Core_0_L1D_load_miss 5544624
Core_0_L1D_load_MPKI 55.4462
Core_0_L1D_load_miss_rate 0.39827
Core_0_L1D_rfo_access 0
Core_0_L1D_rfo_hit 0
Core_0_L1D_rfo_miss 0
Core_0_L1D_rfo_MPKI 0
Core_0_L1D_rfo_miss_rate 0
Core_0_L1D_prefetch_access 0
Core_0_L1D_prefetch_hit 0
Core_0_L1D_prefetch_miss 0
Core_0_L1D_prefetch_MPKI 0
Core_0_L1D_prefetch_miss_rate 0
Core_0_L1D_writeback_access 3261483
Core_0_L1D_writeback_hit 3230235
Core_0_L1D_writeback_miss 31248
Core_0_L1D_writeback_MPKI 0.31248
Core_0_L1D_writeback_miss_rate 0.00958092
Core_0_L1D_prefetch_requested 0
Core_0_L1D_prefetch_issued 0
Core_0_L1D_prefetch_useful 0
Core_0_L1D_prefetch_useless 0
Core_0_L1D_prefetch_late 0
Core_0_L1D_prefetch_accuracy 0
Core_0_L1D_prefetch_coverage 0

Core_0_L2C_total_access 4565643
Core_0_L2C_total_hit 131903
Core_0_L2C_total_miss 4433740
Core_0_L2C_total_MPKI 44.3374
Core_0_L2C_total_miss_rate 0.97111
Core_0_L2C_demand_access 4552461
Core_0_L2C_demand_hit 118784
Core_0_L2C_demand_miss 4433677
Core_0_L2C_demand_MPKI 44.3368
Core_0_L2C_demand_miss_rate 0.973908
Core_0_L2C_load_access 4543819
Core_0_L2C_load_hit 110257
Core_0_L2C_load_miss 4433562
Core_0_L2C_load_MPKI 44.3356
Core_0_L2C_load_miss_rate 0.975735
Core_0_L2C_rfo_access 8642
Core_0_L2C_rfo_hit 8527
Core_0_L2C_rfo_miss 115
Core_0_L2C_rfo_MPKI 0.00115
Core_0_L2C_rfo_miss_rate 0.0133071
Core_0_L2C_prefetch_access 0
Core_0_L2C_prefetch_hit 0
Core_0_L2C_prefetch_miss 0
Core_0_L2C_prefetch_MPKI 0
Core_0_L2C_prefetch_miss_rate 0
Core_0_L2C_writeback_access 13182
Core_0_L2C_writeback_hit 13119
Core_0_L2C_writeback_miss 63
Core_0_L2C_writeback_MPKI 0.00063
Core_0_L2C_writeback_miss_rate 0.00477924
Core_0_L2C_prefetch_requested 0
Core_0_L2C_prefetch_issued 0
Core_0_L2C_prefetch_useful 0
Core_0_L2C_prefetch_useless 0
Core_0_L2C_prefetch_late 0
Core_0_L2C_prefetch_accuracy 0
Core_0_L2C_prefetch_coverage 0

Core_0_LLC_total_access 4434168
Core_0_LLC_total_hit 19501
Core_0_LLC_total_miss 4414667
Core_0_LLC_total_MPKI 44.1467
Core_0_LLC_total_miss_rate 0.995602
Core_0_LLC_demand_access 4433677
Core_0_LLC_demand_hit 19039
Core_0_LLC_demand_miss 4414638
Core_0_LLC_demand_MPKI 44.1464
Core_0_LLC_demand_miss_rate 0.995706
Core_0_LLC_load_access 4433562
Core_0_LLC_load_hit 18924
Core_0_LLC_load_miss 4414638
Core_0_LLC_load_MPKI 44.1464
Core_0_LLC_load_miss_rate 0.995732
Core_0_LLC_rfo_access 115
Core_0_LLC_rfo_hit 115
Core_0_LLC_rfo_miss 0
Core_0_LLC_rfo_MPKI 0
Core_0_LLC_rfo_miss_rate 0
Core_0_LLC_prefetch_access 0
Core_0_LLC_prefetch_hit 0
Core_0_LLC_prefetch_miss 0
Core_0_LLC_prefetch_MPKI 0
Core_0_LLC_prefetch_miss_rate 0
Core_0_LLC_writeback_access 491
Core_0_LLC_writeback_hit 462
Core_0_LLC_writeback_miss 29
Core_0_LLC_writeback_MPKI 0.00029
Core_0_LLC_writeback_miss_rate 0.0590631
Core_0_LLC_prefetch_requested 0
Core_0_LLC_prefetch_issued 0
Core_0_LLC_prefetch_useful 0
Core_0_LLC_prefetch_useless 0
Core_0_LLC_prefetch_late 0
Core_0_LLC_prefetch_accuracy 0
Core_0_LLC_prefetch_coverage 0

[DRAM Statistics]
Channel_0_RQ_row_buffer_hit 75011
Channel_0_RQ_row_buffer_miss 4945193
Channel_0_WQ_row_buffer_hit 8
Channel_0_WQ_row_buffer_miss 18
Channel_0_WQ_full 0
Channel_0_dbus_congested 7478240
DRAM_total_RQ_row_buffer_hit 75011
DRAM_total_RQ_row_buffer_miss 4945193
DRAM_total_WQ_row_buffer_hit 8
DRAM_total_WQ_row_buffer_miss 18
DRAM_total_WQ_full 0
DRAM_total_dbus_congested 7478240
DRAM_avg_congested_cycle 3.00384

====== DRAM_RQ_TRAFFIC ========
DRAM_RQ_READ_TRAFFIC_BREAKDOWN:
data_demand_read.count = 4414638
data_demand_read.share = 87.94%

inst_demand_read.count = 0
inst_demand_read.share = 0.00%

cache_inst_prefetch.count = 0
cache_inst_prefetch.share = 0.00%

cache_data_prefetch.count = 0
cache_data_prefetch.share = 0.00%

stlb_data_demand.count = 605567
stlb_data_demand.share = 12.06%

stlb_inst_demand.count = 0
stlb_inst_demand.share = 0.00%

stlb_l1i_pref.count = 0
stlb_l1i_pref.share = 0.00%

stlb_l1d_pref.count = 0
stlb_l1d_pref.share = 0.00%

DRAM_RQ_READ_TRAFFIC_SUMMARY:
cache_demand.count = 4414638
cache_demand.share = 87.94%

cache_prefetch.count = 0
cache_prefetch.share = 0.00%

stlb_demand.count = 605567
stlb_demand.share = 12.06%

stlb_prefetch.count = 0
stlb_prefetch.share = 0.00%

DRAM_RQ_READ_TRAFFIC_DEBUG:
total_classified_read.count = 5020205
unclassified_read.count = 0
total_read_with_other.count = 5020205

classified_plus_unclassified_check.count = 5020205
dram_rq_read_total_observed.count = 5020205
dram_rq_read_total_observed.per_1K_instructions = 50.202

STLB_MISS_PTW_DRAM_TOUCH_BREAKDOWN:
stlb_miss_total.count = 934986

stlb_miss_touch_dram.count = 835398
stlb_miss_touch_dram.share = 89.35%

stlb_miss_no_dram_touch.count = 99588
stlb_miss_no_dram_touch.share = 10.65%

STLB_MISS_PTW_DRAM_TOUCH_DEBUG:
stlb_miss_touch_plus_no_touch.count = 934986
stlb_miss_total_check.count = 934986

======STLB miss causes ========
Core_0_STLB_miss_cause_breakdown
Core_0_STLB_cause_Demand_Data_miss 934987
Core_0_STLB_cause_Demand_Data_miss_rate 0.98672
Core_0_STLB_cause_Demand_Instruction_miss 0
Core_0_STLB_cause_Demand_Instruction_miss_rate 0
Core_0_STLB_cause_L1D_Prefetch_miss 0
Core_0_STLB_cause_L1D_Prefetch_miss_rate 0
Core_0_STLB_cause_L1I_Prefetch_miss 0
Core_0_STLB_cause_L1I_Prefetch_miss_rate 0
Core_0_STLB_cause_Other_miss 0
Core_0_STLB_cause_Other_miss_rate 0
Core_0_STLB_Demand_miss 934987
Core_0_STLB_Demand_miss_rate 0.98672
Core_0_STLB_L1D_Prefetch_miss 0
Core_0_STLB_L1D_Prefetch_miss_rate 0
Core_0_STLB_Other_miss 0
Core_0_STLB_Other_miss_rate 0
