[VMEM] WARNING: physical memory size is smaller than virtual memory size.

*** ChampSim Multicore Out-of-Order Simulator ***
Warmup Instructions: 20000000
Simulation Instructions: 50000000
Number of CPUs: 1
Page size: 4096
STLB ideal mode: off
STLB ideal fill: off
Core 0: /data0/tzh/champsim_traces/SPEC06/429.mcf-184B.champsimtrace.xz
 L1D Berti prefetcher
Off-chip DRAM Size: 16 GiB Channels: 1 Width: 64-bit Data Rate: 3205 MT/s
Warmup halting CPU 0 at instruction 20000000 cycle 5578581 for remainder of phase
Warmup finished CPU 0 instructions: 20000000 cycles: 5578581 cumulative IPC: 3.585 (Simulation time: 00 hr 01 min 28 sec)
Warmup complete CPU 0 instructions: 20000000 cycles: 5578581 cumulative IPC: 3.585 (Simulation time: 00 hr 01 min 28 sec)
Simulation finished CPU 0 instructions: 50000003 cycles: 443501032 cumulative IPC: 0.1127 (Simulation time: 00 hr 29 min 13 sec)
Simulation complete CPU 0 instructions: 50000003 cycles: 443501032 cumulative IPC: 0.1127 (Simulation time: 00 hr 29 min 13 sec)

ChampSim completed all CPUs

=== Simulation ===
CPU 0 runs /data0/tzh/champsim_traces/SPEC06/429.mcf-184B.champsimtrace.xz

Region of Interest Statistics

CPU 0 cumulative IPC: 0.1127 instructions: 50000003 cycles: 443501032
CPU 0 Branch Prediction Accuracy: 92.05% MPKI: 19.09 Average ROB Occupancy at Mispredict: 34.23
Branch type MPKI
BRANCH_DIRECT_JUMP: 0.2201
BRANCH_INDIRECT: 0
BRANCH_CONDITIONAL: 18.87
BRANCH_DIRECT_CALL: 0
BRANCH_INDIRECT_CALL: 0
BRANCH_RETURN: 0

cpu0->cpu0_STLB TOTAL        ACCESS:    6593310 HIT:    6560920 MISS:      32390 MSHR_MERGE:          0
cpu0->cpu0_STLB LOAD         ACCESS:    6593310 HIT:    6560920 MISS:      32390 MSHR_MERGE:          0
cpu0->cpu0_STLB RFO          ACCESS:          0 HIT:          0 MISS:          0 MSHR_MERGE:          0
cpu0->cpu0_STLB PREFETCH     ACCESS:          0 HIT:          0 MISS:          0 MSHR_MERGE:          0
cpu0->cpu0_STLB WRITE        ACCESS:          0 HIT:          0 MISS:          0 MSHR_MERGE:          0
cpu0->cpu0_STLB TRANSLATION  ACCESS:          0 HIT:          0 MISS:          0 MSHR_MERGE:          0
cpu0->cpu0_STLB PREFETCH REQUESTED:          0 ISSUED:          0 USEFUL:          0 USELESS:          0 LATE:          0
cpu0->cpu0_STLB AVERAGE MISS LATENCY: 431.9 cycles
cpu0->cpu0_L2C TOTAL        ACCESS:    7732315 HIT:    2280812 MISS:    5451503 MSHR_MERGE:        300
cpu0->cpu0_L2C LOAD         ACCESS:    6784258 HIT:    1841928 MISS:    4942330 MSHR_MERGE:         66
cpu0->cpu0_L2C RFO          ACCESS:      32015 HIT:      10919 MISS:      21096 MSHR_MERGE:          0
cpu0->cpu0_L2C PREFETCH     ACCESS:     519140 HIT:      93965 MISS:     425175 MSHR_MERGE:        234
cpu0->cpu0_L2C WRITE        ACCESS:     332204 HIT:     332204 MISS:          0 MSHR_MERGE:          0
cpu0->cpu0_L2C TRANSLATION  ACCESS:      64698 HIT:       1796 MISS:      62902 MSHR_MERGE:          0
cpu0->cpu0_L2C PREFETCH REQUESTED:       4796 ISSUED:       4796 USEFUL:        830 USELESS:       1828 LATE:         66
cpu0->cpu0_L2C AVERAGE MISS LATENCY: 146.6 cycles
cpu0->cpu0_L1I TOTAL        ACCESS:     257709 HIT:     257709 MISS:          0 MSHR_MERGE:          0
cpu0->cpu0_L1I LOAD         ACCESS:     257709 HIT:     257709 MISS:          0 MSHR_MERGE:          0
cpu0->cpu0_L1I RFO          ACCESS:          0 HIT:          0 MISS:          0 MSHR_MERGE:          0
cpu0->cpu0_L1I PREFETCH     ACCESS:          0 HIT:          0 MISS:          0 MSHR_MERGE:          0
cpu0->cpu0_L1I WRITE        ACCESS:          0 HIT:          0 MISS:          0 MSHR_MERGE:          0
cpu0->cpu0_L1I TRANSLATION  ACCESS:          0 HIT:          0 MISS:          0 MSHR_MERGE:          0
cpu0->cpu0_L1I PREFETCH REQUESTED:          0 ISSUED:          0 USEFUL:          0 USELESS:          0 LATE:          0
cpu0->cpu0_L1I AVERAGE MISS LATENCY: - cycles
cpu0->cpu0_L1D TOTAL        ACCESS:   13703871 HIT:    4362057 MISS:    9341814 MSHR_MERGE:    1946497
cpu0->cpu0_L1D LOAD         ACCESS:   12373994 HIT:    3650371 MISS:    8723623 MSHR_MERGE:    1939363
cpu0->cpu0_L1D RFO          ACCESS:          0 HIT:          0 MISS:          0 MSHR_MERGE:          0
cpu0->cpu0_L1D PREFETCH     ACCESS:     588321 HIT:      69534 MISS:     518787 MSHR_MERGE:       4443
cpu0->cpu0_L1D WRITE        ACCESS:     644450 HIT:     609750 MISS:      34700 MSHR_MERGE:       2685
cpu0->cpu0_L1D TRANSLATION  ACCESS:      97106 HIT:      32402 MISS:      64704 MSHR_MERGE:          6
cpu0->cpu0_L1D PREFETCH REQUESTED:     589881 ISSUED:     588321 USEFUL:      26215 USELESS:     488118 LATE:        683
cpu0->cpu0_L1D AVERAGE MISS LATENCY: 115.9 cycles
cpu0->cpu0_ITLB TOTAL        ACCESS:     228168 HIT:     228168 MISS:          0 MSHR_MERGE:          0
cpu0->cpu0_ITLB LOAD         ACCESS:     228168 HIT:     228168 MISS:          0 MSHR_MERGE:          0
cpu0->cpu0_ITLB RFO          ACCESS:          0 HIT:          0 MISS:          0 MSHR_MERGE:          0
cpu0->cpu0_ITLB PREFETCH     ACCESS:          0 HIT:          0 MISS:          0 MSHR_MERGE:          0
cpu0->cpu0_ITLB WRITE        ACCESS:          0 HIT:          0 MISS:          0 MSHR_MERGE:          0
cpu0->cpu0_ITLB TRANSLATION  ACCESS:          0 HIT:          0 MISS:          0 MSHR_MERGE:          0
cpu0->cpu0_ITLB PREFETCH REQUESTED:          0 ISSUED:          0 USEFUL:          0 USELESS:          0 LATE:          0
cpu0->cpu0_ITLB AVERAGE MISS LATENCY: - cycles
cpu0->cpu0_DTLB TOTAL        ACCESS:   13498519 HIT:    4961241 MISS:    8537278 MSHR_MERGE:    1943969
cpu0->cpu0_DTLB LOAD         ACCESS:   13498519 HIT:    4961241 MISS:    8537278 MSHR_MERGE:    1943969
cpu0->cpu0_DTLB RFO          ACCESS:          0 HIT:          0 MISS:          0 MSHR_MERGE:          0
cpu0->cpu0_DTLB PREFETCH     ACCESS:          0 HIT:          0 MISS:          0 MSHR_MERGE:          0
cpu0->cpu0_DTLB WRITE        ACCESS:          0 HIT:          0 MISS:          0 MSHR_MERGE:          0
cpu0->cpu0_DTLB TRANSLATION  ACCESS:          0 HIT:          0 MISS:          0 MSHR_MERGE:          0
cpu0->cpu0_DTLB PREFETCH REQUESTED:          0 ISSUED:          0 USEFUL:          0 USELESS:          0 LATE:          0
cpu0->cpu0_DTLB AVERAGE MISS LATENCY: 7.127 cycles
cpu0->LLC TOTAL        ACCESS:    5720939 HIT:    2105773 MISS:    3615166 MSHR_MERGE:          0
cpu0->LLC LOAD         ACCESS:    4942264 HIT:    1778322 MISS:    3163942 MSHR_MERGE:          0
cpu0->LLC RFO          ACCESS:      21096 HIT:       8869 MISS:      12227 MSHR_MERGE:          0
cpu0->LLC PREFETCH     ACCESS:     424941 HIT:     130076 MISS:     294865 MSHR_MERGE:          0
cpu0->LLC WRITE        ACCESS:     269736 HIT:     151649 MISS:     118087 MSHR_MERGE:          0
cpu0->LLC TRANSLATION  ACCESS:      62902 HIT:      36857 MISS:      26045 MSHR_MERGE:          0
cpu0->LLC PREFETCH REQUESTED:          0 ISSUED:          0 USEFUL:          0 USELESS:          0 LATE:          0
cpu0->LLC AVERAGE MISS LATENCY: 198.6 cycles

DRAM Statistics

Channel 0 RQ ROW_BUFFER_HIT:       3281
  ROW_BUFFER_MISS:    3493663
  AVG DBUS CONGESTED CYCLE: 9.478
Channel 0 WQ ROW_BUFFER_HIT:      54364
  ROW_BUFFER_MISS:     142848
  FULL:          0
Channel 0 REFRESHES ISSUED:      36959

[ROI Statistics]
[System Configuration]
num_cpus 1
cpu_freq 4000
fetch_width 6
decode_width 6
dispatch_width 6
execute_width 6
lq_width 2
sq_width 2
retire_width 6
scheduler_size 128
branch_mispredict_penalty 15
rob_size 352
lq_size 128
sq_size 72
ifetch_buffer_size 64
decode_buffer_size 32
dispatch_buffer_size 32
register_file_size 288
decode_latency 1
dispatch_latency 1
schedule_latency 1
execute_latency 1
page_size 4096
block_size 64
core_0_itlb_set 16
core_0_itlb_way 4
core_0_itlb_rq_size 16
core_0_itlb_wq_size 16
core_0_itlb_pq_size 0
core_0_itlb_mshr_size 8
core_0_itlb_hit_latency 1
core_0_itlb_fill_latency 1
core_0_itlb_max_tag_check 2
core_0_itlb_max_fill 2
core_0_dtlb_set 16
core_0_dtlb_way 4
core_0_dtlb_rq_size 16
core_0_dtlb_wq_size 16
core_0_dtlb_pq_size 0
core_0_dtlb_mshr_size 8
core_0_dtlb_hit_latency 1
core_0_dtlb_fill_latency 1
core_0_dtlb_max_tag_check 2
core_0_dtlb_max_fill 2
core_0_stlb_set 262144
core_0_stlb_way 16
core_0_stlb_rq_size 32
core_0_stlb_wq_size 32
core_0_stlb_pq_size 0
core_0_stlb_mshr_size 16
core_0_stlb_hit_latency 4
core_0_stlb_fill_latency 4
core_0_stlb_max_tag_check 1
core_0_stlb_max_fill 1
core_0_l1i_set 64
core_0_l1i_way 8
core_0_l1i_rq_size 64
core_0_l1i_wq_size 64
core_0_l1i_pq_size 32
core_0_l1i_mshr_size 8
core_0_l1i_hit_latency 2
core_0_l1i_fill_latency 2
core_0_l1i_max_tag_check 2
core_0_l1i_max_fill 2
core_0_l1d_set 64
core_0_l1d_way 12
core_0_l1d_rq_size 64
core_0_l1d_wq_size 64
core_0_l1d_pq_size 8
core_0_l1d_mshr_size 16
core_0_l1d_hit_latency 2
core_0_l1d_fill_latency 3
core_0_l1d_max_tag_check 2
core_0_l1d_max_fill 2
core_0_l2c_set 1024
core_0_l2c_way 8
core_0_l2c_rq_size 32
core_0_l2c_wq_size 32
core_0_l2c_pq_size 16
core_0_l2c_mshr_size 32
core_0_l2c_hit_latency 5
core_0_l2c_fill_latency 5
core_0_l2c_max_tag_check 1
core_0_l2c_max_fill 1
llc_set 2048
llc_way 16
llc_rq_size 32
llc_wq_size 32
llc_pq_size 32
llc_mshr_size 64
llc_hit_latency 10
llc_fill_latency 10
llc_max_tag_check 1
llc_max_fill 1
dram_channels 1
dram_ranks 1
dram_bankgroups 8
dram_banks 4
dram_rows 65536
dram_columns 1024
dram_channel_width 8
dram_rq_size 64
dram_wq_size 64
dram_size 17179869184
core_0_itlb_prefetcher no
core_0_dtlb_prefetcher no
core_0_stlb_prefetcher no
core_0_l1i_prefetcher next_line
core_0_l1d_prefetcher berti
core_0_l2c_prefetcher ip_stride
llc_prefetcher no
llc_replacement drrip

Core_0_instructions 50000003
Core_0_cycles 443501032
Core_0_IPC 0.112739
Core_0_branch_prediction_accuracy 92.0456
Core_0_branch_MPKI 19.0851
Core_0_average_ROB_occupancy_at_mispredict 34.2288

Core_0_ITLB_total_access 228168
Core_0_ITLB_total_hit 228168
Core_0_ITLB_total_miss 0
Core_0_ITLB_total_MPKI 0
Core_0_ITLB_total_miss_rate 0
Core_0_ITLB_demand_access 228168
Core_0_ITLB_demand_hit 228168
Core_0_ITLB_demand_miss 0
Core_0_ITLB_demand_MPKI 0
Core_0_ITLB_demand_miss_rate 0
Core_0_ITLB_load_access 228168
Core_0_ITLB_load_hit 228168
Core_0_ITLB_load_miss 0
Core_0_ITLB_load_MPKI 0
Core_0_ITLB_load_miss_rate 0
Core_0_ITLB_rfo_access 0
Core_0_ITLB_rfo_hit 0
Core_0_ITLB_rfo_miss 0
Core_0_ITLB_rfo_MPKI 0
Core_0_ITLB_rfo_miss_rate 0
Core_0_ITLB_prefetch_access 0
Core_0_ITLB_prefetch_hit 0
Core_0_ITLB_prefetch_miss 0
Core_0_ITLB_prefetch_MPKI 0
Core_0_ITLB_prefetch_miss_rate 0
Core_0_ITLB_writeback_access 0
Core_0_ITLB_writeback_hit 0
Core_0_ITLB_writeback_miss 0
Core_0_ITLB_writeback_MPKI 0
Core_0_ITLB_writeback_miss_rate 0
Core_0_ITLB_prefetch_requested 0
Core_0_ITLB_prefetch_issued 0
Core_0_ITLB_prefetch_useful 0
Core_0_ITLB_prefetch_useless 0
Core_0_ITLB_prefetch_late 0
Core_0_ITLB_prefetch_accuracy 0
Core_0_ITLB_prefetch_coverage 0
Core_0_ITLB_total_eviction 0

Core_0_DTLB_total_access 13498519
Core_0_DTLB_total_hit 4961241
Core_0_DTLB_total_miss 8537278
Core_0_DTLB_total_MPKI 170.746
Core_0_DTLB_total_miss_rate 0.63246
Core_0_DTLB_demand_access 13498519
Core_0_DTLB_demand_hit 4961241
Core_0_DTLB_demand_miss 8537278
Core_0_DTLB_demand_MPKI 170.746
Core_0_DTLB_demand_miss_rate 0.63246
Core_0_DTLB_load_access 13498519
Core_0_DTLB_load_hit 4961241
Core_0_DTLB_load_miss 8537278
Core_0_DTLB_load_MPKI 170.746
Core_0_DTLB_load_miss_rate 0.63246
Core_0_DTLB_rfo_access 0
Core_0_DTLB_rfo_hit 0
Core_0_DTLB_rfo_miss 0
Core_0_DTLB_rfo_MPKI 0
Core_0_DTLB_rfo_miss_rate 0
Core_0_DTLB_prefetch_access 0
Core_0_DTLB_prefetch_hit 0
Core_0_DTLB_prefetch_miss 0
Core_0_DTLB_prefetch_MPKI 0
Core_0_DTLB_prefetch_miss_rate 0
Core_0_DTLB_writeback_access 0
Core_0_DTLB_writeback_hit 0
Core_0_DTLB_writeback_miss 0
Core_0_DTLB_writeback_MPKI 0
Core_0_DTLB_writeback_miss_rate 0
Core_0_DTLB_prefetch_requested 0
Core_0_DTLB_prefetch_issued 0
Core_0_DTLB_prefetch_useful 0
Core_0_DTLB_prefetch_useless 0
Core_0_DTLB_prefetch_late 0
Core_0_DTLB_prefetch_accuracy 0
Core_0_DTLB_prefetch_coverage 0
Core_0_DTLB_total_eviction 0

Core_0_STLB_total_access 6593310
Core_0_STLB_total_hit 6560920
Core_0_STLB_total_miss 32390
Core_0_STLB_total_MPKI 0.6478
Core_0_STLB_total_miss_rate 0.00491256
Core_0_STLB_demand_access 6593310
Core_0_STLB_demand_hit 6560920
Core_0_STLB_demand_miss 32390
Core_0_STLB_demand_MPKI 0.6478
Core_0_STLB_demand_miss_rate 0.00491256
Core_0_STLB_load_access 6593310
Core_0_STLB_load_hit 6560920
Core_0_STLB_load_miss 32390
Core_0_STLB_load_MPKI 0.6478
Core_0_STLB_load_miss_rate 0.00491256
Core_0_STLB_rfo_access 0
Core_0_STLB_rfo_hit 0
Core_0_STLB_rfo_miss 0
Core_0_STLB_rfo_MPKI 0
Core_0_STLB_rfo_miss_rate 0
Core_0_STLB_prefetch_access 0
Core_0_STLB_prefetch_hit 0
Core_0_STLB_prefetch_miss 0
Core_0_STLB_prefetch_MPKI 0
Core_0_STLB_prefetch_miss_rate 0
Core_0_STLB_writeback_access 0
Core_0_STLB_writeback_hit 0
Core_0_STLB_writeback_miss 0
Core_0_STLB_writeback_MPKI 0
Core_0_STLB_writeback_miss_rate 0
Core_0_STLB_prefetch_requested 0
Core_0_STLB_prefetch_issued 0
Core_0_STLB_prefetch_useful 0
Core_0_STLB_prefetch_useless 0
Core_0_STLB_prefetch_late 0
Core_0_STLB_prefetch_accuracy 0
Core_0_STLB_prefetch_coverage 0
Core_0_STLB_total_eviction 0

Core_0_L1I_total_access 257709
Core_0_L1I_total_hit 257709
Core_0_L1I_total_miss 0
Core_0_L1I_total_MPKI 0
Core_0_L1I_total_miss_rate 0
Core_0_L1I_demand_access 257709
Core_0_L1I_demand_hit 257709
Core_0_L1I_demand_miss 0
Core_0_L1I_demand_MPKI 0
Core_0_L1I_demand_miss_rate 0
Core_0_L1I_load_access 257709
Core_0_L1I_load_hit 257709
Core_0_L1I_load_miss 0
Core_0_L1I_load_MPKI 0
Core_0_L1I_load_miss_rate 0
Core_0_L1I_rfo_access 0
Core_0_L1I_rfo_hit 0
Core_0_L1I_rfo_miss 0
Core_0_L1I_rfo_MPKI 0
Core_0_L1I_rfo_miss_rate 0
Core_0_L1I_prefetch_access 0
Core_0_L1I_prefetch_hit 0
Core_0_L1I_prefetch_miss 0
Core_0_L1I_prefetch_MPKI 0
Core_0_L1I_prefetch_miss_rate 0
Core_0_L1I_writeback_access 0
Core_0_L1I_writeback_hit 0
Core_0_L1I_writeback_miss 0
Core_0_L1I_writeback_MPKI 0
Core_0_L1I_writeback_miss_rate 0
Core_0_L1I_prefetch_requested 0
Core_0_L1I_prefetch_issued 0
Core_0_L1I_prefetch_useful 0
Core_0_L1I_prefetch_useless 0
Core_0_L1I_prefetch_late 0
Core_0_L1I_prefetch_accuracy 0
Core_0_L1I_prefetch_coverage 0
Core_0_L1I_total_eviction 0

Core_0_L1D_total_access 13606765
Core_0_L1D_total_hit 4329655
Core_0_L1D_total_miss 9277110
Core_0_L1D_total_MPKI 185.542
Core_0_L1D_total_miss_rate 0.681801
Core_0_L1D_demand_access 12373994
Core_0_L1D_demand_hit 3650371
Core_0_L1D_demand_miss 8723623
Core_0_L1D_demand_MPKI 174.472
Core_0_L1D_demand_miss_rate 0.704997
Core_0_L1D_load_access 12373994
Core_0_L1D_load_hit 3650371
Core_0_L1D_load_miss 8723623
Core_0_L1D_load_MPKI 174.472
Core_0_L1D_load_miss_rate 0.704997
Core_0_L1D_rfo_access 0
Core_0_L1D_rfo_hit 0
Core_0_L1D_rfo_miss 0
Core_0_L1D_rfo_MPKI 0
Core_0_L1D_rfo_miss_rate 0
Core_0_L1D_prefetch_access 588321
Core_0_L1D_prefetch_hit 69534
Core_0_L1D_prefetch_miss 518787
Core_0_L1D_prefetch_MPKI 10.3757
Core_0_L1D_prefetch_miss_rate 0.881809
Core_0_L1D_writeback_access 644450
Core_0_L1D_writeback_hit 609750
Core_0_L1D_writeback_miss 34700
Core_0_L1D_writeback_MPKI 0.694
Core_0_L1D_writeback_miss_rate 0.0538444
Core_0_L1D_prefetch_requested 589881
Core_0_L1D_prefetch_issued 588321
Core_0_L1D_prefetch_useful 26215
Core_0_L1D_prefetch_useless 488118
Core_0_L1D_prefetch_late 683
Core_0_L1D_prefetch_accuracy 0.044559
Core_0_L1D_prefetch_coverage 0.00299606
Core_0_L1D_total_eviction 0

Core_0_L2C_total_access 7667617
Core_0_L2C_total_hit 2279016
Core_0_L2C_total_miss 5388601
Core_0_L2C_total_MPKI 107.772
Core_0_L2C_total_miss_rate 0.702774
Core_0_L2C_demand_access 6816273
Core_0_L2C_demand_hit 1852847
Core_0_L2C_demand_miss 4963426
Core_0_L2C_demand_MPKI 99.2685
Core_0_L2C_demand_miss_rate 0.728173
Core_0_L2C_load_access 6784258
Core_0_L2C_load_hit 1841928
Core_0_L2C_load_miss 4942330
Core_0_L2C_load_MPKI 98.8466
Core_0_L2C_load_miss_rate 0.7285
Core_0_L2C_rfo_access 32015
Core_0_L2C_rfo_hit 10919
Core_0_L2C_rfo_miss 21096
Core_0_L2C_rfo_MPKI 0.42192
Core_0_L2C_rfo_miss_rate 0.658941
Core_0_L2C_prefetch_access 519140
Core_0_L2C_prefetch_hit 93965
Core_0_L2C_prefetch_miss 425175
Core_0_L2C_prefetch_MPKI 8.5035
Core_0_L2C_prefetch_miss_rate 0.818999
Core_0_L2C_writeback_access 332204
Core_0_L2C_writeback_hit 332204
Core_0_L2C_writeback_miss 0
Core_0_L2C_writeback_MPKI 0
Core_0_L2C_writeback_miss_rate 0
Core_0_L2C_prefetch_requested 4796
Core_0_L2C_prefetch_issued 4796
Core_0_L2C_prefetch_useful 830
Core_0_L2C_prefetch_useless 1828
Core_0_L2C_prefetch_late 66
Core_0_L2C_prefetch_accuracy 0.173061
Core_0_L2C_prefetch_coverage 0.000167195
Core_0_L2C_total_eviction 0

Core_0_LLC_total_access 5658037
Core_0_LLC_total_hit 2068916
Core_0_LLC_total_miss 3589121
Core_0_LLC_total_MPKI 71.7824
Core_0_LLC_total_miss_rate 0.63434
Core_0_LLC_demand_access 4963360
Core_0_LLC_demand_hit 1787191
Core_0_LLC_demand_miss 3176169
Core_0_LLC_demand_MPKI 63.5234
Core_0_LLC_demand_miss_rate 0.639923
Core_0_LLC_load_access 4942264
Core_0_LLC_load_hit 1778322
Core_0_LLC_load_miss 3163942
Core_0_LLC_load_MPKI 63.2788
Core_0_LLC_load_miss_rate 0.640181
Core_0_LLC_rfo_access 21096
Core_0_LLC_rfo_hit 8869
Core_0_LLC_rfo_miss 12227
Core_0_LLC_rfo_MPKI 0.24454
Core_0_LLC_rfo_miss_rate 0.579589
Core_0_LLC_prefetch_access 424941
Core_0_LLC_prefetch_hit 130076
Core_0_LLC_prefetch_miss 294865
Core_0_LLC_prefetch_MPKI 5.8973
Core_0_LLC_prefetch_miss_rate 0.693896
Core_0_LLC_writeback_access 269736
Core_0_LLC_writeback_hit 151649
Core_0_LLC_writeback_miss 118087
Core_0_LLC_writeback_MPKI 2.36174
Core_0_LLC_writeback_miss_rate 0.437787
Core_0_LLC_prefetch_requested 0
Core_0_LLC_prefetch_issued 0
Core_0_LLC_prefetch_useful 0
Core_0_LLC_prefetch_useless 0
Core_0_LLC_prefetch_late 0
Core_0_LLC_prefetch_accuracy 0
Core_0_LLC_prefetch_coverage 0
Core_0_LLC_total_eviction 0

[DRAM Statistics]
Channel_0_RQ_row_buffer_hit 3281
Channel_0_RQ_row_buffer_miss 3493663
Channel_0_WQ_row_buffer_hit 54364
Channel_0_WQ_row_buffer_miss 142848
Channel_0_WQ_full 0
Channel_0_dbus_congested 5554114
DRAM_total_RQ_row_buffer_hit 3281
DRAM_total_RQ_row_buffer_miss 3493663
DRAM_total_WQ_row_buffer_hit 54364
DRAM_total_WQ_row_buffer_miss 142848
DRAM_total_WQ_full 0
DRAM_total_dbus_congested 5554114
DRAM_avg_congested_cycle 9.47804

======STLB miss causes ========
Core_0_STLB_miss_cause_breakdown
Core_0_STLB_cause_Demand_Data_miss 31711
Core_0_STLB_cause_Demand_Data_miss_rate 0.00480957
Core_0_STLB_cause_Demand_Instruction_miss 0
Core_0_STLB_cause_Demand_Instruction_miss_rate 0
Core_0_STLB_cause_L1D_Prefetch_miss 679
Core_0_STLB_cause_L1D_Prefetch_miss_rate 0.000102983
Core_0_STLB_cause_L1I_Prefetch_miss 0
Core_0_STLB_cause_L1I_Prefetch_miss_rate 0
Core_0_STLB_cause_Other_miss 0
Core_0_STLB_cause_Other_miss_rate 0
Core_0_STLB_Demand_miss 31711
Core_0_STLB_Demand_miss_rate 0.00480957
Core_0_STLB_L1D_Prefetch_miss 679
Core_0_STLB_L1D_Prefetch_miss_rate 0.000102983
Core_0_STLB_Other_miss 0
Core_0_STLB_Other_miss_rate 0
