[VMEM] WARNING: physical memory size is smaller than virtual memory size.

*** ChampSim Multicore Out-of-Order Simulator ***
Warmup Instructions: 20000000
Simulation Instructions: 50000000
Number of CPUs: 1
Page size: 4096
STLB ideal mode: off
STLB ideal fill: off
Core 0: /data0/tzh/champsim_traces/SPEC06/459.GemsFDTD-765B.champsimtrace.xz
 L1D Berti prefetcher
Off-chip DRAM Size: 16 GiB Channels: 1 Width: 64-bit Data Rate: 3205 MT/s
Warmup halting CPU 0 at instruction 20000005 cycle 6895585 for remainder of phase
Warmup finished CPU 0 instructions: 20000005 cycles: 6895585 cumulative IPC: 2.9 (Simulation time: 00 hr 01 min 25 sec)
Warmup complete CPU 0 instructions: 20000005 cycles: 6895585 cumulative IPC: 2.9 (Simulation time: 00 hr 01 min 25 sec)
Simulation finished CPU 0 instructions: 50000004 cycles: 60158349 cumulative IPC: 0.8311 (Simulation time: 00 hr 09 min 09 sec)
Simulation complete CPU 0 instructions: 50000004 cycles: 60158349 cumulative IPC: 0.8311 (Simulation time: 00 hr 09 min 09 sec)

ChampSim completed all CPUs

=== Simulation ===
CPU 0 runs /data0/tzh/champsim_traces/SPEC06/459.GemsFDTD-765B.champsimtrace.xz

Region of Interest Statistics

CPU 0 cumulative IPC: 0.8311 instructions: 50000004 cycles: 60158349
CPU 0 Branch Prediction Accuracy: 99.9% MPKI: 0.00656 Average ROB Occupancy at Mispredict: 318.7
Branch type MPKI
BRANCH_DIRECT_JUMP: 0.00012
BRANCH_INDIRECT: 0
BRANCH_CONDITIONAL: 0.00644
BRANCH_DIRECT_CALL: 0
BRANCH_INDIRECT_CALL: 0
BRANCH_RETURN: 0

cpu0->cpu0_STLB TOTAL        ACCESS:     309109 HIT:     181818 MISS:     127291 MSHR_MERGE:          0
cpu0->cpu0_STLB LOAD         ACCESS:     309109 HIT:     181818 MISS:     127291 MSHR_MERGE:          0
cpu0->cpu0_STLB RFO          ACCESS:          0 HIT:          0 MISS:          0 MSHR_MERGE:          0
cpu0->cpu0_STLB PREFETCH     ACCESS:          0 HIT:          0 MISS:          0 MSHR_MERGE:          0
cpu0->cpu0_STLB WRITE        ACCESS:          0 HIT:          0 MISS:          0 MSHR_MERGE:          0
cpu0->cpu0_STLB TRANSLATION  ACCESS:          0 HIT:          0 MISS:          0 MSHR_MERGE:          0
cpu0->cpu0_STLB PREFETCH REQUESTED:          0 ISSUED:          0 USEFUL:          0 USELESS:          0 LATE:          0
cpu0->cpu0_STLB AVERAGE MISS LATENCY: 255.3 cycles
cpu0->cpu0_L2C TOTAL        ACCESS:    1849314 HIT:     761096 MISS:    1088218 MSHR_MERGE:       1770
cpu0->cpu0_L2C LOAD         ACCESS:     564459 HIT:      97346 MISS:     467113 MSHR_MERGE:          1
cpu0->cpu0_L2C RFO          ACCESS:       1443 HIT:       1433 MISS:         10 MSHR_MERGE:          0
cpu0->cpu0_L2C PREFETCH     ACCESS:     787853 HIT:     184132 MISS:     603721 MSHR_MERGE:       1769
cpu0->cpu0_L2C WRITE        ACCESS:     476934 HIT:     476924 MISS:         10 MSHR_MERGE:          0
cpu0->cpu0_L2C TRANSLATION  ACCESS:      18625 HIT:       1261 MISS:      17364 MSHR_MERGE:          0
cpu0->cpu0_L2C PREFETCH REQUESTED:      64981 ISSUED:      64981 USEFUL:      15102 USELESS:       4619 LATE:          1
cpu0->cpu0_L2C AVERAGE MISS LATENCY: 312.6 cycles
cpu0->cpu0_L1I TOTAL        ACCESS:   14356206 HIT:   14356027 MISS:        179 MSHR_MERGE:         70
cpu0->cpu0_L1I LOAD         ACCESS:   14356206 HIT:   14356027 MISS:        179 MSHR_MERGE:         70
cpu0->cpu0_L1I RFO          ACCESS:          0 HIT:          0 MISS:          0 MSHR_MERGE:          0
cpu0->cpu0_L1I PREFETCH     ACCESS:          0 HIT:          0 MISS:          0 MSHR_MERGE:          0
cpu0->cpu0_L1I WRITE        ACCESS:          0 HIT:          0 MISS:          0 MSHR_MERGE:          0
cpu0->cpu0_L1I TRANSLATION  ACCESS:          0 HIT:          0 MISS:          0 MSHR_MERGE:          0
cpu0->cpu0_L1I PREFETCH REQUESTED:          0 ISSUED:          0 USEFUL:          0 USELESS:          0 LATE:          0
cpu0->cpu0_L1I AVERAGE MISS LATENCY: 280.1 cycles
cpu0->cpu0_L1D TOTAL        ACCESS:   26832207 HIT:   25377725 MISS:    1454482 MSHR_MERGE:     147188
cpu0->cpu0_L1D LOAD         ACCESS:   22237233 HIT:   21538924 MISS:     698309 MSHR_MERGE:     133959
cpu0->cpu0_L1D RFO          ACCESS:          0 HIT:          0 MISS:          0 MSHR_MERGE:          0
cpu0->cpu0_L1D PREFETCH     ACCESS:     944334 HIT:     210953 MISS:     733381 MSHR_MERGE:      10509
cpu0->cpu0_L1D WRITE        ACCESS:    3396595 HIT:    3393348 MISS:       3247 MSHR_MERGE:       1800
cpu0->cpu0_L1D TRANSLATION  ACCESS:     254045 HIT:     234500 MISS:      19545 MSHR_MERGE:        920
cpu0->cpu0_L1D PREFETCH REQUESTED:     956534 ISSUED:     944335 USEFUL:     505210 USELESS:     217573 LATE:      49227
cpu0->cpu0_L1D AVERAGE MISS LATENCY: 265.5 cycles
cpu0->cpu0_ITLB TOTAL        ACCESS:   12445263 HIT:   12445255 MISS:          8 MSHR_MERGE:          6
cpu0->cpu0_ITLB LOAD         ACCESS:   12445263 HIT:   12445255 MISS:          8 MSHR_MERGE:          6
cpu0->cpu0_ITLB RFO          ACCESS:          0 HIT:          0 MISS:          0 MSHR_MERGE:          0
cpu0->cpu0_ITLB PREFETCH     ACCESS:          0 HIT:          0 MISS:          0 MSHR_MERGE:          0
cpu0->cpu0_ITLB WRITE        ACCESS:          0 HIT:          0 MISS:          0 MSHR_MERGE:          0
cpu0->cpu0_ITLB TRANSLATION  ACCESS:          0 HIT:          0 MISS:          0 MSHR_MERGE:          0
cpu0->cpu0_ITLB PREFETCH REQUESTED:          0 ISSUED:          0 USEFUL:          0 USELESS:          0 LATE:          0
cpu0->cpu0_ITLB AVERAGE MISS LATENCY: 606 cycles
cpu0->cpu0_DTLB TOTAL        ACCESS:   25667811 HIT:   25290793 MISS:     377018 MSHR_MERGE:      67911
cpu0->cpu0_DTLB LOAD         ACCESS:   25667811 HIT:   25290793 MISS:     377018 MSHR_MERGE:      67911
cpu0->cpu0_DTLB RFO          ACCESS:          0 HIT:          0 MISS:          0 MSHR_MERGE:          0
cpu0->cpu0_DTLB PREFETCH     ACCESS:          0 HIT:          0 MISS:          0 MSHR_MERGE:          0
cpu0->cpu0_DTLB WRITE        ACCESS:          0 HIT:          0 MISS:          0 MSHR_MERGE:          0
cpu0->cpu0_DTLB TRANSLATION  ACCESS:          0 HIT:          0 MISS:          0 MSHR_MERGE:          0
cpu0->cpu0_DTLB PREFETCH REQUESTED:          0 ISSUED:          0 USEFUL:          0 USELESS:          0 LATE:          0
cpu0->cpu0_DTLB AVERAGE MISS LATENCY: 110.6 cycles
cpu0->LLC TOTAL        ACCESS:    1561649 HIT:     356766 MISS:    1204883 MSHR_MERGE:         11
cpu0->LLC LOAD         ACCESS:     467112 HIT:       8713 MISS:     458399 MSHR_MERGE:          0
cpu0->LLC RFO          ACCESS:         10 HIT:          1 MISS:          9 MSHR_MERGE:          0
cpu0->LLC PREFETCH     ACCESS:     601952 HIT:      24735 MISS:     577217 MSHR_MERGE:         11
cpu0->LLC WRITE        ACCESS:     475211 HIT:     323186 MISS:     152025 MSHR_MERGE:          0
cpu0->LLC TRANSLATION  ACCESS:      17364 HIT:        131 MISS:      17233 MSHR_MERGE:          0
cpu0->LLC PREFETCH REQUESTED:          0 ISSUED:          0 USEFUL:          0 USELESS:          0 LATE:          0
cpu0->LLC AVERAGE MISS LATENCY: 231.1 cycles

DRAM Statistics

Channel 0 RQ ROW_BUFFER_HIT:      16771
  ROW_BUFFER_MISS:    1036075
  AVG DBUS CONGESTED CYCLE: 8.376
Channel 0 WQ ROW_BUFFER_HIT:      81903
  ROW_BUFFER_MISS:     393488
  FULL:          0
Channel 0 REFRESHES ISSUED:       5013

[ROI Statistics]
[System Configuration]
num_cpus 1
cpu_freq 4000
fetch_width 6
decode_width 6
dispatch_width 6
execute_width 6
lq_width 2
sq_width 2
retire_width 6
scheduler_size 128
branch_mispredict_penalty 15
rob_size 352
lq_size 128
sq_size 72
ifetch_buffer_size 64
decode_buffer_size 32
dispatch_buffer_size 32
register_file_size 288
decode_latency 1
dispatch_latency 1
schedule_latency 1
execute_latency 1
page_size 4096
block_size 64
core_0_itlb_set 16
core_0_itlb_way 4
core_0_itlb_rq_size 16
core_0_itlb_wq_size 16
core_0_itlb_pq_size 0
core_0_itlb_mshr_size 8
core_0_itlb_hit_latency 1
core_0_itlb_fill_latency 1
core_0_itlb_max_tag_check 2
core_0_itlb_max_fill 2
core_0_dtlb_set 16
core_0_dtlb_way 4
core_0_dtlb_rq_size 16
core_0_dtlb_wq_size 16
core_0_dtlb_pq_size 0
core_0_dtlb_mshr_size 8
core_0_dtlb_hit_latency 1
core_0_dtlb_fill_latency 1
core_0_dtlb_max_tag_check 2
core_0_dtlb_max_fill 2
core_0_stlb_set 262144
core_0_stlb_way 16
core_0_stlb_rq_size 32
core_0_stlb_wq_size 32
core_0_stlb_pq_size 0
core_0_stlb_mshr_size 16
core_0_stlb_hit_latency 4
core_0_stlb_fill_latency 4
core_0_stlb_max_tag_check 1
core_0_stlb_max_fill 1
core_0_l1i_set 64
core_0_l1i_way 8
core_0_l1i_rq_size 64
core_0_l1i_wq_size 64
core_0_l1i_pq_size 32
core_0_l1i_mshr_size 8
core_0_l1i_hit_latency 2
core_0_l1i_fill_latency 2
core_0_l1i_max_tag_check 2
core_0_l1i_max_fill 2
core_0_l1d_set 64
core_0_l1d_way 12
core_0_l1d_rq_size 64
core_0_l1d_wq_size 64
core_0_l1d_pq_size 8
core_0_l1d_mshr_size 16
core_0_l1d_hit_latency 2
core_0_l1d_fill_latency 3
core_0_l1d_max_tag_check 2
core_0_l1d_max_fill 2
core_0_l2c_set 1024
core_0_l2c_way 8
core_0_l2c_rq_size 32
core_0_l2c_wq_size 32
core_0_l2c_pq_size 16
core_0_l2c_mshr_size 32
core_0_l2c_hit_latency 5
core_0_l2c_fill_latency 5
core_0_l2c_max_tag_check 1
core_0_l2c_max_fill 1
llc_set 2048
llc_way 16
llc_rq_size 32
llc_wq_size 32
llc_pq_size 32
llc_mshr_size 64
llc_hit_latency 10
llc_fill_latency 10
llc_max_tag_check 1
llc_max_fill 1
dram_channels 1
dram_ranks 1
dram_bankgroups 8
dram_banks 4
dram_rows 65536
dram_columns 1024
dram_channel_width 8
dram_rq_size 64
dram_wq_size 64
dram_size 17179869184
core_0_itlb_prefetcher no
core_0_dtlb_prefetcher no
core_0_stlb_prefetcher no
core_0_l1i_prefetcher next_line
core_0_l1d_prefetcher berti
core_0_l2c_prefetcher ip_stride
llc_prefetcher no
llc_replacement drrip

Core_0_instructions 50000004
Core_0_cycles 60158349
Core_0_IPC 0.83114
Core_0_branch_prediction_accuracy 99.9006
Core_0_branch_MPKI 0.00656
Core_0_average_ROB_occupancy_at_mispredict 318.747

Core_0_ITLB_total_access 12445263
Core_0_ITLB_total_hit 12445255
Core_0_ITLB_total_miss 8
Core_0_ITLB_total_MPKI 0.00016
Core_0_ITLB_total_miss_rate 6.42815e-07
Core_0_ITLB_demand_access 12445263
Core_0_ITLB_demand_hit 12445255
Core_0_ITLB_demand_miss 8
Core_0_ITLB_demand_MPKI 0.00016
Core_0_ITLB_demand_miss_rate 6.42815e-07
Core_0_ITLB_load_access 12445263
Core_0_ITLB_load_hit 12445255
Core_0_ITLB_load_miss 8
Core_0_ITLB_load_MPKI 0.00016
Core_0_ITLB_load_miss_rate 6.42815e-07
Core_0_ITLB_rfo_access 0
Core_0_ITLB_rfo_hit 0
Core_0_ITLB_rfo_miss 0
Core_0_ITLB_rfo_MPKI 0
Core_0_ITLB_rfo_miss_rate 0
Core_0_ITLB_prefetch_access 0
Core_0_ITLB_prefetch_hit 0
Core_0_ITLB_prefetch_miss 0
Core_0_ITLB_prefetch_MPKI 0
Core_0_ITLB_prefetch_miss_rate 0
Core_0_ITLB_writeback_access 0
Core_0_ITLB_writeback_hit 0
Core_0_ITLB_writeback_miss 0
Core_0_ITLB_writeback_MPKI 0
Core_0_ITLB_writeback_miss_rate 0
Core_0_ITLB_prefetch_requested 0
Core_0_ITLB_prefetch_issued 0
Core_0_ITLB_prefetch_useful 0
Core_0_ITLB_prefetch_useless 0
Core_0_ITLB_prefetch_late 0
Core_0_ITLB_prefetch_accuracy 0
Core_0_ITLB_prefetch_coverage 0
Core_0_ITLB_total_eviction 0

Core_0_DTLB_total_access 25667811
Core_0_DTLB_total_hit 25290793
Core_0_DTLB_total_miss 377018
Core_0_DTLB_total_MPKI 7.54036
Core_0_DTLB_total_miss_rate 0.0146884
Core_0_DTLB_demand_access 25667811
Core_0_DTLB_demand_hit 25290793
Core_0_DTLB_demand_miss 377018
Core_0_DTLB_demand_MPKI 7.54036
Core_0_DTLB_demand_miss_rate 0.0146884
Core_0_DTLB_load_access 25667811
Core_0_DTLB_load_hit 25290793
Core_0_DTLB_load_miss 377018
Core_0_DTLB_load_MPKI 7.54036
Core_0_DTLB_load_miss_rate 0.0146884
Core_0_DTLB_rfo_access 0
Core_0_DTLB_rfo_hit 0
Core_0_DTLB_rfo_miss 0
Core_0_DTLB_rfo_MPKI 0
Core_0_DTLB_rfo_miss_rate 0
Core_0_DTLB_prefetch_access 0
Core_0_DTLB_prefetch_hit 0
Core_0_DTLB_prefetch_miss 0
Core_0_DTLB_prefetch_MPKI 0
Core_0_DTLB_prefetch_miss_rate 0
Core_0_DTLB_writeback_access 0
Core_0_DTLB_writeback_hit 0
Core_0_DTLB_writeback_miss 0
Core_0_DTLB_writeback_MPKI 0
Core_0_DTLB_writeback_miss_rate 0
Core_0_DTLB_prefetch_requested 0
Core_0_DTLB_prefetch_issued 0
Core_0_DTLB_prefetch_useful 0
Core_0_DTLB_prefetch_useless 0
Core_0_DTLB_prefetch_late 0
Core_0_DTLB_prefetch_accuracy 0
Core_0_DTLB_prefetch_coverage 0
Core_0_DTLB_total_eviction 0

Core_0_STLB_total_access 309109
Core_0_STLB_total_hit 181818
Core_0_STLB_total_miss 127291
Core_0_STLB_total_MPKI 2.54582
Core_0_STLB_total_miss_rate 0.4118
Core_0_STLB_demand_access 309109
Core_0_STLB_demand_hit 181818
Core_0_STLB_demand_miss 127291
Core_0_STLB_demand_MPKI 2.54582
Core_0_STLB_demand_miss_rate 0.4118
Core_0_STLB_load_access 309109
Core_0_STLB_load_hit 181818
Core_0_STLB_load_miss 127291
Core_0_STLB_load_MPKI 2.54582
Core_0_STLB_load_miss_rate 0.4118
Core_0_STLB_rfo_access 0
Core_0_STLB_rfo_hit 0
Core_0_STLB_rfo_miss 0
Core_0_STLB_rfo_MPKI 0
Core_0_STLB_rfo_miss_rate 0
Core_0_STLB_prefetch_access 0
Core_0_STLB_prefetch_hit 0
Core_0_STLB_prefetch_miss 0
Core_0_STLB_prefetch_MPKI 0
Core_0_STLB_prefetch_miss_rate 0
Core_0_STLB_writeback_access 0
Core_0_STLB_writeback_hit 0
Core_0_STLB_writeback_miss 0
Core_0_STLB_writeback_MPKI 0
Core_0_STLB_writeback_miss_rate 0
Core_0_STLB_prefetch_requested 0
Core_0_STLB_prefetch_issued 0
Core_0_STLB_prefetch_useful 0
Core_0_STLB_prefetch_useless 0
Core_0_STLB_prefetch_late 0
Core_0_STLB_prefetch_accuracy 0
Core_0_STLB_prefetch_coverage 0
Core_0_STLB_total_eviction 0

Core_0_L1I_total_access 14356206
Core_0_L1I_total_hit 14356027
Core_0_L1I_total_miss 179
Core_0_L1I_total_MPKI 0.00358
Core_0_L1I_total_miss_rate 1.24685e-05
Core_0_L1I_demand_access 14356206
Core_0_L1I_demand_hit 14356027
Core_0_L1I_demand_miss 179
Core_0_L1I_demand_MPKI 0.00358
Core_0_L1I_demand_miss_rate 1.24685e-05
Core_0_L1I_load_access 14356206
Core_0_L1I_load_hit 14356027
Core_0_L1I_load_miss 179
Core_0_L1I_load_MPKI 0.00358
Core_0_L1I_load_miss_rate 1.24685e-05
Core_0_L1I_rfo_access 0
Core_0_L1I_rfo_hit 0
Core_0_L1I_rfo_miss 0
Core_0_L1I_rfo_MPKI 0
Core_0_L1I_rfo_miss_rate 0
Core_0_L1I_prefetch_access 0
Core_0_L1I_prefetch_hit 0
Core_0_L1I_prefetch_miss 0
Core_0_L1I_prefetch_MPKI 0
Core_0_L1I_prefetch_miss_rate 0
Core_0_L1I_writeback_access 0
Core_0_L1I_writeback_hit 0
Core_0_L1I_writeback_miss 0
Core_0_L1I_writeback_MPKI 0
Core_0_L1I_writeback_miss_rate 0
Core_0_L1I_prefetch_requested 0
Core_0_L1I_prefetch_issued 0
Core_0_L1I_prefetch_useful 0
Core_0_L1I_prefetch_useless 0
Core_0_L1I_prefetch_late 0
Core_0_L1I_prefetch_accuracy 0
Core_0_L1I_prefetch_coverage 0
Core_0_L1I_total_eviction 0

Core_0_L1D_total_access 26578162
Core_0_L1D_total_hit 25143225
Core_0_L1D_total_miss 1434937
Core_0_L1D_total_MPKI 28.6987
Core_0_L1D_total_miss_rate 0.0539893
Core_0_L1D_demand_access 22237233
Core_0_L1D_demand_hit 21538924
Core_0_L1D_demand_miss 698309
Core_0_L1D_demand_MPKI 13.9662
Core_0_L1D_demand_miss_rate 0.0314027
Core_0_L1D_load_access 22237233
Core_0_L1D_load_hit 21538924
Core_0_L1D_load_miss 698309
Core_0_L1D_load_MPKI 13.9662
Core_0_L1D_load_miss_rate 0.0314027
Core_0_L1D_rfo_access 0
Core_0_L1D_rfo_hit 0
Core_0_L1D_rfo_miss 0
Core_0_L1D_rfo_MPKI 0
Core_0_L1D_rfo_miss_rate 0
Core_0_L1D_prefetch_access 944334
Core_0_L1D_prefetch_hit 210953
Core_0_L1D_prefetch_miss 733381
Core_0_L1D_prefetch_MPKI 14.6676
Core_0_L1D_prefetch_miss_rate 0.776612
Core_0_L1D_writeback_access 3396595
Core_0_L1D_writeback_hit 3393348
Core_0_L1D_writeback_miss 3247
Core_0_L1D_writeback_MPKI 0.06494
Core_0_L1D_writeback_miss_rate 0.000955957
Core_0_L1D_prefetch_requested 956534
Core_0_L1D_prefetch_issued 944335
Core_0_L1D_prefetch_useful 505210
Core_0_L1D_prefetch_useless 217573
Core_0_L1D_prefetch_late 49227
Core_0_L1D_prefetch_accuracy 0.53499
Core_0_L1D_prefetch_coverage 0.419777
Core_0_L1D_total_eviction 0

Core_0_L2C_total_access 1830689
Core_0_L2C_total_hit 759835
Core_0_L2C_total_miss 1070854
Core_0_L2C_total_MPKI 21.4171
Core_0_L2C_total_miss_rate 0.584946
Core_0_L2C_demand_access 565902
Core_0_L2C_demand_hit 98779
Core_0_L2C_demand_miss 467123
Core_0_L2C_demand_MPKI 9.34246
Core_0_L2C_demand_miss_rate 0.825449
Core_0_L2C_load_access 564459
Core_0_L2C_load_hit 97346
Core_0_L2C_load_miss 467113
Core_0_L2C_load_MPKI 9.34226
Core_0_L2C_load_miss_rate 0.827541
Core_0_L2C_rfo_access 1443
Core_0_L2C_rfo_hit 1433
Core_0_L2C_rfo_miss 10
Core_0_L2C_rfo_MPKI 0.0002
Core_0_L2C_rfo_miss_rate 0.00693001
Core_0_L2C_prefetch_access 787853
Core_0_L2C_prefetch_hit 184132
Core_0_L2C_prefetch_miss 603721
Core_0_L2C_prefetch_MPKI 12.0744
Core_0_L2C_prefetch_miss_rate 0.766286
Core_0_L2C_writeback_access 476934
Core_0_L2C_writeback_hit 476924
Core_0_L2C_writeback_miss 10
Core_0_L2C_writeback_MPKI 0.0002
Core_0_L2C_writeback_miss_rate 2.09673e-05
Core_0_L2C_prefetch_requested 64981
Core_0_L2C_prefetch_issued 64981
Core_0_L2C_prefetch_useful 15102
Core_0_L2C_prefetch_useless 4619
Core_0_L2C_prefetch_late 1
Core_0_L2C_prefetch_accuracy 0.232406
Core_0_L2C_prefetch_coverage 0.0313173
Core_0_L2C_total_eviction 0

Core_0_LLC_total_access 1544285
Core_0_LLC_total_hit 356635
Core_0_LLC_total_miss 1187650
Core_0_LLC_total_MPKI 23.753
Core_0_LLC_total_miss_rate 0.769061
Core_0_LLC_demand_access 467122
Core_0_LLC_demand_hit 8714
Core_0_LLC_demand_miss 458408
Core_0_LLC_demand_MPKI 9.16816
Core_0_LLC_demand_miss_rate 0.981345
Core_0_LLC_load_access 467112
Core_0_LLC_load_hit 8713
Core_0_LLC_load_miss 458399
Core_0_LLC_load_MPKI 9.16798
Core_0_LLC_load_miss_rate 0.981347
Core_0_LLC_rfo_access 10
Core_0_LLC_rfo_hit 1
Core_0_LLC_rfo_miss 9
Core_0_LLC_rfo_MPKI 0.00018
Core_0_LLC_rfo_miss_rate 0.9
Core_0_LLC_prefetch_access 601952
Core_0_LLC_prefetch_hit 24735
Core_0_LLC_prefetch_miss 577217
Core_0_LLC_prefetch_MPKI 11.5443
Core_0_LLC_prefetch_miss_rate 0.958909
Core_0_LLC_writeback_access 475211
Core_0_LLC_writeback_hit 323186
Core_0_LLC_writeback_miss 152025
Core_0_LLC_writeback_MPKI 3.0405
Core_0_LLC_writeback_miss_rate 0.319911
Core_0_LLC_prefetch_requested 0
Core_0_LLC_prefetch_issued 0
Core_0_LLC_prefetch_useful 0
Core_0_LLC_prefetch_useless 0
Core_0_LLC_prefetch_late 0
Core_0_LLC_prefetch_accuracy 0
Core_0_LLC_prefetch_coverage 0
Core_0_LLC_total_eviction 0

[DRAM Statistics]
Channel_0_RQ_row_buffer_hit 16771
Channel_0_RQ_row_buffer_miss 1036075
Channel_0_WQ_row_buffer_hit 81903
Channel_0_WQ_row_buffer_miss 393488
Channel_0_WQ_full 0
Channel_0_dbus_congested 3980437
DRAM_total_RQ_row_buffer_hit 16771
DRAM_total_RQ_row_buffer_miss 1036075
DRAM_total_WQ_row_buffer_hit 81903
DRAM_total_WQ_row_buffer_miss 393488
DRAM_total_WQ_full 0
DRAM_total_dbus_congested 3980437
DRAM_avg_congested_cycle 8.37588

======STLB miss causes ========
Core_0_STLB_miss_cause_breakdown
Core_0_STLB_cause_Demand_Data_miss 84437
Core_0_STLB_cause_Demand_Data_miss_rate 0.273163
Core_0_STLB_cause_Demand_Instruction_miss 2
Core_0_STLB_cause_Demand_Instruction_miss_rate 6.47021e-06
Core_0_STLB_cause_L1D_Prefetch_miss 42852
Core_0_STLB_cause_L1D_Prefetch_miss_rate 0.138631
Core_0_STLB_cause_L1I_Prefetch_miss 0
Core_0_STLB_cause_L1I_Prefetch_miss_rate 0
Core_0_STLB_cause_Other_miss 0
Core_0_STLB_cause_Other_miss_rate 0
Core_0_STLB_Demand_miss 84439
Core_0_STLB_Demand_miss_rate 0.273169
Core_0_STLB_L1D_Prefetch_miss 42852
Core_0_STLB_L1D_Prefetch_miss_rate 0.138631
Core_0_STLB_Other_miss 0
Core_0_STLB_Other_miss_rate 0
