[VMEM] WARNING: physical memory size is smaller than virtual memory size.

*** ChampSim Multicore Out-of-Order Simulator ***
Warmup Instructions: 20000000
Simulation Instructions: 50000000
Number of CPUs: 1
Page size: 4096
STLB ideal mode: off
STLB ideal fill: off
Core 0: /data0/tzh/champsim_traces/SPEC06/473.astar-359B.champsimtrace.xz
 L1D Berti prefetcher
Off-chip DRAM Size: 16 GiB Channels: 1 Width: 64-bit Data Rate: 3205 MT/s
Warmup halting CPU 0 at instruction 20000005 cycle 6002100 for remainder of phase
Warmup finished CPU 0 instructions: 20000005 cycles: 6002100 cumulative IPC: 3.332 (Simulation time: 00 hr 01 min 15 sec)
Warmup complete CPU 0 instructions: 20000005 cycles: 6002100 cumulative IPC: 3.332 (Simulation time: 00 hr 01 min 15 sec)
Simulation finished CPU 0 instructions: 50000002 cycles: 230097653 cumulative IPC: 0.2173 (Simulation time: 00 hr 17 min 35 sec)
Simulation complete CPU 0 instructions: 50000002 cycles: 230097653 cumulative IPC: 0.2173 (Simulation time: 00 hr 17 min 35 sec)

ChampSim completed all CPUs

=== Simulation ===
CPU 0 runs /data0/tzh/champsim_traces/SPEC06/473.astar-359B.champsimtrace.xz

Region of Interest Statistics

CPU 0 cumulative IPC: 0.2173 instructions: 50000002 cycles: 230097653
CPU 0 Branch Prediction Accuracy: 93.2% MPKI: 13.43 Average ROB Occupancy at Mispredict: 45.02
Branch type MPKI
BRANCH_DIRECT_JUMP: 0
BRANCH_INDIRECT: 0
BRANCH_CONDITIONAL: 13.42
BRANCH_DIRECT_CALL: 0
BRANCH_INDIRECT_CALL: 0.00054
BRANCH_RETURN: 0

cpu0->cpu0_STLB TOTAL        ACCESS:    1677437 HIT:    1675846 MISS:       1591 MSHR_MERGE:          0
cpu0->cpu0_STLB LOAD         ACCESS:    1677437 HIT:    1675846 MISS:       1591 MSHR_MERGE:          0
cpu0->cpu0_STLB RFO          ACCESS:          0 HIT:          0 MISS:          0 MSHR_MERGE:          0
cpu0->cpu0_STLB PREFETCH     ACCESS:          0 HIT:          0 MISS:          0 MSHR_MERGE:          0
cpu0->cpu0_STLB WRITE        ACCESS:          0 HIT:          0 MISS:          0 MSHR_MERGE:          0
cpu0->cpu0_STLB TRANSLATION  ACCESS:          0 HIT:          0 MISS:          0 MSHR_MERGE:          0
cpu0->cpu0_STLB PREFETCH REQUESTED:          0 ISSUED:          0 USEFUL:          0 USELESS:          0 LATE:          0
cpu0->cpu0_STLB AVERAGE MISS LATENCY: 452.2 cycles
cpu0->cpu0_L2C TOTAL        ACCESS:    4109710 HIT:    2103624 MISS:    2006086 MSHR_MERGE:      71218
cpu0->cpu0_L2C LOAD         ACCESS:    1538459 HIT:     658816 MISS:     879643 MSHR_MERGE:       4213
cpu0->cpu0_L2C RFO          ACCESS:     763629 HIT:      47992 MISS:     715637 MSHR_MERGE:          0
cpu0->cpu0_L2C PREFETCH     ACCESS:     638477 HIT:     229535 MISS:     408942 MSHR_MERGE:      67005
cpu0->cpu0_L2C WRITE        ACCESS:    1167040 HIT:    1166996 MISS:         44 MSHR_MERGE:          0
cpu0->cpu0_L2C TRANSLATION  ACCESS:       2105 HIT:        285 MISS:       1820 MSHR_MERGE:          0
cpu0->cpu0_L2C PREFETCH REQUESTED:     169129 ISSUED:     169129 USEFUL:      37122 USELESS:      22145 LATE:       4213
cpu0->cpu0_L2C AVERAGE MISS LATENCY: 349.6 cycles
cpu0->cpu0_L1I TOTAL        ACCESS:     718707 HIT:     718700 MISS:          7 MSHR_MERGE:          0
cpu0->cpu0_L1I LOAD         ACCESS:     718707 HIT:     718700 MISS:          7 MSHR_MERGE:          0
cpu0->cpu0_L1I RFO          ACCESS:          0 HIT:          0 MISS:          0 MSHR_MERGE:          0
cpu0->cpu0_L1I PREFETCH     ACCESS:          0 HIT:          0 MISS:          0 MSHR_MERGE:          0
cpu0->cpu0_L1I WRITE        ACCESS:          0 HIT:          0 MISS:          0 MSHR_MERGE:          0
cpu0->cpu0_L1I TRANSLATION  ACCESS:          0 HIT:          0 MISS:          0 MSHR_MERGE:          0
cpu0->cpu0_L1I PREFETCH REQUESTED:          0 ISSUED:          0 USEFUL:          0 USELESS:          0 LATE:          0
cpu0->cpu0_L1I AVERAGE MISS LATENCY: 212.7 cycles
cpu0->cpu0_L1D TOTAL        ACCESS:   20717954 HIT:   17272006 MISS:    3445948 MSHR_MERGE:     672409
cpu0->cpu0_L1D LOAD         ACCESS:   13815722 HIT:   11628950 MISS:    2186772 MSHR_MERGE:     648320
cpu0->cpu0_L1D RFO          ACCESS:          0 HIT:          0 MISS:          0 MSHR_MERGE:          0
cpu0->cpu0_L1D PREFETCH     ACCESS:     583394 HIT:      90076 MISS:     493318 MSHR_MERGE:      23965
cpu0->cpu0_L1D WRITE        ACCESS:    6315106 HIT:    5551355 MISS:     763751 MSHR_MERGE:        122
cpu0->cpu0_L1D TRANSLATION  ACCESS:       3732 HIT:       1625 MISS:       2107 MSHR_MERGE:          2
cpu0->cpu0_L1D PREFETCH REQUESTED:     587696 ISSUED:     583397 USEFUL:     177669 USELESS:     291759 LATE:      11578
cpu0->cpu0_L1D AVERAGE MISS LATENCY: 251.4 cycles
cpu0->cpu0_ITLB TOTAL        ACCESS:     718609 HIT:     718609 MISS:          0 MSHR_MERGE:          0
cpu0->cpu0_ITLB LOAD         ACCESS:     718609 HIT:     718609 MISS:          0 MSHR_MERGE:          0
cpu0->cpu0_ITLB RFO          ACCESS:          0 HIT:          0 MISS:          0 MSHR_MERGE:          0
cpu0->cpu0_ITLB PREFETCH     ACCESS:          0 HIT:          0 MISS:          0 MSHR_MERGE:          0
cpu0->cpu0_ITLB WRITE        ACCESS:          0 HIT:          0 MISS:          0 MSHR_MERGE:          0
cpu0->cpu0_ITLB TRANSLATION  ACCESS:          0 HIT:          0 MISS:          0 MSHR_MERGE:          0
cpu0->cpu0_ITLB PREFETCH REQUESTED:          0 ISSUED:          0 USEFUL:          0 USELESS:          0 LATE:          0
cpu0->cpu0_ITLB AVERAGE MISS LATENCY: - cycles
cpu0->cpu0_DTLB TOTAL        ACCESS:   20159709 HIT:   17846352 MISS:    2313357 MSHR_MERGE:     635918
cpu0->cpu0_DTLB LOAD         ACCESS:   20159709 HIT:   17846352 MISS:    2313357 MSHR_MERGE:     635918
cpu0->cpu0_DTLB RFO          ACCESS:          0 HIT:          0 MISS:          0 MSHR_MERGE:          0
cpu0->cpu0_DTLB PREFETCH     ACCESS:          0 HIT:          0 MISS:          0 MSHR_MERGE:          0
cpu0->cpu0_DTLB WRITE        ACCESS:          0 HIT:          0 MISS:          0 MSHR_MERGE:          0
cpu0->cpu0_DTLB TRANSLATION  ACCESS:          0 HIT:          0 MISS:          0 MSHR_MERGE:          0
cpu0->cpu0_DTLB PREFETCH REQUESTED:          0 ISSUED:          0 USEFUL:          0 USELESS:          0 LATE:          0
cpu0->cpu0_DTLB AVERAGE MISS LATENCY: 5.432 cycles
cpu0->LLC TOTAL        ACCESS:    3047930 HIT:     555940 MISS:    2491990 MSHR_MERGE:      16107
cpu0->LLC LOAD         ACCESS:     875430 HIT:      57072 MISS:     818358 MSHR_MERGE:        597
cpu0->LLC RFO          ACCESS:     715637 HIT:     135454 MISS:     580183 MSHR_MERGE:          0
cpu0->LLC PREFETCH     ACCESS:     341934 HIT:      22625 MISS:     319309 MSHR_MERGE:      15510
cpu0->LLC WRITE        ACCESS:    1113109 HIT:     340688 MISS:     772421 MSHR_MERGE:          0
cpu0->LLC TRANSLATION  ACCESS:       1820 HIT:        101 MISS:       1719 MSHR_MERGE:          0
cpu0->LLC PREFETCH REQUESTED:          0 ISSUED:          0 USEFUL:          0 USELESS:          0 LATE:          0
cpu0->LLC AVERAGE MISS LATENCY: 247.5 cycles

DRAM Statistics

Channel 0 RQ ROW_BUFFER_HIT:      61374
  ROW_BUFFER_MISS:    1641671
  AVG DBUS CONGESTED CYCLE: 16.4
Channel 0 WQ ROW_BUFFER_HIT:     229884
  ROW_BUFFER_MISS:     700980
  FULL:       4090
Channel 0 REFRESHES ISSUED:      19174

[ROI Statistics]
[System Configuration]
num_cpus 1
cpu_freq 4000
fetch_width 6
decode_width 6
dispatch_width 6
execute_width 6
lq_width 2
sq_width 2
retire_width 6
scheduler_size 128
branch_mispredict_penalty 15
rob_size 352
lq_size 128
sq_size 72
ifetch_buffer_size 64
decode_buffer_size 32
dispatch_buffer_size 32
register_file_size 288
decode_latency 1
dispatch_latency 1
schedule_latency 1
execute_latency 1
page_size 4096
block_size 64
core_0_itlb_set 16
core_0_itlb_way 4
core_0_itlb_rq_size 16
core_0_itlb_wq_size 16
core_0_itlb_pq_size 0
core_0_itlb_mshr_size 8
core_0_itlb_hit_latency 1
core_0_itlb_fill_latency 1
core_0_itlb_max_tag_check 2
core_0_itlb_max_fill 2
core_0_dtlb_set 16
core_0_dtlb_way 4
core_0_dtlb_rq_size 16
core_0_dtlb_wq_size 16
core_0_dtlb_pq_size 0
core_0_dtlb_mshr_size 8
core_0_dtlb_hit_latency 1
core_0_dtlb_fill_latency 1
core_0_dtlb_max_tag_check 2
core_0_dtlb_max_fill 2
core_0_stlb_set 262144
core_0_stlb_way 16
core_0_stlb_rq_size 32
core_0_stlb_wq_size 32
core_0_stlb_pq_size 0
core_0_stlb_mshr_size 16
core_0_stlb_hit_latency 4
core_0_stlb_fill_latency 4
core_0_stlb_max_tag_check 1
core_0_stlb_max_fill 1
core_0_l1i_set 64
core_0_l1i_way 8
core_0_l1i_rq_size 64
core_0_l1i_wq_size 64
core_0_l1i_pq_size 32
core_0_l1i_mshr_size 8
core_0_l1i_hit_latency 2
core_0_l1i_fill_latency 2
core_0_l1i_max_tag_check 2
core_0_l1i_max_fill 2
core_0_l1d_set 64
core_0_l1d_way 12
core_0_l1d_rq_size 64
core_0_l1d_wq_size 64
core_0_l1d_pq_size 8
core_0_l1d_mshr_size 16
core_0_l1d_hit_latency 2
core_0_l1d_fill_latency 3
core_0_l1d_max_tag_check 2
core_0_l1d_max_fill 2
core_0_l2c_set 1024
core_0_l2c_way 8
core_0_l2c_rq_size 32
core_0_l2c_wq_size 32
core_0_l2c_pq_size 16
core_0_l2c_mshr_size 32
core_0_l2c_hit_latency 5
core_0_l2c_fill_latency 5
core_0_l2c_max_tag_check 1
core_0_l2c_max_fill 1
llc_set 2048
llc_way 16
llc_rq_size 32
llc_wq_size 32
llc_pq_size 32
llc_mshr_size 64
llc_hit_latency 10
llc_fill_latency 10
llc_max_tag_check 1
llc_max_fill 1
dram_channels 1
dram_ranks 1
dram_bankgroups 8
dram_banks 4
dram_rows 65536
dram_columns 1024
dram_channel_width 8
dram_rq_size 64
dram_wq_size 64
dram_size 17179869184
core_0_itlb_prefetcher no
core_0_dtlb_prefetcher no
core_0_stlb_prefetcher no
core_0_l1i_prefetcher next_line
core_0_l1d_prefetcher berti
core_0_l2c_prefetcher ip_stride
llc_prefetcher no
llc_replacement drrip

Core_0_instructions 50000002
Core_0_cycles 230097653
Core_0_IPC 0.217299
Core_0_branch_prediction_accuracy 93.1958
Core_0_branch_MPKI 13.4253
Core_0_average_ROB_occupancy_at_mispredict 45.0157

Core_0_ITLB_total_access 718609
Core_0_ITLB_total_hit 718609
Core_0_ITLB_total_miss 0
Core_0_ITLB_total_MPKI 0
Core_0_ITLB_total_miss_rate 0
Core_0_ITLB_demand_access 718609
Core_0_ITLB_demand_hit 718609
Core_0_ITLB_demand_miss 0
Core_0_ITLB_demand_MPKI 0
Core_0_ITLB_demand_miss_rate 0
Core_0_ITLB_load_access 718609
Core_0_ITLB_load_hit 718609
Core_0_ITLB_load_miss 0
Core_0_ITLB_load_MPKI 0
Core_0_ITLB_load_miss_rate 0
Core_0_ITLB_rfo_access 0
Core_0_ITLB_rfo_hit 0
Core_0_ITLB_rfo_miss 0
Core_0_ITLB_rfo_MPKI 0
Core_0_ITLB_rfo_miss_rate 0
Core_0_ITLB_prefetch_access 0
Core_0_ITLB_prefetch_hit 0
Core_0_ITLB_prefetch_miss 0
Core_0_ITLB_prefetch_MPKI 0
Core_0_ITLB_prefetch_miss_rate 0
Core_0_ITLB_writeback_access 0
Core_0_ITLB_writeback_hit 0
Core_0_ITLB_writeback_miss 0
Core_0_ITLB_writeback_MPKI 0
Core_0_ITLB_writeback_miss_rate 0
Core_0_ITLB_prefetch_requested 0
Core_0_ITLB_prefetch_issued 0
Core_0_ITLB_prefetch_useful 0
Core_0_ITLB_prefetch_useless 0
Core_0_ITLB_prefetch_late 0
Core_0_ITLB_prefetch_accuracy 0
Core_0_ITLB_prefetch_coverage 0
Core_0_ITLB_total_eviction 0

Core_0_DTLB_total_access 20159709
Core_0_DTLB_total_hit 17846352
Core_0_DTLB_total_miss 2313357
Core_0_DTLB_total_MPKI 46.2671
Core_0_DTLB_total_miss_rate 0.114752
Core_0_DTLB_demand_access 20159709
Core_0_DTLB_demand_hit 17846352
Core_0_DTLB_demand_miss 2313357
Core_0_DTLB_demand_MPKI 46.2671
Core_0_DTLB_demand_miss_rate 0.114752
Core_0_DTLB_load_access 20159709
Core_0_DTLB_load_hit 17846352
Core_0_DTLB_load_miss 2313357
Core_0_DTLB_load_MPKI 46.2671
Core_0_DTLB_load_miss_rate 0.114752
Core_0_DTLB_rfo_access 0
Core_0_DTLB_rfo_hit 0
Core_0_DTLB_rfo_miss 0
Core_0_DTLB_rfo_MPKI 0
Core_0_DTLB_rfo_miss_rate 0
Core_0_DTLB_prefetch_access 0
Core_0_DTLB_prefetch_hit 0
Core_0_DTLB_prefetch_miss 0
Core_0_DTLB_prefetch_MPKI 0
Core_0_DTLB_prefetch_miss_rate 0
Core_0_DTLB_writeback_access 0
Core_0_DTLB_writeback_hit 0
Core_0_DTLB_writeback_miss 0
Core_0_DTLB_writeback_MPKI 0
Core_0_DTLB_writeback_miss_rate 0
Core_0_DTLB_prefetch_requested 0
Core_0_DTLB_prefetch_issued 0
Core_0_DTLB_prefetch_useful 0
Core_0_DTLB_prefetch_useless 0
Core_0_DTLB_prefetch_late 0
Core_0_DTLB_prefetch_accuracy 0
Core_0_DTLB_prefetch_coverage 0
Core_0_DTLB_total_eviction 0

Core_0_STLB_total_access 1677437
Core_0_STLB_total_hit 1675846
Core_0_STLB_total_miss 1591
Core_0_STLB_total_MPKI 0.03182
Core_0_STLB_total_miss_rate 0.000948471
Core_0_STLB_demand_access 1677437
Core_0_STLB_demand_hit 1675846
Core_0_STLB_demand_miss 1591
Core_0_STLB_demand_MPKI 0.03182
Core_0_STLB_demand_miss_rate 0.000948471
Core_0_STLB_load_access 1677437
Core_0_STLB_load_hit 1675846
Core_0_STLB_load_miss 1591
Core_0_STLB_load_MPKI 0.03182
Core_0_STLB_load_miss_rate 0.000948471
Core_0_STLB_rfo_access 0
Core_0_STLB_rfo_hit 0
Core_0_STLB_rfo_miss 0
Core_0_STLB_rfo_MPKI 0
Core_0_STLB_rfo_miss_rate 0
Core_0_STLB_prefetch_access 0
Core_0_STLB_prefetch_hit 0
Core_0_STLB_prefetch_miss 0
Core_0_STLB_prefetch_MPKI 0
Core_0_STLB_prefetch_miss_rate 0
Core_0_STLB_writeback_access 0
Core_0_STLB_writeback_hit 0
Core_0_STLB_writeback_miss 0
Core_0_STLB_writeback_MPKI 0
Core_0_STLB_writeback_miss_rate 0
Core_0_STLB_prefetch_requested 0
Core_0_STLB_prefetch_issued 0
Core_0_STLB_prefetch_useful 0
Core_0_STLB_prefetch_useless 0
Core_0_STLB_prefetch_late 0
Core_0_STLB_prefetch_accuracy 0
Core_0_STLB_prefetch_coverage 0
Core_0_STLB_total_eviction 0

Core_0_L1I_total_access 718707
Core_0_L1I_total_hit 718700
Core_0_L1I_total_miss 7
Core_0_L1I_total_MPKI 0.00014
Core_0_L1I_total_miss_rate 9.73971e-06
Core_0_L1I_demand_access 718707
Core_0_L1I_demand_hit 718700
Core_0_L1I_demand_miss 7
Core_0_L1I_demand_MPKI 0.00014
Core_0_L1I_demand_miss_rate 9.73971e-06
Core_0_L1I_load_access 718707
Core_0_L1I_load_hit 718700
Core_0_L1I_load_miss 7
Core_0_L1I_load_MPKI 0.00014
Core_0_L1I_load_miss_rate 9.73971e-06
Core_0_L1I_rfo_access 0
Core_0_L1I_rfo_hit 0
Core_0_L1I_rfo_miss 0
Core_0_L1I_rfo_MPKI 0
Core_0_L1I_rfo_miss_rate 0
Core_0_L1I_prefetch_access 0
Core_0_L1I_prefetch_hit 0
Core_0_L1I_prefetch_miss 0
Core_0_L1I_prefetch_MPKI 0
Core_0_L1I_prefetch_miss_rate 0
Core_0_L1I_writeback_access 0
Core_0_L1I_writeback_hit 0
Core_0_L1I_writeback_miss 0
Core_0_L1I_writeback_MPKI 0
Core_0_L1I_writeback_miss_rate 0
Core_0_L1I_prefetch_requested 0
Core_0_L1I_prefetch_issued 0
Core_0_L1I_prefetch_useful 0
Core_0_L1I_prefetch_useless 0
Core_0_L1I_prefetch_late 0
Core_0_L1I_prefetch_accuracy 0
Core_0_L1I_prefetch_coverage 0
Core_0_L1I_total_eviction 0

Core_0_L1D_total_access 20714222
Core_0_L1D_total_hit 17270381
Core_0_L1D_total_miss 3443841
Core_0_L1D_total_MPKI 68.8768
Core_0_L1D_total_miss_rate 0.166255
Core_0_L1D_demand_access 13815722
Core_0_L1D_demand_hit 11628950
Core_0_L1D_demand_miss 2186772
Core_0_L1D_demand_MPKI 43.7354
Core_0_L1D_demand_miss_rate 0.158281
Core_0_L1D_load_access 13815722
Core_0_L1D_load_hit 11628950
Core_0_L1D_load_miss 2186772
Core_0_L1D_load_MPKI 43.7354
Core_0_L1D_load_miss_rate 0.158281
Core_0_L1D_rfo_access 0
Core_0_L1D_rfo_hit 0
Core_0_L1D_rfo_miss 0
Core_0_L1D_rfo_MPKI 0
Core_0_L1D_rfo_miss_rate 0
Core_0_L1D_prefetch_access 583394
Core_0_L1D_prefetch_hit 90076
Core_0_L1D_prefetch_miss 493318
Core_0_L1D_prefetch_MPKI 9.86636
Core_0_L1D_prefetch_miss_rate 0.8456
Core_0_L1D_writeback_access 6315106
Core_0_L1D_writeback_hit 5551355
Core_0_L1D_writeback_miss 763751
Core_0_L1D_writeback_MPKI 15.275
Core_0_L1D_writeback_miss_rate 0.12094
Core_0_L1D_prefetch_requested 587696
Core_0_L1D_prefetch_issued 583397
Core_0_L1D_prefetch_useful 177669
Core_0_L1D_prefetch_useless 291759
Core_0_L1D_prefetch_late 11578
Core_0_L1D_prefetch_accuracy 0.304542
Core_0_L1D_prefetch_coverage 0.0751421
Core_0_L1D_total_eviction 0

Core_0_L2C_total_access 4107605
Core_0_L2C_total_hit 2103339
Core_0_L2C_total_miss 2004266
Core_0_L2C_total_MPKI 40.0853
Core_0_L2C_total_miss_rate 0.48794
Core_0_L2C_demand_access 2302088
Core_0_L2C_demand_hit 706808
Core_0_L2C_demand_miss 1595280
Core_0_L2C_demand_MPKI 31.9056
Core_0_L2C_demand_miss_rate 0.692971
Core_0_L2C_load_access 1538459
Core_0_L2C_load_hit 658816
Core_0_L2C_load_miss 879643
Core_0_L2C_load_MPKI 17.5929
Core_0_L2C_load_miss_rate 0.571769
Core_0_L2C_rfo_access 763629
Core_0_L2C_rfo_hit 47992
Core_0_L2C_rfo_miss 715637
Core_0_L2C_rfo_MPKI 14.3127
Core_0_L2C_rfo_miss_rate 0.937153
Core_0_L2C_prefetch_access 638477
Core_0_L2C_prefetch_hit 229535
Core_0_L2C_prefetch_miss 408942
Core_0_L2C_prefetch_MPKI 8.17884
Core_0_L2C_prefetch_miss_rate 0.640496
Core_0_L2C_writeback_access 1167040
Core_0_L2C_writeback_hit 1166996
Core_0_L2C_writeback_miss 44
Core_0_L2C_writeback_MPKI 0.00088
Core_0_L2C_writeback_miss_rate 3.77022e-05
Core_0_L2C_prefetch_requested 169129
Core_0_L2C_prefetch_issued 169129
Core_0_L2C_prefetch_useful 37122
Core_0_L2C_prefetch_useless 22145
Core_0_L2C_prefetch_late 4213
Core_0_L2C_prefetch_accuracy 0.219489
Core_0_L2C_prefetch_coverage 0.0227407
Core_0_L2C_total_eviction 0

Core_0_LLC_total_access 3046110
Core_0_LLC_total_hit 555839
Core_0_LLC_total_miss 2490271
Core_0_LLC_total_MPKI 49.8054
Core_0_LLC_total_miss_rate 0.817525
Core_0_LLC_demand_access 1591067
Core_0_LLC_demand_hit 192526
Core_0_LLC_demand_miss 1398541
Core_0_LLC_demand_MPKI 27.9708
Core_0_LLC_demand_miss_rate 0.878996
Core_0_LLC_load_access 875430
Core_0_LLC_load_hit 57072
Core_0_LLC_load_miss 818358
Core_0_LLC_load_MPKI 16.3672
Core_0_LLC_load_miss_rate 0.934807
Core_0_LLC_rfo_access 715637
Core_0_LLC_rfo_hit 135454
Core_0_LLC_rfo_miss 580183
Core_0_LLC_rfo_MPKI 11.6037
Core_0_LLC_rfo_miss_rate 0.810722
Core_0_LLC_prefetch_access 341934
Core_0_LLC_prefetch_hit 22625
Core_0_LLC_prefetch_miss 319309
Core_0_LLC_prefetch_MPKI 6.38618
Core_0_LLC_prefetch_miss_rate 0.933832
Core_0_LLC_writeback_access 1113109
Core_0_LLC_writeback_hit 340688
Core_0_LLC_writeback_miss 772421
Core_0_LLC_writeback_MPKI 15.4484
Core_0_LLC_writeback_miss_rate 0.693931
Core_0_LLC_prefetch_requested 0
Core_0_LLC_prefetch_issued 0
Core_0_LLC_prefetch_useful 0
Core_0_LLC_prefetch_useless 0
Core_0_LLC_prefetch_late 0
Core_0_LLC_prefetch_accuracy 0
Core_0_LLC_prefetch_coverage 0
Core_0_LLC_total_eviction 0

[DRAM Statistics]
Channel_0_RQ_row_buffer_hit 61374
Channel_0_RQ_row_buffer_miss 1641671
Channel_0_WQ_row_buffer_hit 229884
Channel_0_WQ_row_buffer_miss 700980
Channel_0_WQ_full 4090
Channel_0_dbus_congested 11443086
DRAM_total_RQ_row_buffer_hit 61374
DRAM_total_RQ_row_buffer_miss 1641671
DRAM_total_WQ_row_buffer_hit 229884
DRAM_total_WQ_row_buffer_miss 700980
DRAM_total_WQ_full 4090
DRAM_total_dbus_congested 11443086
DRAM_avg_congested_cycle 16.3963

======STLB miss causes ========
Core_0_STLB_miss_cause_breakdown
Core_0_STLB_cause_Demand_Data_miss 1
Core_0_STLB_cause_Demand_Data_miss_rate 5.96148e-07
Core_0_STLB_cause_Demand_Instruction_miss 0
Core_0_STLB_cause_Demand_Instruction_miss_rate 0
Core_0_STLB_cause_L1D_Prefetch_miss 1590
Core_0_STLB_cause_L1D_Prefetch_miss_rate 0.000947875
Core_0_STLB_cause_L1I_Prefetch_miss 0
Core_0_STLB_cause_L1I_Prefetch_miss_rate 0
Core_0_STLB_cause_Other_miss 0
Core_0_STLB_cause_Other_miss_rate 0
Core_0_STLB_Demand_miss 1
Core_0_STLB_Demand_miss_rate 5.96148e-07
Core_0_STLB_L1D_Prefetch_miss 1590
Core_0_STLB_L1D_Prefetch_miss_rate 0.000947875
Core_0_STLB_Other_miss 0
Core_0_STLB_Other_miss_rate 0
