[VMEM] WARNING: physical memory size is smaller than virtual memory size.

*** ChampSim Multicore Out-of-Order Simulator ***
Warmup Instructions: 20000000
Simulation Instructions: 50000000
Number of CPUs: 1
Page size: 4096
STLB ideal mode: off
STLB ideal fill: off
Core 0: /data0/tzh/champsim_traces/SPEC06/483.xalancbmk-127B.champsimtrace.xz
 L1D Berti prefetcher
Off-chip DRAM Size: 16 GiB Channels: 1 Width: 64-bit Data Rate: 3205 MT/s
Warmup halting CPU 0 at instruction 20000005 cycle 5718016 for remainder of phase
Warmup finished CPU 0 instructions: 20000005 cycles: 5718016 cumulative IPC: 3.498 (Simulation time: 00 hr 01 min 02 sec)
Warmup complete CPU 0 instructions: 20000005 cycles: 5718016 cumulative IPC: 3.498 (Simulation time: 00 hr 01 min 02 sec)
Simulation finished CPU 0 instructions: 50000001 cycles: 150736534 cumulative IPC: 0.3317 (Simulation time: 00 hr 13 min 15 sec)
Simulation complete CPU 0 instructions: 50000001 cycles: 150736534 cumulative IPC: 0.3317 (Simulation time: 00 hr 13 min 15 sec)

ChampSim completed all CPUs

=== Simulation ===
CPU 0 runs /data0/tzh/champsim_traces/SPEC06/483.xalancbmk-127B.champsimtrace.xz

Region of Interest Statistics

CPU 0 cumulative IPC: 0.3317 instructions: 50000001 cycles: 150736534
CPU 0 Branch Prediction Accuracy: 96.57% MPKI: 9.838 Average ROB Occupancy at Mispredict: 68.54
Branch type MPKI
BRANCH_DIRECT_JUMP: 3.996
BRANCH_INDIRECT: 0.00504
BRANCH_CONDITIONAL: 5.754
BRANCH_DIRECT_CALL: 0.0006
BRANCH_INDIRECT_CALL: 0.02282
BRANCH_RETURN: 0.05944

cpu0->cpu0_STLB TOTAL        ACCESS:     219945 HIT:     214025 MISS:       5920 MSHR_MERGE:          0
cpu0->cpu0_STLB LOAD         ACCESS:     219945 HIT:     214025 MISS:       5920 MSHR_MERGE:          0
cpu0->cpu0_STLB RFO          ACCESS:          0 HIT:          0 MISS:          0 MSHR_MERGE:          0
cpu0->cpu0_STLB PREFETCH     ACCESS:          0 HIT:          0 MISS:          0 MSHR_MERGE:          0
cpu0->cpu0_STLB WRITE        ACCESS:          0 HIT:          0 MISS:          0 MSHR_MERGE:          0
cpu0->cpu0_STLB TRANSLATION  ACCESS:          0 HIT:          0 MISS:          0 MSHR_MERGE:          0
cpu0->cpu0_STLB PREFETCH REQUESTED:          0 ISSUED:          0 USEFUL:          0 USELESS:          0 LATE:          0
cpu0->cpu0_STLB AVERAGE MISS LATENCY: 525.5 cycles
cpu0->cpu0_L2C TOTAL        ACCESS:    2160184 HIT:     116738 MISS:    2043446 MSHR_MERGE:      15601
cpu0->cpu0_L2C LOAD         ACCESS:    1097438 HIT:      58928 MISS:    1038510 MSHR_MERGE:       1656
cpu0->cpu0_L2C RFO          ACCESS:       7893 HIT:       1841 MISS:       6052 MSHR_MERGE:          0
cpu0->cpu0_L2C PREFETCH     ACCESS:    1031547 HIT:      38940 MISS:     992607 MSHR_MERGE:      13945
cpu0->cpu0_L2C WRITE        ACCESS:      16518 HIT:      16290 MISS:        228 MSHR_MERGE:          0
cpu0->cpu0_L2C TRANSLATION  ACCESS:       6788 HIT:        739 MISS:       6049 MSHR_MERGE:          0
cpu0->cpu0_L2C PREFETCH REQUESTED:      96095 ISSUED:      96095 USEFUL:      36271 USELESS:      31438 LATE:       1656
cpu0->cpu0_L2C AVERAGE MISS LATENCY: 194.1 cycles
cpu0->cpu0_L1I TOTAL        ACCESS:     457832 HIT:     373592 MISS:      84240 MSHR_MERGE:      28967
cpu0->cpu0_L1I LOAD         ACCESS:     457832 HIT:     373592 MISS:      84240 MSHR_MERGE:      28967
cpu0->cpu0_L1I RFO          ACCESS:          0 HIT:          0 MISS:          0 MSHR_MERGE:          0
cpu0->cpu0_L1I PREFETCH     ACCESS:          0 HIT:          0 MISS:          0 MSHR_MERGE:          0
cpu0->cpu0_L1I WRITE        ACCESS:          0 HIT:          0 MISS:          0 MSHR_MERGE:          0
cpu0->cpu0_L1I TRANSLATION  ACCESS:          0 HIT:          0 MISS:          0 MSHR_MERGE:          0
cpu0->cpu0_L1I PREFETCH REQUESTED:          0 ISSUED:          0 USEFUL:          0 USELESS:          0 LATE:          0
cpu0->cpu0_L1I AVERAGE MISS LATENCY: 93.39 cycles
cpu0->cpu0_L1D TOTAL        ACCESS:   15165977 HIT:   11730534 MISS:    3435443 MSHR_MERGE:    1443144
cpu0->cpu0_L1D LOAD         ACCESS:   12426280 HIT:   10034921 MISS:    2391359 MSHR_MERGE:    1349194
cpu0->cpu0_L1D RFO          ACCESS:          0 HIT:          0 MISS:          0 MSHR_MERGE:          0
cpu0->cpu0_L1D PREFETCH     ACCESS:    1102217 HIT:     129427 MISS:     972790 MSHR_MERGE:      37338
cpu0->cpu0_L1D WRITE        ACCESS:    1623331 HIT:    1559257 MISS:      64074 MSHR_MERGE:      56180
cpu0->cpu0_L1D TRANSLATION  ACCESS:      14149 HIT:       6929 MISS:       7220 MSHR_MERGE:        432
cpu0->cpu0_L1D PREFETCH REQUESTED:    1103021 ISSUED:    1102209 USEFUL:     343490 USELESS:     591870 LATE:      62235
cpu0->cpu0_L1D AVERAGE MISS LATENCY: 191.9 cycles
cpu0->cpu0_ITLB TOTAL        ACCESS:     396718 HIT:     373467 MISS:      23251 MSHR_MERGE:      12928
cpu0->cpu0_ITLB LOAD         ACCESS:     396718 HIT:     373467 MISS:      23251 MSHR_MERGE:      12928
cpu0->cpu0_ITLB RFO          ACCESS:          0 HIT:          0 MISS:          0 MSHR_MERGE:          0
cpu0->cpu0_ITLB PREFETCH     ACCESS:          0 HIT:          0 MISS:          0 MSHR_MERGE:          0
cpu0->cpu0_ITLB WRITE        ACCESS:          0 HIT:          0 MISS:          0 MSHR_MERGE:          0
cpu0->cpu0_ITLB TRANSLATION  ACCESS:          0 HIT:          0 MISS:          0 MSHR_MERGE:          0
cpu0->cpu0_ITLB PREFETCH REQUESTED:          0 ISSUED:          0 USEFUL:          0 USELESS:          0 LATE:          0
cpu0->cpu0_ITLB AVERAGE MISS LATENCY: 5.531 cycles
cpu0->cpu0_DTLB TOTAL        ACCESS:   14433242 HIT:   14028625 MISS:     404617 MSHR_MERGE:     194995
cpu0->cpu0_DTLB LOAD         ACCESS:   14433242 HIT:   14028625 MISS:     404617 MSHR_MERGE:     194995
cpu0->cpu0_DTLB RFO          ACCESS:          0 HIT:          0 MISS:          0 MSHR_MERGE:          0
cpu0->cpu0_DTLB PREFETCH     ACCESS:          0 HIT:          0 MISS:          0 MSHR_MERGE:          0
cpu0->cpu0_DTLB WRITE        ACCESS:          0 HIT:          0 MISS:          0 MSHR_MERGE:          0
cpu0->cpu0_DTLB TRANSLATION  ACCESS:          0 HIT:          0 MISS:          0 MSHR_MERGE:          0
cpu0->cpu0_DTLB PREFETCH REQUESTED:          0 ISSUED:          0 USEFUL:          0 USELESS:          0 LATE:          0
cpu0->cpu0_DTLB AVERAGE MISS LATENCY: 19.85 cycles
cpu0->LLC TOTAL        ACCESS:    2038982 HIT:     211539 MISS:    1827443 MSHR_MERGE:       1417
cpu0->LLC LOAD         ACCESS:    1036854 HIT:     118672 MISS:     918182 MSHR_MERGE:        136
cpu0->LLC RFO          ACCESS:       6052 HIT:       1172 MISS:       4880 MSHR_MERGE:          0
cpu0->LLC PREFETCH     ACCESS:     978662 HIT:      85427 MISS:     893235 MSHR_MERGE:       1281
cpu0->LLC WRITE        ACCESS:      11365 HIT:       5973 MISS:       5392 MSHR_MERGE:          0
cpu0->LLC TRANSLATION  ACCESS:       6049 HIT:        295 MISS:       5754 MSHR_MERGE:          0
cpu0->LLC PREFETCH REQUESTED:          0 ISSUED:          0 USEFUL:          0 USELESS:          0 LATE:          0
cpu0->LLC AVERAGE MISS LATENCY: 200.4 cycles

DRAM Statistics

Channel 0 RQ ROW_BUFFER_HIT:     106091
  ROW_BUFFER_MISS:    1714539
  AVG DBUS CONGESTED CYCLE: 4.025
Channel 0 WQ ROW_BUFFER_HIT:       3344
  ROW_BUFFER_MISS:       3590
  FULL:          0
Channel 0 REFRESHES ISSUED:      12561

[ROI Statistics]
[System Configuration]
num_cpus 1
cpu_freq 4000
fetch_width 6
decode_width 6
dispatch_width 6
execute_width 6
lq_width 2
sq_width 2
retire_width 6
scheduler_size 128
branch_mispredict_penalty 15
rob_size 352
lq_size 128
sq_size 72
ifetch_buffer_size 64
decode_buffer_size 32
dispatch_buffer_size 32
register_file_size 288
decode_latency 1
dispatch_latency 1
schedule_latency 1
execute_latency 1
page_size 4096
block_size 64
core_0_itlb_set 16
core_0_itlb_way 4
core_0_itlb_rq_size 16
core_0_itlb_wq_size 16
core_0_itlb_pq_size 0
core_0_itlb_mshr_size 8
core_0_itlb_hit_latency 1
core_0_itlb_fill_latency 1
core_0_itlb_max_tag_check 2
core_0_itlb_max_fill 2
core_0_dtlb_set 16
core_0_dtlb_way 4
core_0_dtlb_rq_size 16
core_0_dtlb_wq_size 16
core_0_dtlb_pq_size 0
core_0_dtlb_mshr_size 8
core_0_dtlb_hit_latency 1
core_0_dtlb_fill_latency 1
core_0_dtlb_max_tag_check 2
core_0_dtlb_max_fill 2
core_0_stlb_set 262144
core_0_stlb_way 16
core_0_stlb_rq_size 32
core_0_stlb_wq_size 32
core_0_stlb_pq_size 0
core_0_stlb_mshr_size 16
core_0_stlb_hit_latency 4
core_0_stlb_fill_latency 4
core_0_stlb_max_tag_check 1
core_0_stlb_max_fill 1
core_0_l1i_set 64
core_0_l1i_way 8
core_0_l1i_rq_size 64
core_0_l1i_wq_size 64
core_0_l1i_pq_size 32
core_0_l1i_mshr_size 8
core_0_l1i_hit_latency 2
core_0_l1i_fill_latency 2
core_0_l1i_max_tag_check 2
core_0_l1i_max_fill 2
core_0_l1d_set 64
core_0_l1d_way 12
core_0_l1d_rq_size 64
core_0_l1d_wq_size 64
core_0_l1d_pq_size 8
core_0_l1d_mshr_size 16
core_0_l1d_hit_latency 2
core_0_l1d_fill_latency 3
core_0_l1d_max_tag_check 2
core_0_l1d_max_fill 2
core_0_l2c_set 1024
core_0_l2c_way 8
core_0_l2c_rq_size 32
core_0_l2c_wq_size 32
core_0_l2c_pq_size 16
core_0_l2c_mshr_size 32
core_0_l2c_hit_latency 5
core_0_l2c_fill_latency 5
core_0_l2c_max_tag_check 1
core_0_l2c_max_fill 1
llc_set 2048
llc_way 16
llc_rq_size 32
llc_wq_size 32
llc_pq_size 32
llc_mshr_size 64
llc_hit_latency 10
llc_fill_latency 10
llc_max_tag_check 1
llc_max_fill 1
dram_channels 1
dram_ranks 1
dram_bankgroups 8
dram_banks 4
dram_rows 65536
dram_columns 1024
dram_channel_width 8
dram_rq_size 64
dram_wq_size 64
dram_size 17179869184
core_0_itlb_prefetcher no
core_0_dtlb_prefetcher no
core_0_stlb_prefetcher no
core_0_l1i_prefetcher next_line
core_0_l1d_prefetcher berti
core_0_l2c_prefetcher ip_stride
llc_prefetcher no
llc_replacement drrip

Core_0_instructions 50000001
Core_0_cycles 150736534
Core_0_IPC 0.331705
Core_0_branch_prediction_accuracy 96.5705
Core_0_branch_MPKI 9.83816
Core_0_average_ROB_occupancy_at_mispredict 68.5421

Core_0_ITLB_total_access 396718
Core_0_ITLB_total_hit 373467
Core_0_ITLB_total_miss 23251
Core_0_ITLB_total_MPKI 0.46502
Core_0_ITLB_total_miss_rate 0.0586084
Core_0_ITLB_demand_access 396718
Core_0_ITLB_demand_hit 373467
Core_0_ITLB_demand_miss 23251
Core_0_ITLB_demand_MPKI 0.46502
Core_0_ITLB_demand_miss_rate 0.0586084
Core_0_ITLB_load_access 396718
Core_0_ITLB_load_hit 373467
Core_0_ITLB_load_miss 23251
Core_0_ITLB_load_MPKI 0.46502
Core_0_ITLB_load_miss_rate 0.0586084
Core_0_ITLB_rfo_access 0
Core_0_ITLB_rfo_hit 0
Core_0_ITLB_rfo_miss 0
Core_0_ITLB_rfo_MPKI 0
Core_0_ITLB_rfo_miss_rate 0
Core_0_ITLB_prefetch_access 0
Core_0_ITLB_prefetch_hit 0
Core_0_ITLB_prefetch_miss 0
Core_0_ITLB_prefetch_MPKI 0
Core_0_ITLB_prefetch_miss_rate 0
Core_0_ITLB_writeback_access 0
Core_0_ITLB_writeback_hit 0
Core_0_ITLB_writeback_miss 0
Core_0_ITLB_writeback_MPKI 0
Core_0_ITLB_writeback_miss_rate 0
Core_0_ITLB_prefetch_requested 0
Core_0_ITLB_prefetch_issued 0
Core_0_ITLB_prefetch_useful 0
Core_0_ITLB_prefetch_useless 0
Core_0_ITLB_prefetch_late 0
Core_0_ITLB_prefetch_accuracy 0
Core_0_ITLB_prefetch_coverage 0
Core_0_ITLB_total_eviction 0

Core_0_DTLB_total_access 14433242
Core_0_DTLB_total_hit 14028625
Core_0_DTLB_total_miss 404617
Core_0_DTLB_total_MPKI 8.09234
Core_0_DTLB_total_miss_rate 0.0280337
Core_0_DTLB_demand_access 14433242
Core_0_DTLB_demand_hit 14028625
Core_0_DTLB_demand_miss 404617
Core_0_DTLB_demand_MPKI 8.09234
Core_0_DTLB_demand_miss_rate 0.0280337
Core_0_DTLB_load_access 14433242
Core_0_DTLB_load_hit 14028625
Core_0_DTLB_load_miss 404617
Core_0_DTLB_load_MPKI 8.09234
Core_0_DTLB_load_miss_rate 0.0280337
Core_0_DTLB_rfo_access 0
Core_0_DTLB_rfo_hit 0
Core_0_DTLB_rfo_miss 0
Core_0_DTLB_rfo_MPKI 0
Core_0_DTLB_rfo_miss_rate 0
Core_0_DTLB_prefetch_access 0
Core_0_DTLB_prefetch_hit 0
Core_0_DTLB_prefetch_miss 0
Core_0_DTLB_prefetch_MPKI 0
Core_0_DTLB_prefetch_miss_rate 0
Core_0_DTLB_writeback_access 0
Core_0_DTLB_writeback_hit 0
Core_0_DTLB_writeback_miss 0
Core_0_DTLB_writeback_MPKI 0
Core_0_DTLB_writeback_miss_rate 0
Core_0_DTLB_prefetch_requested 0
Core_0_DTLB_prefetch_issued 0
Core_0_DTLB_prefetch_useful 0
Core_0_DTLB_prefetch_useless 0
Core_0_DTLB_prefetch_late 0
Core_0_DTLB_prefetch_accuracy 0
Core_0_DTLB_prefetch_coverage 0
Core_0_DTLB_total_eviction 0

Core_0_STLB_total_access 219945
Core_0_STLB_total_hit 214025
Core_0_STLB_total_miss 5920
Core_0_STLB_total_MPKI 0.1184
Core_0_STLB_total_miss_rate 0.0269158
Core_0_STLB_demand_access 219945
Core_0_STLB_demand_hit 214025
Core_0_STLB_demand_miss 5920
Core_0_STLB_demand_MPKI 0.1184
Core_0_STLB_demand_miss_rate 0.0269158
Core_0_STLB_load_access 219945
Core_0_STLB_load_hit 214025
Core_0_STLB_load_miss 5920
Core_0_STLB_load_MPKI 0.1184
Core_0_STLB_load_miss_rate 0.0269158
Core_0_STLB_rfo_access 0
Core_0_STLB_rfo_hit 0
Core_0_STLB_rfo_miss 0
Core_0_STLB_rfo_MPKI 0
Core_0_STLB_rfo_miss_rate 0
Core_0_STLB_prefetch_access 0
Core_0_STLB_prefetch_hit 0
Core_0_STLB_prefetch_miss 0
Core_0_STLB_prefetch_MPKI 0
Core_0_STLB_prefetch_miss_rate 0
Core_0_STLB_writeback_access 0
Core_0_STLB_writeback_hit 0
Core_0_STLB_writeback_miss 0
Core_0_STLB_writeback_MPKI 0
Core_0_STLB_writeback_miss_rate 0
Core_0_STLB_prefetch_requested 0
Core_0_STLB_prefetch_issued 0
Core_0_STLB_prefetch_useful 0
Core_0_STLB_prefetch_useless 0
Core_0_STLB_prefetch_late 0
Core_0_STLB_prefetch_accuracy 0
Core_0_STLB_prefetch_coverage 0
Core_0_STLB_total_eviction 0

Core_0_L1I_total_access 457832
Core_0_L1I_total_hit 373592
Core_0_L1I_total_miss 84240
Core_0_L1I_total_MPKI 1.6848
Core_0_L1I_total_miss_rate 0.183998
Core_0_L1I_demand_access 457832
Core_0_L1I_demand_hit 373592
Core_0_L1I_demand_miss 84240
Core_0_L1I_demand_MPKI 1.6848
Core_0_L1I_demand_miss_rate 0.183998
Core_0_L1I_load_access 457832
Core_0_L1I_load_hit 373592
Core_0_L1I_load_miss 84240
Core_0_L1I_load_MPKI 1.6848
Core_0_L1I_load_miss_rate 0.183998
Core_0_L1I_rfo_access 0
Core_0_L1I_rfo_hit 0
Core_0_L1I_rfo_miss 0
Core_0_L1I_rfo_MPKI 0
Core_0_L1I_rfo_miss_rate 0
Core_0_L1I_prefetch_access 0
Core_0_L1I_prefetch_hit 0
Core_0_L1I_prefetch_miss 0
Core_0_L1I_prefetch_MPKI 0
Core_0_L1I_prefetch_miss_rate 0
Core_0_L1I_writeback_access 0
Core_0_L1I_writeback_hit 0
Core_0_L1I_writeback_miss 0
Core_0_L1I_writeback_MPKI 0
Core_0_L1I_writeback_miss_rate 0
Core_0_L1I_prefetch_requested 0
Core_0_L1I_prefetch_issued 0
Core_0_L1I_prefetch_useful 0
Core_0_L1I_prefetch_useless 0
Core_0_L1I_prefetch_late 0
Core_0_L1I_prefetch_accuracy 0
Core_0_L1I_prefetch_coverage 0
Core_0_L1I_total_eviction 0

Core_0_L1D_total_access 15151828
Core_0_L1D_total_hit 11723605
Core_0_L1D_total_miss 3428223
Core_0_L1D_total_MPKI 68.5645
Core_0_L1D_total_miss_rate 0.226258
Core_0_L1D_demand_access 12426280
Core_0_L1D_demand_hit 10034921
Core_0_L1D_demand_miss 2391359
Core_0_L1D_demand_MPKI 47.8272
Core_0_L1D_demand_miss_rate 0.192444
Core_0_L1D_load_access 12426280
Core_0_L1D_load_hit 10034921
Core_0_L1D_load_miss 2391359
Core_0_L1D_load_MPKI 47.8272
Core_0_L1D_load_miss_rate 0.192444
Core_0_L1D_rfo_access 0
Core_0_L1D_rfo_hit 0
Core_0_L1D_rfo_miss 0
Core_0_L1D_rfo_MPKI 0
Core_0_L1D_rfo_miss_rate 0
Core_0_L1D_prefetch_access 1102217
Core_0_L1D_prefetch_hit 129427
Core_0_L1D_prefetch_miss 972790
Core_0_L1D_prefetch_MPKI 19.4558
Core_0_L1D_prefetch_miss_rate 0.882576
Core_0_L1D_writeback_access 1623331
Core_0_L1D_writeback_hit 1559257
Core_0_L1D_writeback_miss 64074
Core_0_L1D_writeback_MPKI 1.28148
Core_0_L1D_writeback_miss_rate 0.0394707
Core_0_L1D_prefetch_requested 1103021
Core_0_L1D_prefetch_issued 1102209
Core_0_L1D_prefetch_useful 343490
Core_0_L1D_prefetch_useless 591870
Core_0_L1D_prefetch_late 62235
Core_0_L1D_prefetch_accuracy 0.311638
Core_0_L1D_prefetch_coverage 0.125597
Core_0_L1D_total_eviction 0

Core_0_L2C_total_access 2153396
Core_0_L2C_total_hit 115999
Core_0_L2C_total_miss 2037397
Core_0_L2C_total_MPKI 40.7479
Core_0_L2C_total_miss_rate 0.946132
Core_0_L2C_demand_access 1105331
Core_0_L2C_demand_hit 60769
Core_0_L2C_demand_miss 1044562
Core_0_L2C_demand_MPKI 20.8912
Core_0_L2C_demand_miss_rate 0.945022
Core_0_L2C_load_access 1097438
Core_0_L2C_load_hit 58928
Core_0_L2C_load_miss 1038510
Core_0_L2C_load_MPKI 20.7702
Core_0_L2C_load_miss_rate 0.946304
Core_0_L2C_rfo_access 7893
Core_0_L2C_rfo_hit 1841
Core_0_L2C_rfo_miss 6052
Core_0_L2C_rfo_MPKI 0.12104
Core_0_L2C_rfo_miss_rate 0.766755
Core_0_L2C_prefetch_access 1031547
Core_0_L2C_prefetch_hit 38940
Core_0_L2C_prefetch_miss 992607
Core_0_L2C_prefetch_MPKI 19.8521
Core_0_L2C_prefetch_miss_rate 0.962251
Core_0_L2C_writeback_access 16518
Core_0_L2C_writeback_hit 16290
Core_0_L2C_writeback_miss 228
Core_0_L2C_writeback_MPKI 0.00456
Core_0_L2C_writeback_miss_rate 0.0138031
Core_0_L2C_prefetch_requested 96095
Core_0_L2C_prefetch_issued 96095
Core_0_L2C_prefetch_useful 36271
Core_0_L2C_prefetch_useless 31438
Core_0_L2C_prefetch_late 1656
Core_0_L2C_prefetch_accuracy 0.377449
Core_0_L2C_prefetch_coverage 0.0335584
Core_0_L2C_total_eviction 0

Core_0_LLC_total_access 2032933
Core_0_LLC_total_hit 211244
Core_0_LLC_total_miss 1821689
Core_0_LLC_total_MPKI 36.4338
Core_0_LLC_total_miss_rate 0.896089
Core_0_LLC_demand_access 1042906
Core_0_LLC_demand_hit 119844
Core_0_LLC_demand_miss 923062
Core_0_LLC_demand_MPKI 18.4612
Core_0_LLC_demand_miss_rate 0.885086
Core_0_LLC_load_access 1036854
Core_0_LLC_load_hit 118672
Core_0_LLC_load_miss 918182
Core_0_LLC_load_MPKI 18.3636
Core_0_LLC_load_miss_rate 0.885546
Core_0_LLC_rfo_access 6052
Core_0_LLC_rfo_hit 1172
Core_0_LLC_rfo_miss 4880
Core_0_LLC_rfo_MPKI 0.0976
Core_0_LLC_rfo_miss_rate 0.806345
Core_0_LLC_prefetch_access 978662
Core_0_LLC_prefetch_hit 85427
Core_0_LLC_prefetch_miss 893235
Core_0_LLC_prefetch_MPKI 17.8647
Core_0_LLC_prefetch_miss_rate 0.91271
Core_0_LLC_writeback_access 11365
Core_0_LLC_writeback_hit 5973
Core_0_LLC_writeback_miss 5392
Core_0_LLC_writeback_MPKI 0.10784
Core_0_LLC_writeback_miss_rate 0.474439
Core_0_LLC_prefetch_requested 0
Core_0_LLC_prefetch_issued 0
Core_0_LLC_prefetch_useful 0
Core_0_LLC_prefetch_useless 0
Core_0_LLC_prefetch_late 0
Core_0_LLC_prefetch_accuracy 0
Core_0_LLC_prefetch_coverage 0
Core_0_LLC_total_eviction 0

[DRAM Statistics]
Channel_0_RQ_row_buffer_hit 106091
Channel_0_RQ_row_buffer_miss 1714539
Channel_0_WQ_row_buffer_hit 3344
Channel_0_WQ_row_buffer_miss 3590
Channel_0_WQ_full 0
Channel_0_dbus_congested 2868990
DRAM_total_RQ_row_buffer_hit 106091
DRAM_total_RQ_row_buffer_miss 1714539
DRAM_total_WQ_row_buffer_hit 3344
DRAM_total_WQ_row_buffer_miss 3590
DRAM_total_WQ_full 0
DRAM_total_dbus_congested 2868990
DRAM_avg_congested_cycle 4.02485

======STLB miss causes ========
Core_0_STLB_miss_cause_breakdown
Core_0_STLB_cause_Demand_Data_miss 4610
Core_0_STLB_cause_Demand_Data_miss_rate 0.0209598
Core_0_STLB_cause_Demand_Instruction_miss 14
Core_0_STLB_cause_Demand_Instruction_miss_rate 6.36523e-05
Core_0_STLB_cause_L1D_Prefetch_miss 1296
Core_0_STLB_cause_L1D_Prefetch_miss_rate 0.00589238
Core_0_STLB_cause_L1I_Prefetch_miss 0
Core_0_STLB_cause_L1I_Prefetch_miss_rate 0
Core_0_STLB_cause_Other_miss 0
Core_0_STLB_cause_Other_miss_rate 0
Core_0_STLB_Demand_miss 4624
Core_0_STLB_Demand_miss_rate 0.0210234
Core_0_STLB_L1D_Prefetch_miss 1296
Core_0_STLB_L1D_Prefetch_miss_rate 0.00589238
Core_0_STLB_Other_miss 0
Core_0_STLB_Other_miss_rate 0
