[VMEM] WARNING: physical memory size is smaller than virtual memory size.

*** ChampSim Multicore Out-of-Order Simulator ***
Warmup Instructions: 20000000
Simulation Instructions: 50000000
Number of CPUs: 1
Page size: 4096
STLB ideal mode: off
STLB ideal fill: off
Core 0: /data0/tzh/champsim_traces/SPEC17/623.xalancbmk_s-592B.champsimtrace.xz
 L1D Berti prefetcher
Off-chip DRAM Size: 16 GiB Channels: 1 Width: 64-bit Data Rate: 3205 MT/s
Warmup halting CPU 0 at instruction 20000003 cycle 4788422 for remainder of phase
Warmup finished CPU 0 instructions: 20000003 cycles: 4788422 cumulative IPC: 4.177 (Simulation time: 00 hr 01 min 03 sec)
Warmup complete CPU 0 instructions: 20000003 cycles: 4788422 cumulative IPC: 4.177 (Simulation time: 00 hr 01 min 03 sec)
Simulation finished CPU 0 instructions: 50000000 cycles: 47507961 cumulative IPC: 1.052 (Simulation time: 00 hr 06 min 45 sec)
Simulation complete CPU 0 instructions: 50000000 cycles: 47507961 cumulative IPC: 1.052 (Simulation time: 00 hr 06 min 45 sec)

ChampSim completed all CPUs

=== Simulation ===
CPU 0 runs /data0/tzh/champsim_traces/SPEC17/623.xalancbmk_s-592B.champsimtrace.xz

Region of Interest Statistics

CPU 0 cumulative IPC: 1.052 instructions: 50000000 cycles: 47507961
CPU 0 Branch Prediction Accuracy: 97.13% MPKI: 7.59 Average ROB Occupancy at Mispredict: 43.58
Branch type MPKI
BRANCH_DIRECT_JUMP: 0.1648
BRANCH_INDIRECT: 0.5087
BRANCH_CONDITIONAL: 4.263
BRANCH_DIRECT_CALL: 0.0076
BRANCH_INDIRECT_CALL: 0.5543
BRANCH_RETURN: 2.092

cpu0->cpu0_STLB TOTAL        ACCESS:    1259909 HIT:    1258388 MISS:       1521 MSHR_MERGE:          0
cpu0->cpu0_STLB LOAD         ACCESS:    1259909 HIT:    1258388 MISS:       1521 MSHR_MERGE:          0
cpu0->cpu0_STLB RFO          ACCESS:          0 HIT:          0 MISS:          0 MSHR_MERGE:          0
cpu0->cpu0_STLB PREFETCH     ACCESS:          0 HIT:          0 MISS:          0 MSHR_MERGE:          0
cpu0->cpu0_STLB WRITE        ACCESS:          0 HIT:          0 MISS:          0 MSHR_MERGE:          0
cpu0->cpu0_STLB TRANSLATION  ACCESS:          0 HIT:          0 MISS:          0 MSHR_MERGE:          0
cpu0->cpu0_STLB PREFETCH REQUESTED:          0 ISSUED:          0 USEFUL:          0 USELESS:          0 LATE:          0
cpu0->cpu0_STLB AVERAGE MISS LATENCY: 275.7 cycles
cpu0->cpu0_L2C TOTAL        ACCESS:    3646106 HIT:    3198467 MISS:     447639 MSHR_MERGE:       8185
cpu0->cpu0_L2C LOAD         ACCESS:    2146038 HIT:    1957326 MISS:     188712 MSHR_MERGE:        256
cpu0->cpu0_L2C RFO          ACCESS:     125755 HIT:      17920 MISS:     107835 MSHR_MERGE:        100
cpu0->cpu0_L2C PREFETCH     ACCESS:    1193293 HIT:    1043115 MISS:     150178 MSHR_MERGE:       7829
cpu0->cpu0_L2C WRITE        ACCESS:     179801 HIT:     179793 MISS:          8 MSHR_MERGE:          0
cpu0->cpu0_L2C TRANSLATION  ACCESS:       1219 HIT:        313 MISS:        906 MSHR_MERGE:          0
cpu0->cpu0_L2C PREFETCH REQUESTED:     361858 ISSUED:     361596 USEFUL:       7590 USELESS:       6201 LATE:        356
cpu0->cpu0_L2C AVERAGE MISS LATENCY: 86.34 cycles
cpu0->cpu0_L1I TOTAL        ACCESS:    9095705 HIT:    8833892 MISS:     261813 MSHR_MERGE:      78978
cpu0->cpu0_L1I LOAD         ACCESS:    9095705 HIT:    8833892 MISS:     261813 MSHR_MERGE:      78978
cpu0->cpu0_L1I RFO          ACCESS:          0 HIT:          0 MISS:          0 MSHR_MERGE:          0
cpu0->cpu0_L1I PREFETCH     ACCESS:          0 HIT:          0 MISS:          0 MSHR_MERGE:          0
cpu0->cpu0_L1I WRITE        ACCESS:          0 HIT:          0 MISS:          0 MSHR_MERGE:          0
cpu0->cpu0_L1I TRANSLATION  ACCESS:          0 HIT:          0 MISS:          0 MSHR_MERGE:          0
cpu0->cpu0_L1I PREFETCH REQUESTED:          0 ISSUED:          0 USEFUL:          0 USELESS:          0 LATE:          0
cpu0->cpu0_L1I AVERAGE MISS LATENCY: 8.784 cycles
cpu0->cpu0_L1D TOTAL        ACCESS:   15219552 HIT:   11443077 MISS:    3776475 MSHR_MERGE:     854595
cpu0->cpu0_L1D LOAD         ACCESS:    8988910 HIT:    6590666 MISS:    2398244 MSHR_MERGE:     435040
cpu0->cpu0_L1D RFO          ACCESS:          0 HIT:          0 MISS:          0 MSHR_MERGE:          0
cpu0->cpu0_L1D PREFETCH     ACCESS:    1339886 HIT:     446423 MISS:     893463 MSHR_MERGE:      61762
cpu0->cpu0_L1D WRITE        ACCESS:    4887662 HIT:    4404118 MISS:     483544 MSHR_MERGE:     357788
cpu0->cpu0_L1D TRANSLATION  ACCESS:       3094 HIT:       1870 MISS:       1224 MSHR_MERGE:          5
cpu0->cpu0_L1D PREFETCH REQUESTED:    1371200 ISSUED:    1339879 USEFUL:     276779 USELESS:     554998 LATE:      19373
cpu0->cpu0_L1D AVERAGE MISS LATENCY: 20.35 cycles
cpu0->cpu0_ITLB TOTAL        ACCESS:    8357915 HIT:    8295510 MISS:      62405 MSHR_MERGE:      35530
cpu0->cpu0_ITLB LOAD         ACCESS:    8357915 HIT:    8295510 MISS:      62405 MSHR_MERGE:      35530
cpu0->cpu0_ITLB RFO          ACCESS:          0 HIT:          0 MISS:          0 MSHR_MERGE:          0
cpu0->cpu0_ITLB PREFETCH     ACCESS:          0 HIT:          0 MISS:          0 MSHR_MERGE:          0
cpu0->cpu0_ITLB WRITE        ACCESS:          0 HIT:          0 MISS:          0 MSHR_MERGE:          0
cpu0->cpu0_ITLB TRANSLATION  ACCESS:          0 HIT:          0 MISS:          0 MSHR_MERGE:          0
cpu0->cpu0_ITLB PREFETCH REQUESTED:          0 ISSUED:          0 USEFUL:          0 USELESS:          0 LATE:          0
cpu0->cpu0_ITLB AVERAGE MISS LATENCY: 6.181 cycles
cpu0->cpu0_DTLB TOTAL        ACCESS:   14487296 HIT:   12649261 MISS:    1838035 MSHR_MERGE:     605002
cpu0->cpu0_DTLB LOAD         ACCESS:   14487296 HIT:   12649261 MISS:    1838035 MSHR_MERGE:     605002
cpu0->cpu0_DTLB RFO          ACCESS:          0 HIT:          0 MISS:          0 MSHR_MERGE:          0
cpu0->cpu0_DTLB PREFETCH     ACCESS:          0 HIT:          0 MISS:          0 MSHR_MERGE:          0
cpu0->cpu0_DTLB WRITE        ACCESS:          0 HIT:          0 MISS:          0 MSHR_MERGE:          0
cpu0->cpu0_DTLB TRANSLATION  ACCESS:          0 HIT:          0 MISS:          0 MSHR_MERGE:          0
cpu0->cpu0_DTLB PREFETCH REQUESTED:          0 ISSUED:          0 USEFUL:          0 USELESS:          0 LATE:          0
cpu0->cpu0_DTLB AVERAGE MISS LATENCY: 5.316 cycles
cpu0->LLC TOTAL        ACCESS:     564283 HIT:     422875 MISS:     141408 MSHR_MERGE:        100
cpu0->LLC LOAD         ACCESS:     188456 HIT:     179658 MISS:       8798 MSHR_MERGE:         22
cpu0->LLC RFO          ACCESS:     107735 HIT:       6071 MISS:     101664 MSHR_MERGE:          0
cpu0->LLC PREFETCH     ACCESS:     142349 HIT:     122392 MISS:      19957 MSHR_MERGE:         78
cpu0->LLC WRITE        ACCESS:     124837 HIT:     114238 MISS:      10599 MSHR_MERGE:          0
cpu0->LLC TRANSLATION  ACCESS:        906 HIT:        516 MISS:        390 MSHR_MERGE:          0
cpu0->LLC PREFETCH REQUESTED:          0 ISSUED:          0 USEFUL:          0 USELESS:          0 LATE:          0
cpu0->LLC AVERAGE MISS LATENCY: 174.5 cycles

DRAM Statistics

Channel 0 RQ ROW_BUFFER_HIT:      11438
  ROW_BUFFER_MISS:     119271
  AVG DBUS CONGESTED CYCLE: 5.995
Channel 0 WQ ROW_BUFFER_HIT:       5616
  ROW_BUFFER_MISS:      88211
  FULL:          0
Channel 0 REFRESHES ISSUED:       3959

[ROI Statistics]
[System Configuration]
num_cpus 1
cpu_freq 4000
fetch_width 6
decode_width 6
dispatch_width 6
execute_width 6
lq_width 2
sq_width 2
retire_width 6
scheduler_size 128
branch_mispredict_penalty 15
rob_size 352
lq_size 128
sq_size 72
ifetch_buffer_size 64
decode_buffer_size 32
dispatch_buffer_size 32
register_file_size 288
decode_latency 1
dispatch_latency 1
schedule_latency 1
execute_latency 1
page_size 4096
block_size 64
core_0_itlb_set 16
core_0_itlb_way 4
core_0_itlb_rq_size 16
core_0_itlb_wq_size 16
core_0_itlb_pq_size 0
core_0_itlb_mshr_size 8
core_0_itlb_hit_latency 1
core_0_itlb_fill_latency 1
core_0_itlb_max_tag_check 2
core_0_itlb_max_fill 2
core_0_dtlb_set 16
core_0_dtlb_way 4
core_0_dtlb_rq_size 16
core_0_dtlb_wq_size 16
core_0_dtlb_pq_size 0
core_0_dtlb_mshr_size 8
core_0_dtlb_hit_latency 1
core_0_dtlb_fill_latency 1
core_0_dtlb_max_tag_check 2
core_0_dtlb_max_fill 2
core_0_stlb_set 262144
core_0_stlb_way 16
core_0_stlb_rq_size 32
core_0_stlb_wq_size 32
core_0_stlb_pq_size 0
core_0_stlb_mshr_size 16
core_0_stlb_hit_latency 4
core_0_stlb_fill_latency 4
core_0_stlb_max_tag_check 1
core_0_stlb_max_fill 1
core_0_l1i_set 64
core_0_l1i_way 8
core_0_l1i_rq_size 64
core_0_l1i_wq_size 64
core_0_l1i_pq_size 32
core_0_l1i_mshr_size 8
core_0_l1i_hit_latency 2
core_0_l1i_fill_latency 2
core_0_l1i_max_tag_check 2
core_0_l1i_max_fill 2
core_0_l1d_set 64
core_0_l1d_way 12
core_0_l1d_rq_size 64
core_0_l1d_wq_size 64
core_0_l1d_pq_size 8
core_0_l1d_mshr_size 16
core_0_l1d_hit_latency 2
core_0_l1d_fill_latency 3
core_0_l1d_max_tag_check 2
core_0_l1d_max_fill 2
core_0_l2c_set 1024
core_0_l2c_way 8
core_0_l2c_rq_size 32
core_0_l2c_wq_size 32
core_0_l2c_pq_size 16
core_0_l2c_mshr_size 32
core_0_l2c_hit_latency 5
core_0_l2c_fill_latency 5
core_0_l2c_max_tag_check 1
core_0_l2c_max_fill 1
llc_set 2048
llc_way 16
llc_rq_size 32
llc_wq_size 32
llc_pq_size 32
llc_mshr_size 64
llc_hit_latency 10
llc_fill_latency 10
llc_max_tag_check 1
llc_max_fill 1
dram_channels 1
dram_ranks 1
dram_bankgroups 8
dram_banks 4
dram_rows 65536
dram_columns 1024
dram_channel_width 8
dram_rq_size 64
dram_wq_size 64
dram_size 17179869184
core_0_itlb_prefetcher no
core_0_dtlb_prefetcher no
core_0_stlb_prefetcher no
core_0_l1i_prefetcher next_line
core_0_l1d_prefetcher berti
core_0_l2c_prefetcher ip_stride
llc_prefetcher no
llc_replacement drrip

Core_0_instructions 50000000
Core_0_cycles 47507961
Core_0_IPC 1.05246
Core_0_branch_prediction_accuracy 97.1281
Core_0_branch_MPKI 7.59034
Core_0_average_ROB_occupancy_at_mispredict 43.5764

Core_0_ITLB_total_access 8357915
Core_0_ITLB_total_hit 8295510
Core_0_ITLB_total_miss 62405
Core_0_ITLB_total_MPKI 1.2481
Core_0_ITLB_total_miss_rate 0.00746658
Core_0_ITLB_demand_access 8357915
Core_0_ITLB_demand_hit 8295510
Core_0_ITLB_demand_miss 62405
Core_0_ITLB_demand_MPKI 1.2481
Core_0_ITLB_demand_miss_rate 0.00746658
Core_0_ITLB_load_access 8357915
Core_0_ITLB_load_hit 8295510
Core_0_ITLB_load_miss 62405
Core_0_ITLB_load_MPKI 1.2481
Core_0_ITLB_load_miss_rate 0.00746658
Core_0_ITLB_rfo_access 0
Core_0_ITLB_rfo_hit 0
Core_0_ITLB_rfo_miss 0
Core_0_ITLB_rfo_MPKI 0
Core_0_ITLB_rfo_miss_rate 0
Core_0_ITLB_prefetch_access 0
Core_0_ITLB_prefetch_hit 0
Core_0_ITLB_prefetch_miss 0
Core_0_ITLB_prefetch_MPKI 0
Core_0_ITLB_prefetch_miss_rate 0
Core_0_ITLB_writeback_access 0
Core_0_ITLB_writeback_hit 0
Core_0_ITLB_writeback_miss 0
Core_0_ITLB_writeback_MPKI 0
Core_0_ITLB_writeback_miss_rate 0
Core_0_ITLB_prefetch_requested 0
Core_0_ITLB_prefetch_issued 0
Core_0_ITLB_prefetch_useful 0
Core_0_ITLB_prefetch_useless 0
Core_0_ITLB_prefetch_late 0
Core_0_ITLB_prefetch_accuracy 0
Core_0_ITLB_prefetch_coverage 0
Core_0_ITLB_total_eviction 0

Core_0_DTLB_total_access 14487296
Core_0_DTLB_total_hit 12649261
Core_0_DTLB_total_miss 1838035
Core_0_DTLB_total_MPKI 36.7607
Core_0_DTLB_total_miss_rate 0.126872
Core_0_DTLB_demand_access 14487296
Core_0_DTLB_demand_hit 12649261
Core_0_DTLB_demand_miss 1838035
Core_0_DTLB_demand_MPKI 36.7607
Core_0_DTLB_demand_miss_rate 0.126872
Core_0_DTLB_load_access 14487296
Core_0_DTLB_load_hit 12649261
Core_0_DTLB_load_miss 1838035
Core_0_DTLB_load_MPKI 36.7607
Core_0_DTLB_load_miss_rate 0.126872
Core_0_DTLB_rfo_access 0
Core_0_DTLB_rfo_hit 0
Core_0_DTLB_rfo_miss 0
Core_0_DTLB_rfo_MPKI 0
Core_0_DTLB_rfo_miss_rate 0
Core_0_DTLB_prefetch_access 0
Core_0_DTLB_prefetch_hit 0
Core_0_DTLB_prefetch_miss 0
Core_0_DTLB_prefetch_MPKI 0
Core_0_DTLB_prefetch_miss_rate 0
Core_0_DTLB_writeback_access 0
Core_0_DTLB_writeback_hit 0
Core_0_DTLB_writeback_miss 0
Core_0_DTLB_writeback_MPKI 0
Core_0_DTLB_writeback_miss_rate 0
Core_0_DTLB_prefetch_requested 0
Core_0_DTLB_prefetch_issued 0
Core_0_DTLB_prefetch_useful 0
Core_0_DTLB_prefetch_useless 0
Core_0_DTLB_prefetch_late 0
Core_0_DTLB_prefetch_accuracy 0
Core_0_DTLB_prefetch_coverage 0
Core_0_DTLB_total_eviction 0

Core_0_STLB_total_access 1259909
Core_0_STLB_total_hit 1258388
Core_0_STLB_total_miss 1521
Core_0_STLB_total_MPKI 0.03042
Core_0_STLB_total_miss_rate 0.00120723
Core_0_STLB_demand_access 1259909
Core_0_STLB_demand_hit 1258388
Core_0_STLB_demand_miss 1521
Core_0_STLB_demand_MPKI 0.03042
Core_0_STLB_demand_miss_rate 0.00120723
Core_0_STLB_load_access 1259909
Core_0_STLB_load_hit 1258388
Core_0_STLB_load_miss 1521
Core_0_STLB_load_MPKI 0.03042
Core_0_STLB_load_miss_rate 0.00120723
Core_0_STLB_rfo_access 0
Core_0_STLB_rfo_hit 0
Core_0_STLB_rfo_miss 0
Core_0_STLB_rfo_MPKI 0
Core_0_STLB_rfo_miss_rate 0
Core_0_STLB_prefetch_access 0
Core_0_STLB_prefetch_hit 0
Core_0_STLB_prefetch_miss 0
Core_0_STLB_prefetch_MPKI 0
Core_0_STLB_prefetch_miss_rate 0
Core_0_STLB_writeback_access 0
Core_0_STLB_writeback_hit 0
Core_0_STLB_writeback_miss 0
Core_0_STLB_writeback_MPKI 0
Core_0_STLB_writeback_miss_rate 0
Core_0_STLB_prefetch_requested 0
Core_0_STLB_prefetch_issued 0
Core_0_STLB_prefetch_useful 0
Core_0_STLB_prefetch_useless 0
Core_0_STLB_prefetch_late 0
Core_0_STLB_prefetch_accuracy 0
Core_0_STLB_prefetch_coverage 0
Core_0_STLB_total_eviction 0

Core_0_L1I_total_access 9095705
Core_0_L1I_total_hit 8833892
Core_0_L1I_total_miss 261813
Core_0_L1I_total_MPKI 5.23626
Core_0_L1I_total_miss_rate 0.0287842
Core_0_L1I_demand_access 9095705
Core_0_L1I_demand_hit 8833892
Core_0_L1I_demand_miss 261813
Core_0_L1I_demand_MPKI 5.23626
Core_0_L1I_demand_miss_rate 0.0287842
Core_0_L1I_load_access 9095705
Core_0_L1I_load_hit 8833892
Core_0_L1I_load_miss 261813
Core_0_L1I_load_MPKI 5.23626
Core_0_L1I_load_miss_rate 0.0287842
Core_0_L1I_rfo_access 0
Core_0_L1I_rfo_hit 0
Core_0_L1I_rfo_miss 0
Core_0_L1I_rfo_MPKI 0
Core_0_L1I_rfo_miss_rate 0
Core_0_L1I_prefetch_access 0
Core_0_L1I_prefetch_hit 0
Core_0_L1I_prefetch_miss 0
Core_0_L1I_prefetch_MPKI 0
Core_0_L1I_prefetch_miss_rate 0
Core_0_L1I_writeback_access 0
Core_0_L1I_writeback_hit 0
Core_0_L1I_writeback_miss 0
Core_0_L1I_writeback_MPKI 0
Core_0_L1I_writeback_miss_rate 0
Core_0_L1I_prefetch_requested 0
Core_0_L1I_prefetch_issued 0
Core_0_L1I_prefetch_useful 0
Core_0_L1I_prefetch_useless 0
Core_0_L1I_prefetch_late 0
Core_0_L1I_prefetch_accuracy 0
Core_0_L1I_prefetch_coverage 0
Core_0_L1I_total_eviction 0

Core_0_L1D_total_access 15216458
Core_0_L1D_total_hit 11441207
Core_0_L1D_total_miss 3775251
Core_0_L1D_total_MPKI 75.505
Core_0_L1D_total_miss_rate 0.248103
Core_0_L1D_demand_access 8988910
Core_0_L1D_demand_hit 6590666
Core_0_L1D_demand_miss 2398244
Core_0_L1D_demand_MPKI 47.9649
Core_0_L1D_demand_miss_rate 0.2668
Core_0_L1D_load_access 8988910
Core_0_L1D_load_hit 6590666
Core_0_L1D_load_miss 2398244
Core_0_L1D_load_MPKI 47.9649
Core_0_L1D_load_miss_rate 0.2668
Core_0_L1D_rfo_access 0
Core_0_L1D_rfo_hit 0
Core_0_L1D_rfo_miss 0
Core_0_L1D_rfo_MPKI 0
Core_0_L1D_rfo_miss_rate 0
Core_0_L1D_prefetch_access 1339886
Core_0_L1D_prefetch_hit 446423
Core_0_L1D_prefetch_miss 893463
Core_0_L1D_prefetch_MPKI 17.8693
Core_0_L1D_prefetch_miss_rate 0.66682
Core_0_L1D_writeback_access 4887662
Core_0_L1D_writeback_hit 4404118
Core_0_L1D_writeback_miss 483544
Core_0_L1D_writeback_MPKI 9.67088
Core_0_L1D_writeback_miss_rate 0.0989316
Core_0_L1D_prefetch_requested 1371200
Core_0_L1D_prefetch_issued 1339879
Core_0_L1D_prefetch_useful 276779
Core_0_L1D_prefetch_useless 554998
Core_0_L1D_prefetch_late 19373
Core_0_L1D_prefetch_accuracy 0.20657
Core_0_L1D_prefetch_coverage 0.103468
Core_0_L1D_total_eviction 0

Core_0_L2C_total_access 3644887
Core_0_L2C_total_hit 3198154
Core_0_L2C_total_miss 446733
Core_0_L2C_total_MPKI 8.93466
Core_0_L2C_total_miss_rate 0.122564
Core_0_L2C_demand_access 2271793
Core_0_L2C_demand_hit 1975246
Core_0_L2C_demand_miss 296547
Core_0_L2C_demand_MPKI 5.93094
Core_0_L2C_demand_miss_rate 0.130534
Core_0_L2C_load_access 2146038
Core_0_L2C_load_hit 1957326
Core_0_L2C_load_miss 188712
Core_0_L2C_load_MPKI 3.77424
Core_0_L2C_load_miss_rate 0.0879351
Core_0_L2C_rfo_access 125755
Core_0_L2C_rfo_hit 17920
Core_0_L2C_rfo_miss 107835
Core_0_L2C_rfo_MPKI 2.1567
Core_0_L2C_rfo_miss_rate 0.857501
Core_0_L2C_prefetch_access 1193293
Core_0_L2C_prefetch_hit 1043115
Core_0_L2C_prefetch_miss 150178
Core_0_L2C_prefetch_MPKI 3.00356
Core_0_L2C_prefetch_miss_rate 0.125852
Core_0_L2C_writeback_access 179801
Core_0_L2C_writeback_hit 179793
Core_0_L2C_writeback_miss 8
Core_0_L2C_writeback_MPKI 0.00016
Core_0_L2C_writeback_miss_rate 4.44936e-05
Core_0_L2C_prefetch_requested 361858
Core_0_L2C_prefetch_issued 361596
Core_0_L2C_prefetch_useful 7590
Core_0_L2C_prefetch_useless 6201
Core_0_L2C_prefetch_late 356
Core_0_L2C_prefetch_accuracy 0.0209903
Core_0_L2C_prefetch_coverage 0.0249559
Core_0_L2C_total_eviction 0

Core_0_LLC_total_access 563377
Core_0_LLC_total_hit 422359
Core_0_LLC_total_miss 141018
Core_0_LLC_total_MPKI 2.82036
Core_0_LLC_total_miss_rate 0.250308
Core_0_LLC_demand_access 296191
Core_0_LLC_demand_hit 185729
Core_0_LLC_demand_miss 110462
Core_0_LLC_demand_MPKI 2.20924
Core_0_LLC_demand_miss_rate 0.372942
Core_0_LLC_load_access 188456
Core_0_LLC_load_hit 179658
Core_0_LLC_load_miss 8798
Core_0_LLC_load_MPKI 0.17596
Core_0_LLC_load_miss_rate 0.0466846
Core_0_LLC_rfo_access 107735
Core_0_LLC_rfo_hit 6071
Core_0_LLC_rfo_miss 101664
Core_0_LLC_rfo_MPKI 2.03328
Core_0_LLC_rfo_miss_rate 0.943649
Core_0_LLC_prefetch_access 142349
Core_0_LLC_prefetch_hit 122392
Core_0_LLC_prefetch_miss 19957
Core_0_LLC_prefetch_MPKI 0.39914
Core_0_LLC_prefetch_miss_rate 0.140198
Core_0_LLC_writeback_access 124837
Core_0_LLC_writeback_hit 114238
Core_0_LLC_writeback_miss 10599
Core_0_LLC_writeback_MPKI 0.21198
Core_0_LLC_writeback_miss_rate 0.0849027
Core_0_LLC_prefetch_requested 0
Core_0_LLC_prefetch_issued 0
Core_0_LLC_prefetch_useful 0
Core_0_LLC_prefetch_useless 0
Core_0_LLC_prefetch_late 0
Core_0_LLC_prefetch_accuracy 0
Core_0_LLC_prefetch_coverage 0
Core_0_LLC_total_eviction 0

[DRAM Statistics]
Channel_0_RQ_row_buffer_hit 11438
Channel_0_RQ_row_buffer_miss 119271
Channel_0_WQ_row_buffer_hit 5616
Channel_0_WQ_row_buffer_miss 88211
Channel_0_WQ_full 0
Channel_0_dbus_congested 471593
DRAM_total_RQ_row_buffer_hit 11438
DRAM_total_RQ_row_buffer_miss 119271
DRAM_total_WQ_row_buffer_hit 5616
DRAM_total_WQ_row_buffer_miss 88211
DRAM_total_WQ_full 0
DRAM_total_dbus_congested 471593
DRAM_avg_congested_cycle 5.99518

======STLB miss causes ========
Core_0_STLB_miss_cause_breakdown
Core_0_STLB_cause_Demand_Data_miss 1252
Core_0_STLB_cause_Demand_Data_miss_rate 0.000993723
Core_0_STLB_cause_Demand_Instruction_miss 111
Core_0_STLB_cause_Demand_Instruction_miss_rate 8.81016e-05
Core_0_STLB_cause_L1D_Prefetch_miss 158
Core_0_STLB_cause_L1D_Prefetch_miss_rate 0.000125406
Core_0_STLB_cause_L1I_Prefetch_miss 0
Core_0_STLB_cause_L1I_Prefetch_miss_rate 0
Core_0_STLB_cause_Other_miss 0
Core_0_STLB_cause_Other_miss_rate 0
Core_0_STLB_Demand_miss 1363
Core_0_STLB_Demand_miss_rate 0.00108182
Core_0_STLB_L1D_Prefetch_miss 158
Core_0_STLB_L1D_Prefetch_miss_rate 0.000125406
Core_0_STLB_Other_miss 0
Core_0_STLB_Other_miss_rate 0
