[VMEM] WARNING: physical memory size is smaller than virtual memory size.

*** ChampSim Multicore Out-of-Order Simulator ***
Warmup Instructions: 20000000
Simulation Instructions: 50000000
Number of CPUs: 1
Page size: 4096
STLB ideal mode: off
STLB ideal fill: off
Core 0: /data0/tzh/champsim_traces/QMM/compute_int_37_new.xz
 L1D Berti prefetcher
Off-chip DRAM Size: 16 GiB Channels: 1 Width: 64-bit Data Rate: 3205 MT/s
Warmup halting CPU 0 at instruction 20000005 cycle 5570356 for remainder of phase
Warmup finished CPU 0 instructions: 20000005 cycles: 5570356 cumulative IPC: 3.59 (Simulation time: 00 hr 01 min 15 sec)
Warmup complete CPU 0 instructions: 20000005 cycles: 5570356 cumulative IPC: 3.59 (Simulation time: 00 hr 01 min 15 sec)
*** Reached end of trace: (0, "/data0/tzh/champsim_traces/QMM/compute_int_37_new.xz")
*** Reached end of trace: (0, "/data0/tzh/champsim_traces/QMM/compute_int_37_new.xz")
Simulation finished CPU 0 instructions: 50000004 cycles: 133271556 cumulative IPC: 0.3752 (Simulation time: 00 hr 17 min 40 sec)
Simulation complete CPU 0 instructions: 50000004 cycles: 133271556 cumulative IPC: 0.3752 (Simulation time: 00 hr 17 min 40 sec)

ChampSim completed all CPUs

=== Simulation ===
CPU 0 runs /data0/tzh/champsim_traces/QMM/compute_int_37_new.xz

Region of Interest Statistics

CPU 0 cumulative IPC: 0.3752 instructions: 50000004 cycles: 133271556
CPU 0 Branch Prediction Accuracy: 99.87% MPKI: 0.2508 Average ROB Occupancy at Mispredict: 119.4
Branch type MPKI
BRANCH_DIRECT_JUMP: 0.00072
BRANCH_INDIRECT: 0
BRANCH_CONDITIONAL: 0.2448
BRANCH_DIRECT_CALL: 0.0024
BRANCH_INDIRECT_CALL: 0.00062
BRANCH_RETURN: 0.00232

cpu0->cpu0_STLB TOTAL        ACCESS:    1499343 HIT:    1439751 MISS:      59592 MSHR_MERGE:          0
cpu0->cpu0_STLB LOAD         ACCESS:    1499343 HIT:    1439751 MISS:      59592 MSHR_MERGE:          0
cpu0->cpu0_STLB RFO          ACCESS:          0 HIT:          0 MISS:          0 MSHR_MERGE:          0
cpu0->cpu0_STLB PREFETCH     ACCESS:          0 HIT:          0 MISS:          0 MSHR_MERGE:          0
cpu0->cpu0_STLB WRITE        ACCESS:          0 HIT:          0 MISS:          0 MSHR_MERGE:          0
cpu0->cpu0_STLB TRANSLATION  ACCESS:          0 HIT:          0 MISS:          0 MSHR_MERGE:          0
cpu0->cpu0_STLB PREFETCH REQUESTED:          0 ISSUED:          0 USEFUL:          0 USELESS:          0 LATE:          0
cpu0->cpu0_STLB AVERAGE MISS LATENCY: 537 cycles
cpu0->cpu0_L2C TOTAL        ACCESS:   11312208 HIT:    1832210 MISS:    9479998 MSHR_MERGE:     830081
cpu0->cpu0_L2C LOAD         ACCESS:    5305582 HIT:     484772 MISS:    4820810 MSHR_MERGE:     304136
cpu0->cpu0_L2C RFO          ACCESS:     205984 HIT:      58262 MISS:     147722 MSHR_MERGE:          1
cpu0->cpu0_L2C PREFETCH     ACCESS:    4690718 HIT:     216321 MISS:    4474397 MSHR_MERGE:     525944
cpu0->cpu0_L2C WRITE        ACCESS:    1065786 HIT:    1065773 MISS:         13 MSHR_MERGE:          0
cpu0->cpu0_L2C TRANSLATION  ACCESS:      44138 HIT:       7082 MISS:      37056 MSHR_MERGE:          0
cpu0->cpu0_L2C PREFETCH REQUESTED:    4083091 ISSUED:    4083089 USEFUL:     337952 USELESS:     154465 LATE:     304137
cpu0->cpu0_L2C AVERAGE MISS LATENCY: 250.3 cycles
cpu0->cpu0_L1I TOTAL        ACCESS:   11009673 HIT:   11008875 MISS:        798 MSHR_MERGE:        216
cpu0->cpu0_L1I LOAD         ACCESS:   11009673 HIT:   11008875 MISS:        798 MSHR_MERGE:        216
cpu0->cpu0_L1I RFO          ACCESS:          0 HIT:          0 MISS:          0 MSHR_MERGE:          0
cpu0->cpu0_L1I PREFETCH     ACCESS:          0 HIT:          0 MISS:          0 MSHR_MERGE:          0
cpu0->cpu0_L1I WRITE        ACCESS:          0 HIT:          0 MISS:          0 MSHR_MERGE:          0
cpu0->cpu0_L1I TRANSLATION  ACCESS:          0 HIT:          0 MISS:          0 MSHR_MERGE:          0
cpu0->cpu0_L1I PREFETCH REQUESTED:          0 ISSUED:          0 USEFUL:          0 USELESS:          0 LATE:          0
cpu0->cpu0_L1I AVERAGE MISS LATENCY: 235.4 cycles
cpu0->cpu0_L1D TOTAL        ACCESS:   12805327 HIT:    5764394 MISS:    7040933 MSHR_MERGE:     878180
cpu0->cpu0_L1D LOAD         ACCESS:   10429836 HIT:    4447714 MISS:    5982122 MSHR_MERGE:     677120
cpu0->cpu0_L1D RFO          ACCESS:          0 HIT:          0 MISS:          0 MSHR_MERGE:          0
cpu0->cpu0_L1D PREFETCH     ACCESS:     814253 HIT:     177208 MISS:     637045 MSHR_MERGE:      29416
cpu0->cpu0_L1D WRITE        ACCESS:    1420253 HIT:    1042698 MISS:     377555 MSHR_MERGE:     171571
cpu0->cpu0_L1D TRANSLATION  ACCESS:     140985 HIT:      96774 MISS:      44211 MSHR_MERGE:         73
cpu0->cpu0_L1D PREFETCH REQUESTED:    3660775 ISSUED:     814253 USEFUL:     222693 USELESS:     384863 LATE:      54394
cpu0->cpu0_L1D AVERAGE MISS LATENCY: 234.2 cycles
cpu0->cpu0_ITLB TOTAL        ACCESS:    9635894 HIT:    9635632 MISS:        262 MSHR_MERGE:        144
cpu0->cpu0_ITLB LOAD         ACCESS:    9635894 HIT:    9635632 MISS:        262 MSHR_MERGE:        144
cpu0->cpu0_ITLB RFO          ACCESS:          0 HIT:          0 MISS:          0 MSHR_MERGE:          0
cpu0->cpu0_ITLB PREFETCH     ACCESS:          0 HIT:          0 MISS:          0 MSHR_MERGE:          0
cpu0->cpu0_ITLB WRITE        ACCESS:          0 HIT:          0 MISS:          0 MSHR_MERGE:          0
cpu0->cpu0_ITLB TRANSLATION  ACCESS:          0 HIT:          0 MISS:          0 MSHR_MERGE:          0
cpu0->cpu0_ITLB PREFETCH REQUESTED:          0 ISSUED:          0 USEFUL:          0 USELESS:          0 LATE:          0
cpu0->cpu0_ITLB AVERAGE MISS LATENCY: 187.9 cycles
cpu0->cpu0_DTLB TOTAL        ACCESS:   12275612 HIT:    9450150 MISS:    2825462 MSHR_MERGE:    1326238
cpu0->cpu0_DTLB LOAD         ACCESS:   12275612 HIT:    9450150 MISS:    2825462 MSHR_MERGE:    1326238
cpu0->cpu0_DTLB RFO          ACCESS:          0 HIT:          0 MISS:          0 MSHR_MERGE:          0
cpu0->cpu0_DTLB PREFETCH     ACCESS:          0 HIT:          0 MISS:          0 MSHR_MERGE:          0
cpu0->cpu0_DTLB WRITE        ACCESS:          0 HIT:          0 MISS:          0 MSHR_MERGE:          0
cpu0->cpu0_DTLB TRANSLATION  ACCESS:          0 HIT:          0 MISS:          0 MSHR_MERGE:          0
cpu0->cpu0_DTLB PREFETCH REQUESTED:          0 ISSUED:          0 USEFUL:          0 USELESS:          0 LATE:          0
cpu0->cpu0_DTLB AVERAGE MISS LATENCY: 26.37 cycles
cpu0->LLC TOTAL        ACCESS:    9671901 HIT:    1352014 MISS:    8319887 MSHR_MERGE:    2818518
cpu0->LLC LOAD         ACCESS:    4516672 HIT:     255381 MISS:    4261291 MSHR_MERGE:    1887468
cpu0->LLC RFO          ACCESS:     147721 HIT:      71797 MISS:      75924 MSHR_MERGE:          0
cpu0->LLC PREFETCH     ACCESS:    3948453 HIT:     170320 MISS:    3778133 MSHR_MERGE:     931050
cpu0->LLC WRITE        ACCESS:    1021999 HIT:     851700 MISS:     170299 MSHR_MERGE:          0
cpu0->LLC TRANSLATION  ACCESS:      37056 HIT:       2816 MISS:      34240 MSHR_MERGE:          0
cpu0->LLC PREFETCH REQUESTED:          0 ISSUED:          0 USEFUL:          0 USELESS:          0 LATE:          0
cpu0->LLC AVERAGE MISS LATENCY: 248.2 cycles

DRAM Statistics

Channel 0 RQ ROW_BUFFER_HIT:    1712881
  ROW_BUFFER_MISS:    3618175
  AVG DBUS CONGESTED CYCLE: 4.743
Channel 0 WQ ROW_BUFFER_HIT:     155712
  ROW_BUFFER_MISS:     860211
  FULL:          0
Channel 0 REFRESHES ISSUED:      11106

[ROI Statistics]
[System Configuration]
num_cpus 1
cpu_freq 4000
fetch_width 6
decode_width 6
dispatch_width 6
execute_width 6
lq_width 2
sq_width 2
retire_width 6
scheduler_size 128
branch_mispredict_penalty 15
rob_size 352
lq_size 128
sq_size 72
ifetch_buffer_size 64
decode_buffer_size 32
dispatch_buffer_size 32
register_file_size 288
decode_latency 1
dispatch_latency 1
schedule_latency 1
execute_latency 1
page_size 4096
block_size 64
core_0_itlb_set 16
core_0_itlb_way 4
core_0_itlb_rq_size 16
core_0_itlb_wq_size 16
core_0_itlb_pq_size 0
core_0_itlb_mshr_size 8
core_0_itlb_hit_latency 1
core_0_itlb_fill_latency 1
core_0_itlb_max_tag_check 2
core_0_itlb_max_fill 2
core_0_dtlb_set 16
core_0_dtlb_way 4
core_0_dtlb_rq_size 16
core_0_dtlb_wq_size 16
core_0_dtlb_pq_size 0
core_0_dtlb_mshr_size 8
core_0_dtlb_hit_latency 1
core_0_dtlb_fill_latency 1
core_0_dtlb_max_tag_check 2
core_0_dtlb_max_fill 2
core_0_stlb_set 262144
core_0_stlb_way 16
core_0_stlb_rq_size 32
core_0_stlb_wq_size 32
core_0_stlb_pq_size 0
core_0_stlb_mshr_size 16
core_0_stlb_hit_latency 4
core_0_stlb_fill_latency 4
core_0_stlb_max_tag_check 1
core_0_stlb_max_fill 1
core_0_l1i_set 64
core_0_l1i_way 8
core_0_l1i_rq_size 64
core_0_l1i_wq_size 64
core_0_l1i_pq_size 32
core_0_l1i_mshr_size 8
core_0_l1i_hit_latency 2
core_0_l1i_fill_latency 2
core_0_l1i_max_tag_check 2
core_0_l1i_max_fill 2
core_0_l1d_set 64
core_0_l1d_way 12
core_0_l1d_rq_size 64
core_0_l1d_wq_size 64
core_0_l1d_pq_size 8
core_0_l1d_mshr_size 16
core_0_l1d_hit_latency 2
core_0_l1d_fill_latency 3
core_0_l1d_max_tag_check 2
core_0_l1d_max_fill 2
core_0_l2c_set 1024
core_0_l2c_way 8
core_0_l2c_rq_size 32
core_0_l2c_wq_size 32
core_0_l2c_pq_size 16
core_0_l2c_mshr_size 32
core_0_l2c_hit_latency 5
core_0_l2c_fill_latency 5
core_0_l2c_max_tag_check 1
core_0_l2c_max_fill 1
llc_set 2048
llc_way 16
llc_rq_size 32
llc_wq_size 32
llc_pq_size 32
llc_mshr_size 64
llc_hit_latency 10
llc_fill_latency 10
llc_max_tag_check 1
llc_max_fill 1
dram_channels 1
dram_ranks 1
dram_bankgroups 8
dram_banks 4
dram_rows 65536
dram_columns 1024
dram_channel_width 8
dram_rq_size 64
dram_wq_size 64
dram_size 17179869184
core_0_itlb_prefetcher no
core_0_dtlb_prefetcher no
core_0_stlb_prefetcher no
core_0_l1i_prefetcher next_line
core_0_l1d_prefetcher berti
core_0_l2c_prefetcher ip_stride
llc_prefetcher no
llc_replacement drrip

Core_0_instructions 50000004
Core_0_cycles 133271556
Core_0_IPC 0.375174
Core_0_branch_prediction_accuracy 99.8672
Core_0_branch_MPKI 0.25084
Core_0_average_ROB_occupancy_at_mispredict 119.425

Core_0_ITLB_total_access 9635894
Core_0_ITLB_total_hit 9635632
Core_0_ITLB_total_miss 262
Core_0_ITLB_total_MPKI 0.00524
Core_0_ITLB_total_miss_rate 2.719e-05
Core_0_ITLB_demand_access 9635894
Core_0_ITLB_demand_hit 9635632
Core_0_ITLB_demand_miss 262
Core_0_ITLB_demand_MPKI 0.00524
Core_0_ITLB_demand_miss_rate 2.719e-05
Core_0_ITLB_load_access 9635894
Core_0_ITLB_load_hit 9635632
Core_0_ITLB_load_miss 262
Core_0_ITLB_load_MPKI 0.00524
Core_0_ITLB_load_miss_rate 2.719e-05
Core_0_ITLB_rfo_access 0
Core_0_ITLB_rfo_hit 0
Core_0_ITLB_rfo_miss 0
Core_0_ITLB_rfo_MPKI 0
Core_0_ITLB_rfo_miss_rate 0
Core_0_ITLB_prefetch_access 0
Core_0_ITLB_prefetch_hit 0
Core_0_ITLB_prefetch_miss 0
Core_0_ITLB_prefetch_MPKI 0
Core_0_ITLB_prefetch_miss_rate 0
Core_0_ITLB_writeback_access 0
Core_0_ITLB_writeback_hit 0
Core_0_ITLB_writeback_miss 0
Core_0_ITLB_writeback_MPKI 0
Core_0_ITLB_writeback_miss_rate 0
Core_0_ITLB_prefetch_requested 0
Core_0_ITLB_prefetch_issued 0
Core_0_ITLB_prefetch_useful 0
Core_0_ITLB_prefetch_useless 0
Core_0_ITLB_prefetch_late 0
Core_0_ITLB_prefetch_accuracy 0
Core_0_ITLB_prefetch_coverage 0
Core_0_ITLB_total_eviction 0

Core_0_DTLB_total_access 12275612
Core_0_DTLB_total_hit 9450150
Core_0_DTLB_total_miss 2825462
Core_0_DTLB_total_MPKI 56.5092
Core_0_DTLB_total_miss_rate 0.230169
Core_0_DTLB_demand_access 12275612
Core_0_DTLB_demand_hit 9450150
Core_0_DTLB_demand_miss 2825462
Core_0_DTLB_demand_MPKI 56.5092
Core_0_DTLB_demand_miss_rate 0.230169
Core_0_DTLB_load_access 12275612
Core_0_DTLB_load_hit 9450150
Core_0_DTLB_load_miss 2825462
Core_0_DTLB_load_MPKI 56.5092
Core_0_DTLB_load_miss_rate 0.230169
Core_0_DTLB_rfo_access 0
Core_0_DTLB_rfo_hit 0
Core_0_DTLB_rfo_miss 0
Core_0_DTLB_rfo_MPKI 0
Core_0_DTLB_rfo_miss_rate 0
Core_0_DTLB_prefetch_access 0
Core_0_DTLB_prefetch_hit 0
Core_0_DTLB_prefetch_miss 0
Core_0_DTLB_prefetch_MPKI 0
Core_0_DTLB_prefetch_miss_rate 0
Core_0_DTLB_writeback_access 0
Core_0_DTLB_writeback_hit 0
Core_0_DTLB_writeback_miss 0
Core_0_DTLB_writeback_MPKI 0
Core_0_DTLB_writeback_miss_rate 0
Core_0_DTLB_prefetch_requested 0
Core_0_DTLB_prefetch_issued 0
Core_0_DTLB_prefetch_useful 0
Core_0_DTLB_prefetch_useless 0
Core_0_DTLB_prefetch_late 0
Core_0_DTLB_prefetch_accuracy 0
Core_0_DTLB_prefetch_coverage 0
Core_0_DTLB_total_eviction 0

Core_0_STLB_total_access 1499343
Core_0_STLB_total_hit 1439751
Core_0_STLB_total_miss 59592
Core_0_STLB_total_MPKI 1.19184
Core_0_STLB_total_miss_rate 0.0397454
Core_0_STLB_demand_access 1499343
Core_0_STLB_demand_hit 1439751
Core_0_STLB_demand_miss 59592
Core_0_STLB_demand_MPKI 1.19184
Core_0_STLB_demand_miss_rate 0.0397454
Core_0_STLB_load_access 1499343
Core_0_STLB_load_hit 1439751
Core_0_STLB_load_miss 59592
Core_0_STLB_load_MPKI 1.19184
Core_0_STLB_load_miss_rate 0.0397454
Core_0_STLB_rfo_access 0
Core_0_STLB_rfo_hit 0
Core_0_STLB_rfo_miss 0
Core_0_STLB_rfo_MPKI 0
Core_0_STLB_rfo_miss_rate 0
Core_0_STLB_prefetch_access 0
Core_0_STLB_prefetch_hit 0
Core_0_STLB_prefetch_miss 0
Core_0_STLB_prefetch_MPKI 0
Core_0_STLB_prefetch_miss_rate 0
Core_0_STLB_writeback_access 0
Core_0_STLB_writeback_hit 0
Core_0_STLB_writeback_miss 0
Core_0_STLB_writeback_MPKI 0
Core_0_STLB_writeback_miss_rate 0
Core_0_STLB_prefetch_requested 0
Core_0_STLB_prefetch_issued 0
Core_0_STLB_prefetch_useful 0
Core_0_STLB_prefetch_useless 0
Core_0_STLB_prefetch_late 0
Core_0_STLB_prefetch_accuracy 0
Core_0_STLB_prefetch_coverage 0
Core_0_STLB_total_eviction 0

Core_0_L1I_total_access 11009673
Core_0_L1I_total_hit 11008875
Core_0_L1I_total_miss 798
Core_0_L1I_total_MPKI 0.01596
Core_0_L1I_total_miss_rate 7.24817e-05
Core_0_L1I_demand_access 11009673
Core_0_L1I_demand_hit 11008875
Core_0_L1I_demand_miss 798
Core_0_L1I_demand_MPKI 0.01596
Core_0_L1I_demand_miss_rate 7.24817e-05
Core_0_L1I_load_access 11009673
Core_0_L1I_load_hit 11008875
Core_0_L1I_load_miss 798
Core_0_L1I_load_MPKI 0.01596
Core_0_L1I_load_miss_rate 7.24817e-05
Core_0_L1I_rfo_access 0
Core_0_L1I_rfo_hit 0
Core_0_L1I_rfo_miss 0
Core_0_L1I_rfo_MPKI 0
Core_0_L1I_rfo_miss_rate 0
Core_0_L1I_prefetch_access 0
Core_0_L1I_prefetch_hit 0
Core_0_L1I_prefetch_miss 0
Core_0_L1I_prefetch_MPKI 0
Core_0_L1I_prefetch_miss_rate 0
Core_0_L1I_writeback_access 0
Core_0_L1I_writeback_hit 0
Core_0_L1I_writeback_miss 0
Core_0_L1I_writeback_MPKI 0
Core_0_L1I_writeback_miss_rate 0
Core_0_L1I_prefetch_requested 0
Core_0_L1I_prefetch_issued 0
Core_0_L1I_prefetch_useful 0
Core_0_L1I_prefetch_useless 0
Core_0_L1I_prefetch_late 0
Core_0_L1I_prefetch_accuracy 0
Core_0_L1I_prefetch_coverage 0
Core_0_L1I_total_eviction 0

Core_0_L1D_total_access 12664342
Core_0_L1D_total_hit 5667620
Core_0_L1D_total_miss 6996722
Core_0_L1D_total_MPKI 139.934
Core_0_L1D_total_miss_rate 0.552474
Core_0_L1D_demand_access 10429836
Core_0_L1D_demand_hit 4447714
Core_0_L1D_demand_miss 5982122
Core_0_L1D_demand_MPKI 119.642
Core_0_L1D_demand_miss_rate 0.573559
Core_0_L1D_load_access 10429836
Core_0_L1D_load_hit 4447714
Core_0_L1D_load_miss 5982122
Core_0_L1D_load_MPKI 119.642
Core_0_L1D_load_miss_rate 0.573559
Core_0_L1D_rfo_access 0
Core_0_L1D_rfo_hit 0
Core_0_L1D_rfo_miss 0
Core_0_L1D_rfo_MPKI 0
Core_0_L1D_rfo_miss_rate 0
Core_0_L1D_prefetch_access 814253
Core_0_L1D_prefetch_hit 177208
Core_0_L1D_prefetch_miss 637045
Core_0_L1D_prefetch_MPKI 12.7409
Core_0_L1D_prefetch_miss_rate 0.782367
Core_0_L1D_writeback_access 1420253
Core_0_L1D_writeback_hit 1042698
Core_0_L1D_writeback_miss 377555
Core_0_L1D_writeback_MPKI 7.5511
Core_0_L1D_writeback_miss_rate 0.265836
Core_0_L1D_prefetch_requested 3660775
Core_0_L1D_prefetch_issued 814253
Core_0_L1D_prefetch_useful 222693
Core_0_L1D_prefetch_useless 384863
Core_0_L1D_prefetch_late 54394
Core_0_L1D_prefetch_accuracy 0.273494
Core_0_L1D_prefetch_coverage 0.0358904
Core_0_L1D_total_eviction 0

Core_0_L2C_total_access 11268070
Core_0_L2C_total_hit 1825128
Core_0_L2C_total_miss 9442942
Core_0_L2C_total_MPKI 188.859
Core_0_L2C_total_miss_rate 0.838027
Core_0_L2C_demand_access 5511566
Core_0_L2C_demand_hit 543034
Core_0_L2C_demand_miss 4968532
Core_0_L2C_demand_MPKI 99.3706
Core_0_L2C_demand_miss_rate 0.901474
Core_0_L2C_load_access 5305582
Core_0_L2C_load_hit 484772
Core_0_L2C_load_miss 4820810
Core_0_L2C_load_MPKI 96.4162
Core_0_L2C_load_miss_rate 0.90863
Core_0_L2C_rfo_access 205984
Core_0_L2C_rfo_hit 58262
Core_0_L2C_rfo_miss 147722
Core_0_L2C_rfo_MPKI 2.95444
Core_0_L2C_rfo_miss_rate 0.717153
Core_0_L2C_prefetch_access 4690718
Core_0_L2C_prefetch_hit 216321
Core_0_L2C_prefetch_miss 4474397
Core_0_L2C_prefetch_MPKI 89.4879
Core_0_L2C_prefetch_miss_rate 0.953883
Core_0_L2C_writeback_access 1065786
Core_0_L2C_writeback_hit 1065773
Core_0_L2C_writeback_miss 13
Core_0_L2C_writeback_MPKI 0.00026
Core_0_L2C_writeback_miss_rate 1.21976e-05
Core_0_L2C_prefetch_requested 4083091
Core_0_L2C_prefetch_issued 4083089
Core_0_L2C_prefetch_useful 337952
Core_0_L2C_prefetch_useless 154465
Core_0_L2C_prefetch_late 304137
Core_0_L2C_prefetch_accuracy 0.0827687
Core_0_L2C_prefetch_coverage 0.0636866
Core_0_L2C_total_eviction 0

Core_0_LLC_total_access 9634845
Core_0_LLC_total_hit 1349198
Core_0_LLC_total_miss 8285647
Core_0_LLC_total_MPKI 165.713
Core_0_LLC_total_miss_rate 0.859967
Core_0_LLC_demand_access 4664393
Core_0_LLC_demand_hit 327178
Core_0_LLC_demand_miss 4337215
Core_0_LLC_demand_MPKI 86.7443
Core_0_LLC_demand_miss_rate 0.929856
Core_0_LLC_load_access 4516672
Core_0_LLC_load_hit 255381
Core_0_LLC_load_miss 4261291
Core_0_LLC_load_MPKI 85.2258
Core_0_LLC_load_miss_rate 0.943458
Core_0_LLC_rfo_access 147721
Core_0_LLC_rfo_hit 71797
Core_0_LLC_rfo_miss 75924
Core_0_LLC_rfo_MPKI 1.51848
Core_0_LLC_rfo_miss_rate 0.513969
Core_0_LLC_prefetch_access 3948453
Core_0_LLC_prefetch_hit 170320
Core_0_LLC_prefetch_miss 3778133
Core_0_LLC_prefetch_MPKI 75.5627
Core_0_LLC_prefetch_miss_rate 0.956864
Core_0_LLC_writeback_access 1021999
Core_0_LLC_writeback_hit 851700
Core_0_LLC_writeback_miss 170299
Core_0_LLC_writeback_MPKI 3.40598
Core_0_LLC_writeback_miss_rate 0.166633
Core_0_LLC_prefetch_requested 0
Core_0_LLC_prefetch_issued 0
Core_0_LLC_prefetch_useful 0
Core_0_LLC_prefetch_useless 0
Core_0_LLC_prefetch_late 0
Core_0_LLC_prefetch_accuracy 0
Core_0_LLC_prefetch_coverage 0
Core_0_LLC_total_eviction 0

[DRAM Statistics]
Channel_0_RQ_row_buffer_hit 1712881
Channel_0_RQ_row_buffer_miss 3618175
Channel_0_WQ_row_buffer_hit 155712
Channel_0_WQ_row_buffer_miss 860211
Channel_0_WQ_full 0
Channel_0_dbus_congested 18515708
DRAM_total_RQ_row_buffer_hit 1712881
DRAM_total_RQ_row_buffer_miss 3618175
DRAM_total_WQ_row_buffer_hit 155712
DRAM_total_WQ_row_buffer_miss 860211
DRAM_total_WQ_full 0
DRAM_total_dbus_congested 18515708
DRAM_avg_congested_cycle 4.74318

======STLB miss causes ========
Core_0_STLB_miss_cause_breakdown
Core_0_STLB_cause_Demand_Data_miss 58821
Core_0_STLB_cause_Demand_Data_miss_rate 0.0392312
Core_0_STLB_cause_Demand_Instruction_miss 61
Core_0_STLB_cause_Demand_Instruction_miss_rate 4.06845e-05
Core_0_STLB_cause_L1D_Prefetch_miss 710
Core_0_STLB_cause_L1D_Prefetch_miss_rate 0.000473541
Core_0_STLB_cause_L1I_Prefetch_miss 0
Core_0_STLB_cause_L1I_Prefetch_miss_rate 0
Core_0_STLB_cause_Other_miss 0
Core_0_STLB_cause_Other_miss_rate 0
Core_0_STLB_Demand_miss 58882
Core_0_STLB_Demand_miss_rate 0.0392719
Core_0_STLB_L1D_Prefetch_miss 710
Core_0_STLB_L1D_Prefetch_miss_rate 0.000473541
Core_0_STLB_Other_miss 0
Core_0_STLB_Other_miss_rate 0
