[VMEM] WARNING: physical memory size is smaller than virtual memory size.

*** ChampSim Multicore Out-of-Order Simulator ***
Warmup Instructions: 20000000
Simulation Instructions: 50000000
Number of CPUs: 1
Page size: 4096
STLB ideal mode: off
STLB ideal fill: off
Core 0: /data0/tzh/champsim_traces/QMM/compute_fp_5_new.xz
 L1D Berti prefetcher
Off-chip DRAM Size: 16 GiB Channels: 1 Width: 64-bit Data Rate: 3205 MT/s
Warmup halting CPU 0 at instruction 20000002 cycle 6596083 for remainder of phase
Warmup finished CPU 0 instructions: 20000002 cycles: 6596083 cumulative IPC: 3.032 (Simulation time: 00 hr 01 min 15 sec)
Warmup complete CPU 0 instructions: 20000002 cycles: 6596083 cumulative IPC: 3.032 (Simulation time: 00 hr 01 min 15 sec)
*** Reached end of trace: (0, "/data0/tzh/champsim_traces/QMM/compute_fp_5_new.xz")
[BTB] WARNING: target of return is a lower address than the corresponding call. This is usually a problem with your trace.
*** Reached end of trace: (0, "/data0/tzh/champsim_traces/QMM/compute_fp_5_new.xz")
[BTB] WARNING: target of return is a lower address than the corresponding call. This is usually a problem with your trace.
Simulation finished CPU 0 instructions: 50000005 cycles: 52330049 cumulative IPC: 0.9555 (Simulation time: 00 hr 08 min 30 sec)
Simulation complete CPU 0 instructions: 50000005 cycles: 52330049 cumulative IPC: 0.9555 (Simulation time: 00 hr 08 min 30 sec)

ChampSim completed all CPUs

=== Simulation ===
CPU 0 runs /data0/tzh/champsim_traces/QMM/compute_fp_5_new.xz

Region of Interest Statistics

CPU 0 cumulative IPC: 0.9555 instructions: 50000005 cycles: 52330049
CPU 0 Branch Prediction Accuracy: 100% MPKI: 0.00054 Average ROB Occupancy at Mispredict: 267.6
Branch type MPKI
BRANCH_DIRECT_JUMP: 0
BRANCH_INDIRECT: 0.0001
BRANCH_CONDITIONAL: 0.00038
BRANCH_DIRECT_CALL: 0
BRANCH_INDIRECT_CALL: 2e-05
BRANCH_RETURN: 4e-05

cpu0->cpu0_STLB TOTAL        ACCESS:     368733 HIT:     356548 MISS:      12185 MSHR_MERGE:          0
cpu0->cpu0_STLB LOAD         ACCESS:     368733 HIT:     356548 MISS:      12185 MSHR_MERGE:          0
cpu0->cpu0_STLB RFO          ACCESS:          0 HIT:          0 MISS:          0 MSHR_MERGE:          0
cpu0->cpu0_STLB PREFETCH     ACCESS:          0 HIT:          0 MISS:          0 MSHR_MERGE:          0
cpu0->cpu0_STLB WRITE        ACCESS:          0 HIT:          0 MISS:          0 MSHR_MERGE:          0
cpu0->cpu0_STLB TRANSLATION  ACCESS:          0 HIT:          0 MISS:          0 MSHR_MERGE:          0
cpu0->cpu0_STLB PREFETCH REQUESTED:          0 ISSUED:          0 USEFUL:          0 USELESS:          0 LATE:          0
cpu0->cpu0_STLB AVERAGE MISS LATENCY: 248.7 cycles
cpu0->cpu0_L2C TOTAL        ACCESS:    3123944 HIT:     952072 MISS:    2171872 MSHR_MERGE:     457168
cpu0->cpu0_L2C LOAD         ACCESS:     801111 HIT:     455528 MISS:     345583 MSHR_MERGE:       4246
cpu0->cpu0_L2C RFO          ACCESS:     298880 HIT:       1207 MISS:     297673 MSHR_MERGE:          0
cpu0->cpu0_L2C PREFETCH     ACCESS:    1694196 HIT:     167262 MISS:    1526934 MSHR_MERGE:     452922
cpu0->cpu0_L2C WRITE        ACCESS:     327670 HIT:     327662 MISS:          8 MSHR_MERGE:          0
cpu0->cpu0_L2C TRANSLATION  ACCESS:       2087 HIT:        413 MISS:       1674 MSHR_MERGE:          0
cpu0->cpu0_L2C PREFETCH REQUESTED:     720089 ISSUED:     720089 USEFUL:     140014 USELESS:     180262 LATE:       4246
cpu0->cpu0_L2C AVERAGE MISS LATENCY: 329.7 cycles
cpu0->cpu0_L1I TOTAL        ACCESS:    7386489 HIT:    7386449 MISS:         40 MSHR_MERGE:         13
cpu0->cpu0_L1I LOAD         ACCESS:    7386489 HIT:    7386449 MISS:         40 MSHR_MERGE:         13
cpu0->cpu0_L1I RFO          ACCESS:          0 HIT:          0 MISS:          0 MSHR_MERGE:          0
cpu0->cpu0_L1I PREFETCH     ACCESS:          0 HIT:          0 MISS:          0 MSHR_MERGE:          0
cpu0->cpu0_L1I WRITE        ACCESS:          0 HIT:          0 MISS:          0 MSHR_MERGE:          0
cpu0->cpu0_L1I TRANSLATION  ACCESS:          0 HIT:          0 MISS:          0 MSHR_MERGE:          0
cpu0->cpu0_L1I PREFETCH REQUESTED:          0 ISSUED:          0 USEFUL:          0 USELESS:          0 LATE:          0
cpu0->cpu0_L1I AVERAGE MISS LATENCY: 270.5 cycles
cpu0->cpu0_L1D TOTAL        ACCESS:    9991117 HIT:    5523072 MISS:    4468045 MSHR_MERGE:    2391797
cpu0->cpu0_L1D LOAD         ACCESS:    4832415 HIT:    3180746 MISS:    1651669 MSHR_MERGE:     850585
cpu0->cpu0_L1D RFO          ACCESS:          0 HIT:          0 MISS:          0 MSHR_MERGE:          0
cpu0->cpu0_L1D PREFETCH     ACCESS:    1107684 HIT:      81445 MISS:    1026239 MSHR_MERGE:      52132
cpu0->cpu0_L1D WRITE        ACCESS:    4026619 HIT:    2238569 MISS:    1788050 MSHR_MERGE:    1489080
cpu0->cpu0_L1D TRANSLATION  ACCESS:      24399 HIT:      22312 MISS:       2087 MSHR_MERGE:          0
cpu0->cpu0_L1D PREFETCH REQUESTED:    1115920 ISSUED:    1107683 USEFUL:     922571 USELESS:      51552 LATE:     134682
cpu0->cpu0_L1D AVERAGE MISS LATENCY: 200.7 cycles
cpu0->cpu0_ITLB TOTAL        ACCESS:    6744349 HIT:    6744241 MISS:        108 MSHR_MERGE:         63
cpu0->cpu0_ITLB LOAD         ACCESS:    6744349 HIT:    6744241 MISS:        108 MSHR_MERGE:         63
cpu0->cpu0_ITLB RFO          ACCESS:          0 HIT:          0 MISS:          0 MSHR_MERGE:          0
cpu0->cpu0_ITLB PREFETCH     ACCESS:          0 HIT:          0 MISS:          0 MSHR_MERGE:          0
cpu0->cpu0_ITLB WRITE        ACCESS:          0 HIT:          0 MISS:          0 MSHR_MERGE:          0
cpu0->cpu0_ITLB TRANSLATION  ACCESS:          0 HIT:          0 MISS:          0 MSHR_MERGE:          0
cpu0->cpu0_ITLB PREFETCH REQUESTED:          0 ISSUED:          0 USEFUL:          0 USELESS:          0 LATE:          0
cpu0->cpu0_ITLB AVERAGE MISS LATENCY: 5.067 cycles
cpu0->cpu0_DTLB TOTAL        ACCESS:    9067028 HIT:    8327785 MISS:     739243 MSHR_MERGE:     370555
cpu0->cpu0_DTLB LOAD         ACCESS:    9067028 HIT:    8327785 MISS:     739243 MSHR_MERGE:     370555
cpu0->cpu0_DTLB RFO          ACCESS:          0 HIT:          0 MISS:          0 MSHR_MERGE:          0
cpu0->cpu0_DTLB PREFETCH     ACCESS:          0 HIT:          0 MISS:          0 MSHR_MERGE:          0
cpu0->cpu0_DTLB WRITE        ACCESS:          0 HIT:          0 MISS:          0 MSHR_MERGE:          0
cpu0->cpu0_DTLB TRANSLATION  ACCESS:          0 HIT:          0 MISS:          0 MSHR_MERGE:          0
cpu0->cpu0_DTLB PREFETCH REQUESTED:          0 ISSUED:          0 USEFUL:          0 USELESS:          0 LATE:          0
cpu0->cpu0_DTLB AVERAGE MISS LATENCY: 13.26 cycles
cpu0->LLC TOTAL        ACCESS:    2036344 HIT:      92856 MISS:    1943488 MSHR_MERGE:      83530
cpu0->LLC LOAD         ACCESS:     341337 HIT:       8650 MISS:     332687 MSHR_MERGE:        373
cpu0->LLC RFO          ACCESS:     297672 HIT:       1048 MISS:     296624 MSHR_MERGE:          0
cpu0->LLC PREFETCH     ACCESS:    1074006 HIT:      27989 MISS:    1046017 MSHR_MERGE:      83157
cpu0->LLC WRITE        ACCESS:     321655 HIT:      55146 MISS:     266509 MSHR_MERGE:          0
cpu0->LLC TRANSLATION  ACCESS:       1674 HIT:         23 MISS:       1651 MSHR_MERGE:          0
cpu0->LLC PREFETCH REQUESTED:          0 ISSUED:          0 USEFUL:          0 USELESS:          0 LATE:          0
cpu0->LLC AVERAGE MISS LATENCY: 227.1 cycles

DRAM Statistics

Channel 0 RQ ROW_BUFFER_HIT:     197061
  ROW_BUFFER_MISS:    1396369
  AVG DBUS CONGESTED CYCLE: 5.449
Channel 0 WQ ROW_BUFFER_HIT:      30197
  ROW_BUFFER_MISS:     286841
  FULL:          7
Channel 0 REFRESHES ISSUED:       4361

[ROI Statistics]
[System Configuration]
num_cpus 1
cpu_freq 4000
fetch_width 6
decode_width 6
dispatch_width 6
execute_width 6
lq_width 2
sq_width 2
retire_width 6
scheduler_size 128
branch_mispredict_penalty 15
rob_size 352
lq_size 128
sq_size 72
ifetch_buffer_size 64
decode_buffer_size 32
dispatch_buffer_size 32
register_file_size 288
decode_latency 1
dispatch_latency 1
schedule_latency 1
execute_latency 1
page_size 4096
block_size 64
core_0_itlb_set 16
core_0_itlb_way 4
core_0_itlb_rq_size 16
core_0_itlb_wq_size 16
core_0_itlb_pq_size 0
core_0_itlb_mshr_size 8
core_0_itlb_hit_latency 1
core_0_itlb_fill_latency 1
core_0_itlb_max_tag_check 2
core_0_itlb_max_fill 2
core_0_dtlb_set 16
core_0_dtlb_way 4
core_0_dtlb_rq_size 16
core_0_dtlb_wq_size 16
core_0_dtlb_pq_size 0
core_0_dtlb_mshr_size 8
core_0_dtlb_hit_latency 1
core_0_dtlb_fill_latency 1
core_0_dtlb_max_tag_check 2
core_0_dtlb_max_fill 2
core_0_stlb_set 262144
core_0_stlb_way 16
core_0_stlb_rq_size 32
core_0_stlb_wq_size 32
core_0_stlb_pq_size 0
core_0_stlb_mshr_size 16
core_0_stlb_hit_latency 4
core_0_stlb_fill_latency 4
core_0_stlb_max_tag_check 1
core_0_stlb_max_fill 1
core_0_l1i_set 64
core_0_l1i_way 8
core_0_l1i_rq_size 64
core_0_l1i_wq_size 64
core_0_l1i_pq_size 32
core_0_l1i_mshr_size 8
core_0_l1i_hit_latency 2
core_0_l1i_fill_latency 2
core_0_l1i_max_tag_check 2
core_0_l1i_max_fill 2
core_0_l1d_set 64
core_0_l1d_way 12
core_0_l1d_rq_size 64
core_0_l1d_wq_size 64
core_0_l1d_pq_size 8
core_0_l1d_mshr_size 16
core_0_l1d_hit_latency 2
core_0_l1d_fill_latency 3
core_0_l1d_max_tag_check 2
core_0_l1d_max_fill 2
core_0_l2c_set 1024
core_0_l2c_way 8
core_0_l2c_rq_size 32
core_0_l2c_wq_size 32
core_0_l2c_pq_size 16
core_0_l2c_mshr_size 32
core_0_l2c_hit_latency 5
core_0_l2c_fill_latency 5
core_0_l2c_max_tag_check 1
core_0_l2c_max_fill 1
llc_set 2048
llc_way 16
llc_rq_size 32
llc_wq_size 32
llc_pq_size 32
llc_mshr_size 64
llc_hit_latency 10
llc_fill_latency 10
llc_max_tag_check 1
llc_max_fill 1
dram_channels 1
dram_ranks 1
dram_bankgroups 8
dram_banks 4
dram_rows 65536
dram_columns 1024
dram_channel_width 8
dram_rq_size 64
dram_wq_size 64
dram_size 17179869184
core_0_itlb_prefetcher no
core_0_dtlb_prefetcher no
core_0_stlb_prefetcher no
core_0_l1i_prefetcher next_line
core_0_l1d_prefetcher berti
core_0_l2c_prefetcher ip_stride
llc_prefetcher no
llc_replacement drrip

Core_0_instructions 50000005
Core_0_cycles 52330049
Core_0_IPC 0.955474
Core_0_branch_prediction_accuracy 99.9984
Core_0_branch_MPKI 0.00054
Core_0_average_ROB_occupancy_at_mispredict 267.556

Core_0_ITLB_total_access 6744349
Core_0_ITLB_total_hit 6744241
Core_0_ITLB_total_miss 108
Core_0_ITLB_total_MPKI 0.00216
Core_0_ITLB_total_miss_rate 1.60134e-05
Core_0_ITLB_demand_access 6744349
Core_0_ITLB_demand_hit 6744241
Core_0_ITLB_demand_miss 108
Core_0_ITLB_demand_MPKI 0.00216
Core_0_ITLB_demand_miss_rate 1.60134e-05
Core_0_ITLB_load_access 6744349
Core_0_ITLB_load_hit 6744241
Core_0_ITLB_load_miss 108
Core_0_ITLB_load_MPKI 0.00216
Core_0_ITLB_load_miss_rate 1.60134e-05
Core_0_ITLB_rfo_access 0
Core_0_ITLB_rfo_hit 0
Core_0_ITLB_rfo_miss 0
Core_0_ITLB_rfo_MPKI 0
Core_0_ITLB_rfo_miss_rate 0
Core_0_ITLB_prefetch_access 0
Core_0_ITLB_prefetch_hit 0
Core_0_ITLB_prefetch_miss 0
Core_0_ITLB_prefetch_MPKI 0
Core_0_ITLB_prefetch_miss_rate 0
Core_0_ITLB_writeback_access 0
Core_0_ITLB_writeback_hit 0
Core_0_ITLB_writeback_miss 0
Core_0_ITLB_writeback_MPKI 0
Core_0_ITLB_writeback_miss_rate 0
Core_0_ITLB_prefetch_requested 0
Core_0_ITLB_prefetch_issued 0
Core_0_ITLB_prefetch_useful 0
Core_0_ITLB_prefetch_useless 0
Core_0_ITLB_prefetch_late 0
Core_0_ITLB_prefetch_accuracy 0
Core_0_ITLB_prefetch_coverage 0
Core_0_ITLB_total_eviction 0

Core_0_DTLB_total_access 9067028
Core_0_DTLB_total_hit 8327785
Core_0_DTLB_total_miss 739243
Core_0_DTLB_total_MPKI 14.7849
Core_0_DTLB_total_miss_rate 0.0815309
Core_0_DTLB_demand_access 9067028
Core_0_DTLB_demand_hit 8327785
Core_0_DTLB_demand_miss 739243
Core_0_DTLB_demand_MPKI 14.7849
Core_0_DTLB_demand_miss_rate 0.0815309
Core_0_DTLB_load_access 9067028
Core_0_DTLB_load_hit 8327785
Core_0_DTLB_load_miss 739243
Core_0_DTLB_load_MPKI 14.7849
Core_0_DTLB_load_miss_rate 0.0815309
Core_0_DTLB_rfo_access 0
Core_0_DTLB_rfo_hit 0
Core_0_DTLB_rfo_miss 0
Core_0_DTLB_rfo_MPKI 0
Core_0_DTLB_rfo_miss_rate 0
Core_0_DTLB_prefetch_access 0
Core_0_DTLB_prefetch_hit 0
Core_0_DTLB_prefetch_miss 0
Core_0_DTLB_prefetch_MPKI 0
Core_0_DTLB_prefetch_miss_rate 0
Core_0_DTLB_writeback_access 0
Core_0_DTLB_writeback_hit 0
Core_0_DTLB_writeback_miss 0
Core_0_DTLB_writeback_MPKI 0
Core_0_DTLB_writeback_miss_rate 0
Core_0_DTLB_prefetch_requested 0
Core_0_DTLB_prefetch_issued 0
Core_0_DTLB_prefetch_useful 0
Core_0_DTLB_prefetch_useless 0
Core_0_DTLB_prefetch_late 0
Core_0_DTLB_prefetch_accuracy 0
Core_0_DTLB_prefetch_coverage 0
Core_0_DTLB_total_eviction 0

Core_0_STLB_total_access 368733
Core_0_STLB_total_hit 356548
Core_0_STLB_total_miss 12185
Core_0_STLB_total_MPKI 0.2437
Core_0_STLB_total_miss_rate 0.0330456
Core_0_STLB_demand_access 368733
Core_0_STLB_demand_hit 356548
Core_0_STLB_demand_miss 12185
Core_0_STLB_demand_MPKI 0.2437
Core_0_STLB_demand_miss_rate 0.0330456
Core_0_STLB_load_access 368733
Core_0_STLB_load_hit 356548
Core_0_STLB_load_miss 12185
Core_0_STLB_load_MPKI 0.2437
Core_0_STLB_load_miss_rate 0.0330456
Core_0_STLB_rfo_access 0
Core_0_STLB_rfo_hit 0
Core_0_STLB_rfo_miss 0
Core_0_STLB_rfo_MPKI 0
Core_0_STLB_rfo_miss_rate 0
Core_0_STLB_prefetch_access 0
Core_0_STLB_prefetch_hit 0
Core_0_STLB_prefetch_miss 0
Core_0_STLB_prefetch_MPKI 0
Core_0_STLB_prefetch_miss_rate 0
Core_0_STLB_writeback_access 0
Core_0_STLB_writeback_hit 0
Core_0_STLB_writeback_miss 0
Core_0_STLB_writeback_MPKI 0
Core_0_STLB_writeback_miss_rate 0
Core_0_STLB_prefetch_requested 0
Core_0_STLB_prefetch_issued 0
Core_0_STLB_prefetch_useful 0
Core_0_STLB_prefetch_useless 0
Core_0_STLB_prefetch_late 0
Core_0_STLB_prefetch_accuracy 0
Core_0_STLB_prefetch_coverage 0
Core_0_STLB_total_eviction 0

Core_0_L1I_total_access 7386489
Core_0_L1I_total_hit 7386449
Core_0_L1I_total_miss 40
Core_0_L1I_total_MPKI 0.0008
Core_0_L1I_total_miss_rate 5.41529e-06
Core_0_L1I_demand_access 7386489
Core_0_L1I_demand_hit 7386449
Core_0_L1I_demand_miss 40
Core_0_L1I_demand_MPKI 0.0008
Core_0_L1I_demand_miss_rate 5.41529e-06
Core_0_L1I_load_access 7386489
Core_0_L1I_load_hit 7386449
Core_0_L1I_load_miss 40
Core_0_L1I_load_MPKI 0.0008
Core_0_L1I_load_miss_rate 5.41529e-06
Core_0_L1I_rfo_access 0
Core_0_L1I_rfo_hit 0
Core_0_L1I_rfo_miss 0
Core_0_L1I_rfo_MPKI 0
Core_0_L1I_rfo_miss_rate 0
Core_0_L1I_prefetch_access 0
Core_0_L1I_prefetch_hit 0
Core_0_L1I_prefetch_miss 0
Core_0_L1I_prefetch_MPKI 0
Core_0_L1I_prefetch_miss_rate 0
Core_0_L1I_writeback_access 0
Core_0_L1I_writeback_hit 0
Core_0_L1I_writeback_miss 0
Core_0_L1I_writeback_MPKI 0
Core_0_L1I_writeback_miss_rate 0
Core_0_L1I_prefetch_requested 0
Core_0_L1I_prefetch_issued 0
Core_0_L1I_prefetch_useful 0
Core_0_L1I_prefetch_useless 0
Core_0_L1I_prefetch_late 0
Core_0_L1I_prefetch_accuracy 0
Core_0_L1I_prefetch_coverage 0
Core_0_L1I_total_eviction 0

Core_0_L1D_total_access 9966718
Core_0_L1D_total_hit 5500760
Core_0_L1D_total_miss 4465958
Core_0_L1D_total_MPKI 89.3192
Core_0_L1D_total_miss_rate 0.448087
Core_0_L1D_demand_access 4832415
Core_0_L1D_demand_hit 3180746
Core_0_L1D_demand_miss 1651669
Core_0_L1D_demand_MPKI 33.0334
Core_0_L1D_demand_miss_rate 0.34179
Core_0_L1D_load_access 4832415
Core_0_L1D_load_hit 3180746
Core_0_L1D_load_miss 1651669
Core_0_L1D_load_MPKI 33.0334
Core_0_L1D_load_miss_rate 0.34179
Core_0_L1D_rfo_access 0
Core_0_L1D_rfo_hit 0
Core_0_L1D_rfo_miss 0
Core_0_L1D_rfo_MPKI 0
Core_0_L1D_rfo_miss_rate 0
Core_0_L1D_prefetch_access 1107684
Core_0_L1D_prefetch_hit 81445
Core_0_L1D_prefetch_miss 1026239
Core_0_L1D_prefetch_MPKI 20.5248
Core_0_L1D_prefetch_miss_rate 0.926473
Core_0_L1D_writeback_access 4026619
Core_0_L1D_writeback_hit 2238569
Core_0_L1D_writeback_miss 1788050
Core_0_L1D_writeback_MPKI 35.761
Core_0_L1D_writeback_miss_rate 0.444057
Core_0_L1D_prefetch_requested 1115920
Core_0_L1D_prefetch_issued 1107683
Core_0_L1D_prefetch_useful 922571
Core_0_L1D_prefetch_useless 51552
Core_0_L1D_prefetch_late 134682
Core_0_L1D_prefetch_accuracy 0.832884
Core_0_L1D_prefetch_coverage 0.358386
Core_0_L1D_total_eviction 0

Core_0_L2C_total_access 3121857
Core_0_L2C_total_hit 951659
Core_0_L2C_total_miss 2170198
Core_0_L2C_total_MPKI 43.404
Core_0_L2C_total_miss_rate 0.695163
Core_0_L2C_demand_access 1099991
Core_0_L2C_demand_hit 456735
Core_0_L2C_demand_miss 643256
Core_0_L2C_demand_MPKI 12.8651
Core_0_L2C_demand_miss_rate 0.584783
Core_0_L2C_load_access 801111
Core_0_L2C_load_hit 455528
Core_0_L2C_load_miss 345583
Core_0_L2C_load_MPKI 6.91166
Core_0_L2C_load_miss_rate 0.43138
Core_0_L2C_rfo_access 298880
Core_0_L2C_rfo_hit 1207
Core_0_L2C_rfo_miss 297673
Core_0_L2C_rfo_MPKI 5.95346
Core_0_L2C_rfo_miss_rate 0.995962
Core_0_L2C_prefetch_access 1694196
Core_0_L2C_prefetch_hit 167262
Core_0_L2C_prefetch_miss 1526934
Core_0_L2C_prefetch_MPKI 30.5387
Core_0_L2C_prefetch_miss_rate 0.901274
Core_0_L2C_writeback_access 327670
Core_0_L2C_writeback_hit 327662
Core_0_L2C_writeback_miss 8
Core_0_L2C_writeback_MPKI 0.00016
Core_0_L2C_writeback_miss_rate 2.44148e-05
Core_0_L2C_prefetch_requested 720089
Core_0_L2C_prefetch_issued 720089
Core_0_L2C_prefetch_useful 140014
Core_0_L2C_prefetch_useless 180262
Core_0_L2C_prefetch_late 4246
Core_0_L2C_prefetch_accuracy 0.19444
Core_0_L2C_prefetch_coverage 0.178756
Core_0_L2C_total_eviction 0

Core_0_LLC_total_access 2034670
Core_0_LLC_total_hit 92833
Core_0_LLC_total_miss 1941837
Core_0_LLC_total_MPKI 38.8367
Core_0_LLC_total_miss_rate 0.954374
Core_0_LLC_demand_access 639009
Core_0_LLC_demand_hit 9698
Core_0_LLC_demand_miss 629311
Core_0_LLC_demand_MPKI 12.5862
Core_0_LLC_demand_miss_rate 0.984823
Core_0_LLC_load_access 341337
Core_0_LLC_load_hit 8650
Core_0_LLC_load_miss 332687
Core_0_LLC_load_MPKI 6.65374
Core_0_LLC_load_miss_rate 0.974658
Core_0_LLC_rfo_access 297672
Core_0_LLC_rfo_hit 1048
Core_0_LLC_rfo_miss 296624
Core_0_LLC_rfo_MPKI 5.93248
Core_0_LLC_rfo_miss_rate 0.996479
Core_0_LLC_prefetch_access 1074006
Core_0_LLC_prefetch_hit 27989
Core_0_LLC_prefetch_miss 1046017
Core_0_LLC_prefetch_MPKI 20.9203
Core_0_LLC_prefetch_miss_rate 0.97394
Core_0_LLC_writeback_access 321655
Core_0_LLC_writeback_hit 55146
Core_0_LLC_writeback_miss 266509
Core_0_LLC_writeback_MPKI 5.33018
Core_0_LLC_writeback_miss_rate 0.828555
Core_0_LLC_prefetch_requested 0
Core_0_LLC_prefetch_issued 0
Core_0_LLC_prefetch_useful 0
Core_0_LLC_prefetch_useless 0
Core_0_LLC_prefetch_late 0
Core_0_LLC_prefetch_accuracy 0
Core_0_LLC_prefetch_coverage 0
Core_0_LLC_total_eviction 0

[DRAM Statistics]
Channel_0_RQ_row_buffer_hit 197061
Channel_0_RQ_row_buffer_miss 1396369
Channel_0_WQ_row_buffer_hit 30197
Channel_0_WQ_row_buffer_miss 286841
Channel_0_WQ_full 7
Channel_0_dbus_congested 4596907
DRAM_total_RQ_row_buffer_hit 197061
DRAM_total_RQ_row_buffer_miss 1396369
DRAM_total_WQ_row_buffer_hit 30197
DRAM_total_WQ_row_buffer_miss 286841
DRAM_total_WQ_full 7
DRAM_total_dbus_congested 4596907
DRAM_avg_congested_cycle 5.44862

======STLB miss causes ========
Core_0_STLB_miss_cause_breakdown
Core_0_STLB_cause_Demand_Data_miss 9743
Core_0_STLB_cause_Demand_Data_miss_rate 0.0264229
Core_0_STLB_cause_Demand_Instruction_miss 0
Core_0_STLB_cause_Demand_Instruction_miss_rate 0
Core_0_STLB_cause_L1D_Prefetch_miss 2442
Core_0_STLB_cause_L1D_Prefetch_miss_rate 0.00662268
Core_0_STLB_cause_L1I_Prefetch_miss 0
Core_0_STLB_cause_L1I_Prefetch_miss_rate 0
Core_0_STLB_cause_Other_miss 0
Core_0_STLB_cause_Other_miss_rate 0
Core_0_STLB_Demand_miss 9743
Core_0_STLB_Demand_miss_rate 0.0264229
Core_0_STLB_L1D_Prefetch_miss 2442
Core_0_STLB_L1D_Prefetch_miss_rate 0.00662268
Core_0_STLB_Other_miss 0
Core_0_STLB_Other_miss_rate 0
