[VMEM] WARNING: physical memory size is smaller than virtual memory size.

*** ChampSim Multicore Out-of-Order Simulator ***
Warmup Instructions: 20000000
Simulation Instructions: 50000000
Number of CPUs: 1
Page size: 4096
STLB ideal mode: off
STLB ideal fill: off
Core 0: /data0/tzh/champsim_traces/Ligra/ligra_PageRank.com-lj.ungraph.gcc_6.3.0_O3.drop_21750M.length_250M.champsimtrace.xz
 L1D Berti prefetcher
Off-chip DRAM Size: 16 GiB Channels: 1 Width: 64-bit Data Rate: 3205 MT/s
Warmup halting CPU 0 at instruction 20000003 cycle 4934427 for remainder of phase
Warmup finished CPU 0 instructions: 20000003 cycles: 4934427 cumulative IPC: 4.053 (Simulation time: 00 hr 01 min 24 sec)
Warmup complete CPU 0 instructions: 20000003 cycles: 4934427 cumulative IPC: 4.053 (Simulation time: 00 hr 01 min 24 sec)
Simulation finished CPU 0 instructions: 50000003 cycles: 78325551 cumulative IPC: 0.6384 (Simulation time: 00 hr 10 min 10 sec)
Simulation complete CPU 0 instructions: 50000003 cycles: 78325551 cumulative IPC: 0.6384 (Simulation time: 00 hr 10 min 10 sec)

ChampSim completed all CPUs

=== Simulation ===
CPU 0 runs /data0/tzh/champsim_traces/Ligra/ligra_PageRank.com-lj.ungraph.gcc_6.3.0_O3.drop_21750M.length_250M.champsimtrace.xz

Region of Interest Statistics

CPU 0 cumulative IPC: 0.6384 instructions: 50000003 cycles: 78325551
CPU 0 Branch Prediction Accuracy: 96.45% MPKI: 3.954 Average ROB Occupancy at Mispredict: 233.1
Branch type MPKI
BRANCH_DIRECT_JUMP: 0
BRANCH_INDIRECT: 0
BRANCH_CONDITIONAL: 3.954
BRANCH_DIRECT_CALL: 0
BRANCH_INDIRECT_CALL: 0
BRANCH_RETURN: 0

cpu0->cpu0_STLB TOTAL        ACCESS:    4004382 HIT:    3999973 MISS:       4409 MSHR_MERGE:          0
cpu0->cpu0_STLB LOAD         ACCESS:    4004382 HIT:    3999973 MISS:       4409 MSHR_MERGE:          0
cpu0->cpu0_STLB RFO          ACCESS:          0 HIT:          0 MISS:          0 MSHR_MERGE:          0
cpu0->cpu0_STLB PREFETCH     ACCESS:          0 HIT:          0 MISS:          0 MSHR_MERGE:          0
cpu0->cpu0_STLB WRITE        ACCESS:          0 HIT:          0 MISS:          0 MSHR_MERGE:          0
cpu0->cpu0_STLB TRANSLATION  ACCESS:          0 HIT:          0 MISS:          0 MSHR_MERGE:          0
cpu0->cpu0_STLB PREFETCH REQUESTED:          0 ISSUED:          0 USEFUL:          0 USELESS:          0 LATE:          0
cpu0->cpu0_STLB AVERAGE MISS LATENCY: 279.9 cycles
cpu0->cpu0_L2C TOTAL        ACCESS:    4613754 HIT:    1080742 MISS:    3533012 MSHR_MERGE:      26161
cpu0->cpu0_L2C LOAD         ACCESS:    3890917 HIT:     839325 MISS:    3051592 MSHR_MERGE:       2709
cpu0->cpu0_L2C RFO          ACCESS:         18 HIT:         18 MISS:          0 MSHR_MERGE:          0
cpu0->cpu0_L2C PREFETCH     ACCESS:     693812 HIT:     213481 MISS:     480331 MSHR_MERGE:      23452
cpu0->cpu0_L2C WRITE        ACCESS:      24736 HIT:      24736 MISS:          0 MSHR_MERGE:          0
cpu0->cpu0_L2C TRANSLATION  ACCESS:       4271 HIT:       3182 MISS:       1089 MSHR_MERGE:          0
cpu0->cpu0_L2C PREFETCH REQUESTED:     243604 ISSUED:     243604 USEFUL:      94471 USELESS:      23287 LATE:       2709
cpu0->cpu0_L2C AVERAGE MISS LATENCY: 198.9 cycles
cpu0->cpu0_L1I TOTAL        ACCESS:    1778081 HIT:    1778081 MISS:          0 MSHR_MERGE:          0
cpu0->cpu0_L1I LOAD         ACCESS:    1778081 HIT:    1778081 MISS:          0 MSHR_MERGE:          0
cpu0->cpu0_L1I RFO          ACCESS:          0 HIT:          0 MISS:          0 MSHR_MERGE:          0
cpu0->cpu0_L1I PREFETCH     ACCESS:          0 HIT:          0 MISS:          0 MSHR_MERGE:          0
cpu0->cpu0_L1I WRITE        ACCESS:          0 HIT:          0 MISS:          0 MSHR_MERGE:          0
cpu0->cpu0_L1I TRANSLATION  ACCESS:          0 HIT:          0 MISS:          0 MSHR_MERGE:          0
cpu0->cpu0_L1I PREFETCH REQUESTED:          0 ISSUED:          0 USEFUL:          0 USELESS:          0 LATE:          0
cpu0->cpu0_L1I AVERAGE MISS LATENCY: - cycles
cpu0->cpu0_L1D TOTAL        ACCESS:   14779481 HIT:   10198394 MISS:    4581087 MSHR_MERGE:     235672
cpu0->cpu0_L1D LOAD         ACCESS:   11461372 HIT:    7349574 MISS:    4111798 MSHR_MERGE:     220881
cpu0->cpu0_L1D RFO          ACCESS:          0 HIT:          0 MISS:          0 MSHR_MERGE:          0
cpu0->cpu0_L1D PREFETCH     ACCESS:     862250 HIT:     397267 MISS:     464983 MSHR_MERGE:      14775
cpu0->cpu0_L1D WRITE        ACCESS:    2447033 HIT:    2446998 MISS:         35 MSHR_MERGE:         16
cpu0->cpu0_L1D TRANSLATION  ACCESS:       8826 HIT:       4555 MISS:       4271 MSHR_MERGE:          0
cpu0->cpu0_L1D PREFETCH REQUESTED:     879856 ISSUED:     862246 USEFUL:     187274 USELESS:     262974 LATE:      11224
cpu0->cpu0_L1D AVERAGE MISS LATENCY: 164.6 cycles
cpu0->cpu0_ITLB TOTAL        ACCESS:    1712434 HIT:    1712434 MISS:          0 MSHR_MERGE:          0
cpu0->cpu0_ITLB LOAD         ACCESS:    1712434 HIT:    1712434 MISS:          0 MSHR_MERGE:          0
cpu0->cpu0_ITLB RFO          ACCESS:          0 HIT:          0 MISS:          0 MSHR_MERGE:          0
cpu0->cpu0_ITLB PREFETCH     ACCESS:          0 HIT:          0 MISS:          0 MSHR_MERGE:          0
cpu0->cpu0_ITLB WRITE        ACCESS:          0 HIT:          0 MISS:          0 MSHR_MERGE:          0
cpu0->cpu0_ITLB TRANSLATION  ACCESS:          0 HIT:          0 MISS:          0 MSHR_MERGE:          0
cpu0->cpu0_ITLB PREFETCH REQUESTED:          0 ISSUED:          0 USEFUL:          0 USELESS:          0 LATE:          0
cpu0->cpu0_ITLB AVERAGE MISS LATENCY: - cycles
cpu0->cpu0_DTLB TOTAL        ACCESS:   14619625 HIT:   10377611 MISS:    4242014 MSHR_MERGE:     237632
cpu0->cpu0_DTLB LOAD         ACCESS:   14619625 HIT:   10377611 MISS:    4242014 MSHR_MERGE:     237632
cpu0->cpu0_DTLB RFO          ACCESS:          0 HIT:          0 MISS:          0 MSHR_MERGE:          0
cpu0->cpu0_DTLB PREFETCH     ACCESS:          0 HIT:          0 MISS:          0 MSHR_MERGE:          0
cpu0->cpu0_DTLB WRITE        ACCESS:          0 HIT:          0 MISS:          0 MSHR_MERGE:          0
cpu0->cpu0_DTLB TRANSLATION  ACCESS:          0 HIT:          0 MISS:          0 MSHR_MERGE:          0
cpu0->cpu0_DTLB PREFETCH REQUESTED:          0 ISSUED:          0 USEFUL:          0 USELESS:          0 LATE:          0
cpu0->cpu0_DTLB AVERAGE MISS LATENCY: 5.341 cycles
cpu0->LLC TOTAL        ACCESS:    3531556 HIT:     973016 MISS:    2558540 MSHR_MERGE:       2000
cpu0->LLC LOAD         ACCESS:    3048883 HIT:     889425 MISS:    2159458 MSHR_MERGE:        945
cpu0->LLC RFO          ACCESS:          0 HIT:          0 MISS:          0 MSHR_MERGE:          0
cpu0->LLC PREFETCH     ACCESS:     456879 HIT:      74784 MISS:     382095 MSHR_MERGE:       1055
cpu0->LLC WRITE        ACCESS:      24705 HIT:       8613 MISS:      16092 MSHR_MERGE:          0
cpu0->LLC TRANSLATION  ACCESS:       1089 HIT:        194 MISS:        895 MSHR_MERGE:          0
cpu0->LLC PREFETCH REQUESTED:          0 ISSUED:          0 USEFUL:          0 USELESS:          0 LATE:          0
cpu0->LLC AVERAGE MISS LATENCY: 256.8 cycles

DRAM Statistics

Channel 0 RQ ROW_BUFFER_HIT:       4226
  ROW_BUFFER_MISS:    2536220
  AVG DBUS CONGESTED CYCLE: 3.392
Channel 0 WQ ROW_BUFFER_HIT:       5456
  ROW_BUFFER_MISS:      17916
  FULL:          0
Channel 0 REFRESHES ISSUED:       6527

[ROI Statistics]
[System Configuration]
num_cpus 1
cpu_freq 4000
fetch_width 6
decode_width 6
dispatch_width 6
execute_width 6
lq_width 2
sq_width 2
retire_width 6
scheduler_size 128
branch_mispredict_penalty 15
rob_size 352
lq_size 128
sq_size 72
ifetch_buffer_size 64
decode_buffer_size 32
dispatch_buffer_size 32
register_file_size 288
decode_latency 1
dispatch_latency 1
schedule_latency 1
execute_latency 1
page_size 4096
block_size 64
core_0_itlb_set 16
core_0_itlb_way 4
core_0_itlb_rq_size 16
core_0_itlb_wq_size 16
core_0_itlb_pq_size 0
core_0_itlb_mshr_size 8
core_0_itlb_hit_latency 1
core_0_itlb_fill_latency 1
core_0_itlb_max_tag_check 2
core_0_itlb_max_fill 2
core_0_dtlb_set 16
core_0_dtlb_way 4
core_0_dtlb_rq_size 16
core_0_dtlb_wq_size 16
core_0_dtlb_pq_size 0
core_0_dtlb_mshr_size 8
core_0_dtlb_hit_latency 1
core_0_dtlb_fill_latency 1
core_0_dtlb_max_tag_check 2
core_0_dtlb_max_fill 2
core_0_stlb_set 262144
core_0_stlb_way 16
core_0_stlb_rq_size 32
core_0_stlb_wq_size 32
core_0_stlb_pq_size 0
core_0_stlb_mshr_size 16
core_0_stlb_hit_latency 4
core_0_stlb_fill_latency 4
core_0_stlb_max_tag_check 1
core_0_stlb_max_fill 1
core_0_l1i_set 64
core_0_l1i_way 8
core_0_l1i_rq_size 64
core_0_l1i_wq_size 64
core_0_l1i_pq_size 32
core_0_l1i_mshr_size 8
core_0_l1i_hit_latency 2
core_0_l1i_fill_latency 2
core_0_l1i_max_tag_check 2
core_0_l1i_max_fill 2
core_0_l1d_set 64
core_0_l1d_way 12
core_0_l1d_rq_size 64
core_0_l1d_wq_size 64
core_0_l1d_pq_size 8
core_0_l1d_mshr_size 16
core_0_l1d_hit_latency 2
core_0_l1d_fill_latency 3
core_0_l1d_max_tag_check 2
core_0_l1d_max_fill 2
core_0_l2c_set 1024
core_0_l2c_way 8
core_0_l2c_rq_size 32
core_0_l2c_wq_size 32
core_0_l2c_pq_size 16
core_0_l2c_mshr_size 32
core_0_l2c_hit_latency 5
core_0_l2c_fill_latency 5
core_0_l2c_max_tag_check 1
core_0_l2c_max_fill 1
llc_set 2048
llc_way 16
llc_rq_size 32
llc_wq_size 32
llc_pq_size 32
llc_mshr_size 64
llc_hit_latency 10
llc_fill_latency 10
llc_max_tag_check 1
llc_max_fill 1
dram_channels 1
dram_ranks 1
dram_bankgroups 8
dram_banks 4
dram_rows 65536
dram_columns 1024
dram_channel_width 8
dram_rq_size 64
dram_wq_size 64
dram_size 17179869184
core_0_itlb_prefetcher no
core_0_dtlb_prefetcher no
core_0_stlb_prefetcher no
core_0_l1i_prefetcher next_line
core_0_l1d_prefetcher berti
core_0_l2c_prefetcher ip_stride
llc_prefetcher no
llc_replacement drrip

Core_0_instructions 50000003
Core_0_cycles 78325551
Core_0_IPC 0.638361
Core_0_branch_prediction_accuracy 96.4475
Core_0_branch_MPKI 3.95398
Core_0_average_ROB_occupancy_at_mispredict 233.105

Core_0_ITLB_total_access 1712434
Core_0_ITLB_total_hit 1712434
Core_0_ITLB_total_miss 0
Core_0_ITLB_total_MPKI 0
Core_0_ITLB_total_miss_rate 0
Core_0_ITLB_demand_access 1712434
Core_0_ITLB_demand_hit 1712434
Core_0_ITLB_demand_miss 0
Core_0_ITLB_demand_MPKI 0
Core_0_ITLB_demand_miss_rate 0
Core_0_ITLB_load_access 1712434
Core_0_ITLB_load_hit 1712434
Core_0_ITLB_load_miss 0
Core_0_ITLB_load_MPKI 0
Core_0_ITLB_load_miss_rate 0
Core_0_ITLB_rfo_access 0
Core_0_ITLB_rfo_hit 0
Core_0_ITLB_rfo_miss 0
Core_0_ITLB_rfo_MPKI 0
Core_0_ITLB_rfo_miss_rate 0
Core_0_ITLB_prefetch_access 0
Core_0_ITLB_prefetch_hit 0
Core_0_ITLB_prefetch_miss 0
Core_0_ITLB_prefetch_MPKI 0
Core_0_ITLB_prefetch_miss_rate 0
Core_0_ITLB_writeback_access 0
Core_0_ITLB_writeback_hit 0
Core_0_ITLB_writeback_miss 0
Core_0_ITLB_writeback_MPKI 0
Core_0_ITLB_writeback_miss_rate 0
Core_0_ITLB_prefetch_requested 0
Core_0_ITLB_prefetch_issued 0
Core_0_ITLB_prefetch_useful 0
Core_0_ITLB_prefetch_useless 0
Core_0_ITLB_prefetch_late 0
Core_0_ITLB_prefetch_accuracy 0
Core_0_ITLB_prefetch_coverage 0
Core_0_ITLB_total_eviction 0

Core_0_DTLB_total_access 14619625
Core_0_DTLB_total_hit 10377611
Core_0_DTLB_total_miss 4242014
Core_0_DTLB_total_MPKI 84.8403
Core_0_DTLB_total_miss_rate 0.290159
Core_0_DTLB_demand_access 14619625
Core_0_DTLB_demand_hit 10377611
Core_0_DTLB_demand_miss 4242014
Core_0_DTLB_demand_MPKI 84.8403
Core_0_DTLB_demand_miss_rate 0.290159
Core_0_DTLB_load_access 14619625
Core_0_DTLB_load_hit 10377611
Core_0_DTLB_load_miss 4242014
Core_0_DTLB_load_MPKI 84.8403
Core_0_DTLB_load_miss_rate 0.290159
Core_0_DTLB_rfo_access 0
Core_0_DTLB_rfo_hit 0
Core_0_DTLB_rfo_miss 0
Core_0_DTLB_rfo_MPKI 0
Core_0_DTLB_rfo_miss_rate 0
Core_0_DTLB_prefetch_access 0
Core_0_DTLB_prefetch_hit 0
Core_0_DTLB_prefetch_miss 0
Core_0_DTLB_prefetch_MPKI 0
Core_0_DTLB_prefetch_miss_rate 0
Core_0_DTLB_writeback_access 0
Core_0_DTLB_writeback_hit 0
Core_0_DTLB_writeback_miss 0
Core_0_DTLB_writeback_MPKI 0
Core_0_DTLB_writeback_miss_rate 0
Core_0_DTLB_prefetch_requested 0
Core_0_DTLB_prefetch_issued 0
Core_0_DTLB_prefetch_useful 0
Core_0_DTLB_prefetch_useless 0
Core_0_DTLB_prefetch_late 0
Core_0_DTLB_prefetch_accuracy 0
Core_0_DTLB_prefetch_coverage 0
Core_0_DTLB_total_eviction 0

Core_0_STLB_total_access 4004382
Core_0_STLB_total_hit 3999973
Core_0_STLB_total_miss 4409
Core_0_STLB_total_MPKI 0.08818
Core_0_STLB_total_miss_rate 0.00110104
Core_0_STLB_demand_access 4004382
Core_0_STLB_demand_hit 3999973
Core_0_STLB_demand_miss 4409
Core_0_STLB_demand_MPKI 0.08818
Core_0_STLB_demand_miss_rate 0.00110104
Core_0_STLB_load_access 4004382
Core_0_STLB_load_hit 3999973
Core_0_STLB_load_miss 4409
Core_0_STLB_load_MPKI 0.08818
Core_0_STLB_load_miss_rate 0.00110104
Core_0_STLB_rfo_access 0
Core_0_STLB_rfo_hit 0
Core_0_STLB_rfo_miss 0
Core_0_STLB_rfo_MPKI 0
Core_0_STLB_rfo_miss_rate 0
Core_0_STLB_prefetch_access 0
Core_0_STLB_prefetch_hit 0
Core_0_STLB_prefetch_miss 0
Core_0_STLB_prefetch_MPKI 0
Core_0_STLB_prefetch_miss_rate 0
Core_0_STLB_writeback_access 0
Core_0_STLB_writeback_hit 0
Core_0_STLB_writeback_miss 0
Core_0_STLB_writeback_MPKI 0
Core_0_STLB_writeback_miss_rate 0
Core_0_STLB_prefetch_requested 0
Core_0_STLB_prefetch_issued 0
Core_0_STLB_prefetch_useful 0
Core_0_STLB_prefetch_useless 0
Core_0_STLB_prefetch_late 0
Core_0_STLB_prefetch_accuracy 0
Core_0_STLB_prefetch_coverage 0
Core_0_STLB_total_eviction 0

Core_0_L1I_total_access 1778081
Core_0_L1I_total_hit 1778081
Core_0_L1I_total_miss 0
Core_0_L1I_total_MPKI 0
Core_0_L1I_total_miss_rate 0
Core_0_L1I_demand_access 1778081
Core_0_L1I_demand_hit 1778081
Core_0_L1I_demand_miss 0
Core_0_L1I_demand_MPKI 0
Core_0_L1I_demand_miss_rate 0
Core_0_L1I_load_access 1778081
Core_0_L1I_load_hit 1778081
Core_0_L1I_load_miss 0
Core_0_L1I_load_MPKI 0
Core_0_L1I_load_miss_rate 0
Core_0_L1I_rfo_access 0
Core_0_L1I_rfo_hit 0
Core_0_L1I_rfo_miss 0
Core_0_L1I_rfo_MPKI 0
Core_0_L1I_rfo_miss_rate 0
Core_0_L1I_prefetch_access 0
Core_0_L1I_prefetch_hit 0
Core_0_L1I_prefetch_miss 0
Core_0_L1I_prefetch_MPKI 0
Core_0_L1I_prefetch_miss_rate 0
Core_0_L1I_writeback_access 0
Core_0_L1I_writeback_hit 0
Core_0_L1I_writeback_miss 0
Core_0_L1I_writeback_MPKI 0
Core_0_L1I_writeback_miss_rate 0
Core_0_L1I_prefetch_requested 0
Core_0_L1I_prefetch_issued 0
Core_0_L1I_prefetch_useful 0
Core_0_L1I_prefetch_useless 0
Core_0_L1I_prefetch_late 0
Core_0_L1I_prefetch_accuracy 0
Core_0_L1I_prefetch_coverage 0
Core_0_L1I_total_eviction 0

Core_0_L1D_total_access 14770655
Core_0_L1D_total_hit 10193839
Core_0_L1D_total_miss 4576816
Core_0_L1D_total_MPKI 91.5363
Core_0_L1D_total_miss_rate 0.309859
Core_0_L1D_demand_access 11461372
Core_0_L1D_demand_hit 7349574
Core_0_L1D_demand_miss 4111798
Core_0_L1D_demand_MPKI 82.236
Core_0_L1D_demand_miss_rate 0.358753
Core_0_L1D_load_access 11461372
Core_0_L1D_load_hit 7349574
Core_0_L1D_load_miss 4111798
Core_0_L1D_load_MPKI 82.236
Core_0_L1D_load_miss_rate 0.358753
Core_0_L1D_rfo_access 0
Core_0_L1D_rfo_hit 0
Core_0_L1D_rfo_miss 0
Core_0_L1D_rfo_MPKI 0
Core_0_L1D_rfo_miss_rate 0
Core_0_L1D_prefetch_access 862250
Core_0_L1D_prefetch_hit 397267
Core_0_L1D_prefetch_miss 464983
Core_0_L1D_prefetch_MPKI 9.29966
Core_0_L1D_prefetch_miss_rate 0.539267
Core_0_L1D_writeback_access 2447033
Core_0_L1D_writeback_hit 2446998
Core_0_L1D_writeback_miss 35
Core_0_L1D_writeback_MPKI 0.0007
Core_0_L1D_writeback_miss_rate 1.4303e-05
Core_0_L1D_prefetch_requested 879856
Core_0_L1D_prefetch_issued 862246
Core_0_L1D_prefetch_useful 187274
Core_0_L1D_prefetch_useless 262974
Core_0_L1D_prefetch_late 11224
Core_0_L1D_prefetch_accuracy 0.217193
Core_0_L1D_prefetch_coverage 0.0435615
Core_0_L1D_total_eviction 0

Core_0_L2C_total_access 4609483
Core_0_L2C_total_hit 1077560
Core_0_L2C_total_miss 3531923
Core_0_L2C_total_MPKI 70.6385
Core_0_L2C_total_miss_rate 0.76623
Core_0_L2C_demand_access 3890935
Core_0_L2C_demand_hit 839343
Core_0_L2C_demand_miss 3051592
Core_0_L2C_demand_MPKI 61.0318
Core_0_L2C_demand_miss_rate 0.784282
Core_0_L2C_load_access 3890917
Core_0_L2C_load_hit 839325
Core_0_L2C_load_miss 3051592
Core_0_L2C_load_MPKI 61.0318
Core_0_L2C_load_miss_rate 0.784286
Core_0_L2C_rfo_access 18
Core_0_L2C_rfo_hit 18
Core_0_L2C_rfo_miss 0
Core_0_L2C_rfo_MPKI 0
Core_0_L2C_rfo_miss_rate 0
Core_0_L2C_prefetch_access 693812
Core_0_L2C_prefetch_hit 213481
Core_0_L2C_prefetch_miss 480331
Core_0_L2C_prefetch_MPKI 9.60662
Core_0_L2C_prefetch_miss_rate 0.692307
Core_0_L2C_writeback_access 24736
Core_0_L2C_writeback_hit 24736
Core_0_L2C_writeback_miss 0
Core_0_L2C_writeback_MPKI 0
Core_0_L2C_writeback_miss_rate 0
Core_0_L2C_prefetch_requested 243604
Core_0_L2C_prefetch_issued 243604
Core_0_L2C_prefetch_useful 94471
Core_0_L2C_prefetch_useless 23287
Core_0_L2C_prefetch_late 2709
Core_0_L2C_prefetch_accuracy 0.387806
Core_0_L2C_prefetch_coverage 0.0300283
Core_0_L2C_total_eviction 0

Core_0_LLC_total_access 3530467
Core_0_LLC_total_hit 972822
Core_0_LLC_total_miss 2557645
Core_0_LLC_total_MPKI 51.1529
Core_0_LLC_total_miss_rate 0.724449
Core_0_LLC_demand_access 3048883
Core_0_LLC_demand_hit 889425
Core_0_LLC_demand_miss 2159458
Core_0_LLC_demand_MPKI 43.1892
Core_0_LLC_demand_miss_rate 0.708278
Core_0_LLC_load_access 3048883
Core_0_LLC_load_hit 889425
Core_0_LLC_load_miss 2159458
Core_0_LLC_load_MPKI 43.1892
Core_0_LLC_load_miss_rate 0.708278
Core_0_LLC_rfo_access 0
Core_0_LLC_rfo_hit 0
Core_0_LLC_rfo_miss 0
Core_0_LLC_rfo_MPKI 0
Core_0_LLC_rfo_miss_rate 0
Core_0_LLC_prefetch_access 456879
Core_0_LLC_prefetch_hit 74784
Core_0_LLC_prefetch_miss 382095
Core_0_LLC_prefetch_MPKI 7.6419
Core_0_LLC_prefetch_miss_rate 0.836316
Core_0_LLC_writeback_access 24705
Core_0_LLC_writeback_hit 8613
Core_0_LLC_writeback_miss 16092
Core_0_LLC_writeback_MPKI 0.32184
Core_0_LLC_writeback_miss_rate 0.651366
Core_0_LLC_prefetch_requested 0
Core_0_LLC_prefetch_issued 0
Core_0_LLC_prefetch_useful 0
Core_0_LLC_prefetch_useless 0
Core_0_LLC_prefetch_late 0
Core_0_LLC_prefetch_accuracy 0
Core_0_LLC_prefetch_coverage 0
Core_0_LLC_total_eviction 0

[DRAM Statistics]
Channel_0_RQ_row_buffer_hit 4226
Channel_0_RQ_row_buffer_miss 2536220
Channel_0_WQ_row_buffer_hit 5456
Channel_0_WQ_row_buffer_miss 17916
Channel_0_WQ_full 0
Channel_0_dbus_congested 4359012
DRAM_total_RQ_row_buffer_hit 4226
DRAM_total_RQ_row_buffer_miss 2536220
DRAM_total_WQ_row_buffer_hit 5456
DRAM_total_WQ_row_buffer_miss 17916
DRAM_total_WQ_full 0
DRAM_total_dbus_congested 4359012
DRAM_avg_congested_cycle 3.3918

======STLB miss causes ========
Core_0_STLB_miss_cause_breakdown
Core_0_STLB_cause_Demand_Data_miss 1989
Core_0_STLB_cause_Demand_Data_miss_rate 0.000496706
Core_0_STLB_cause_Demand_Instruction_miss 0
Core_0_STLB_cause_Demand_Instruction_miss_rate 0
Core_0_STLB_cause_L1D_Prefetch_miss 2420
Core_0_STLB_cause_L1D_Prefetch_miss_rate 0.000604338
Core_0_STLB_cause_L1I_Prefetch_miss 0
Core_0_STLB_cause_L1I_Prefetch_miss_rate 0
Core_0_STLB_cause_Other_miss 0
Core_0_STLB_cause_Other_miss_rate 0
Core_0_STLB_Demand_miss 1989
Core_0_STLB_Demand_miss_rate 0.000496706
Core_0_STLB_L1D_Prefetch_miss 2420
Core_0_STLB_L1D_Prefetch_miss_rate 0.000604338
Core_0_STLB_Other_miss 0
Core_0_STLB_Other_miss_rate 0
