[VMEM] WARNING: physical memory size is smaller than virtual memory size.

*** ChampSim Multicore Out-of-Order Simulator ***
Warmup Instructions: 20000000
Simulation Instructions: 50000000
Number of CPUs: 1
Page size: 4096
STLB ideal mode: off
STLB ideal fill: off
Core 0: /data0/tzh/champsim_traces/QMM/srv_63_new.xz
 L1D Berti prefetcher
Off-chip DRAM Size: 16 GiB Channels: 1 Width: 64-bit Data Rate: 3205 MT/s
[BTB] WARNING: target of return is a lower address than the corresponding call. This is usually a problem with your trace.
[BTB] WARNING: target of return is a lower address than the corresponding call. This is usually a problem with your trace.
[BTB] WARNING: target of return is a lower address than the corresponding call. This is usually a problem with your trace.
[BTB] WARNING: target of return is a lower address than the corresponding call. This is usually a problem with your trace.
[BTB] WARNING: target of return is a lower address than the corresponding call. This is usually a problem with your trace.
[BTB] WARNING: target of return is a lower address than the corresponding call. This is usually a problem with your trace.
[BTB] WARNING: target of return is a lower address than the corresponding call. This is usually a problem with your trace.
[BTB] WARNING: target of return is a lower address than the corresponding call. This is usually a problem with your trace.
[BTB] WARNING: target of return is a lower address than the corresponding call. This is usually a problem with your trace.
[BTB] WARNING: target of return is a lower address than the corresponding call. This is usually a problem with your trace.
Warmup halting CPU 0 at instruction 20000001 cycle 4437881 for remainder of phase
Warmup finished CPU 0 instructions: 20000001 cycles: 4437881 cumulative IPC: 4.507 (Simulation time: 00 hr 01 min 02 sec)
Warmup complete CPU 0 instructions: 20000001 cycles: 4437881 cumulative IPC: 4.507 (Simulation time: 00 hr 01 min 02 sec)
*** Reached end of trace: (0, "/data0/tzh/champsim_traces/QMM/srv_63_new.xz")
*** Reached end of trace: (0, "/data0/tzh/champsim_traces/QMM/srv_63_new.xz")
Simulation finished CPU 0 instructions: 50000001 cycles: 26214201 cumulative IPC: 1.907 (Simulation time: 00 hr 05 min 20 sec)
Simulation complete CPU 0 instructions: 50000001 cycles: 26214201 cumulative IPC: 1.907 (Simulation time: 00 hr 05 min 20 sec)

ChampSim completed all CPUs

=== Simulation ===
CPU 0 runs /data0/tzh/champsim_traces/QMM/srv_63_new.xz

Region of Interest Statistics

CPU 0 cumulative IPC: 1.907 instructions: 50000001 cycles: 26214201
CPU 0 Branch Prediction Accuracy: 98.29% MPKI: 3.07 Average ROB Occupancy at Mispredict: 105.3
Branch type MPKI
BRANCH_DIRECT_JUMP: 0.2107
BRANCH_INDIRECT: 0.1796
BRANCH_CONDITIONAL: 1.847
BRANCH_DIRECT_CALL: 0.3949
BRANCH_INDIRECT_CALL: 0.09022
BRANCH_RETURN: 0.3479

cpu0->cpu0_STLB TOTAL        ACCESS:     841183 HIT:     839863 MISS:       1320 MSHR_MERGE:          0
cpu0->cpu0_STLB LOAD         ACCESS:     841183 HIT:     839863 MISS:       1320 MSHR_MERGE:          0
cpu0->cpu0_STLB RFO          ACCESS:          0 HIT:          0 MISS:          0 MSHR_MERGE:          0
cpu0->cpu0_STLB PREFETCH     ACCESS:          0 HIT:          0 MISS:          0 MSHR_MERGE:          0
cpu0->cpu0_STLB WRITE        ACCESS:          0 HIT:          0 MISS:          0 MSHR_MERGE:          0
cpu0->cpu0_STLB TRANSLATION  ACCESS:          0 HIT:          0 MISS:          0 MSHR_MERGE:          0
cpu0->cpu0_STLB PREFETCH REQUESTED:          0 ISSUED:          0 USEFUL:          0 USELESS:          0 LATE:          0
cpu0->cpu0_STLB AVERAGE MISS LATENCY: 399 cycles
cpu0->cpu0_L2C TOTAL        ACCESS:    2385291 HIT:    1442000 MISS:     943291 MSHR_MERGE:      13961
cpu0->cpu0_L2C LOAD         ACCESS:    1758394 HIT:    1031473 MISS:     726921 MSHR_MERGE:        126
cpu0->cpu0_L2C RFO          ACCESS:      75659 HIT:      37787 MISS:      37872 MSHR_MERGE:         29
cpu0->cpu0_L2C PREFETCH     ACCESS:     283440 HIT:     108223 MISS:     175217 MSHR_MERGE:      13806
cpu0->cpu0_L2C WRITE        ACCESS:     266067 HIT:     264439 MISS:       1628 MSHR_MERGE:          0
cpu0->cpu0_L2C TRANSLATION  ACCESS:       1731 HIT:         78 MISS:       1653 MSHR_MERGE:          0
cpu0->cpu0_L2C PREFETCH REQUESTED:      45859 ISSUED:      45696 USEFUL:      15884 USELESS:       6334 LATE:        155
cpu0->cpu0_L2C AVERAGE MISS LATENCY: 26.18 cycles
cpu0->cpu0_L1I TOTAL        ACCESS:    7842464 HIT:    5757888 MISS:    2084576 MSHR_MERGE:     797173
cpu0->cpu0_L1I LOAD         ACCESS:    7842464 HIT:    5757888 MISS:    2084576 MSHR_MERGE:     797173
cpu0->cpu0_L1I RFO          ACCESS:          0 HIT:          0 MISS:          0 MSHR_MERGE:          0
cpu0->cpu0_L1I PREFETCH     ACCESS:          0 HIT:          0 MISS:          0 MSHR_MERGE:          0
cpu0->cpu0_L1I WRITE        ACCESS:          0 HIT:          0 MISS:          0 MSHR_MERGE:          0
cpu0->cpu0_L1I TRANSLATION  ACCESS:          0 HIT:          0 MISS:          0 MSHR_MERGE:          0
cpu0->cpu0_L1I PREFETCH REQUESTED:          0 ISSUED:          0 USEFUL:          0 USELESS:          0 LATE:          0
cpu0->cpu0_L1I AVERAGE MISS LATENCY: 14.3 cycles
cpu0->cpu0_L1D TOTAL        ACCESS:   11873192 HIT:   10790914 MISS:    1082278 MSHR_MERGE:     296136
cpu0->cpu0_L1D LOAD         ACCESS:    6494397 HIT:    5862303 MISS:     632094 MSHR_MERGE:     161096
cpu0->cpu0_L1D RFO          ACCESS:          0 HIT:          0 MISS:          0 MSHR_MERGE:          0
cpu0->cpu0_L1D PREFETCH     ACCESS:     408981 HIT:     156103 MISS:     252878 MSHR_MERGE:      15131
cpu0->cpu0_L1D WRITE        ACCESS:    4966421 HIT:    4770846 MISS:     195575 MSHR_MERGE:     119909
cpu0->cpu0_L1D TRANSLATION  ACCESS:       3393 HIT:       1662 MISS:       1731 MSHR_MERGE:          0
cpu0->cpu0_L1D PREFETCH REQUESTED:     411102 ISSUED:     408981 USEFUL:      97565 USELESS:     140149 LATE:       9038
cpu0->cpu0_L1D AVERAGE MISS LATENCY: 30.18 cycles
cpu0->cpu0_ITLB TOTAL        ACCESS:    6651194 HIT:    6194108 MISS:     457086 MSHR_MERGE:     270849
cpu0->cpu0_ITLB LOAD         ACCESS:    6651194 HIT:    6194108 MISS:     457086 MSHR_MERGE:     270849
cpu0->cpu0_ITLB RFO          ACCESS:          0 HIT:          0 MISS:          0 MSHR_MERGE:          0
cpu0->cpu0_ITLB PREFETCH     ACCESS:          0 HIT:          0 MISS:          0 MSHR_MERGE:          0
cpu0->cpu0_ITLB WRITE        ACCESS:          0 HIT:          0 MISS:          0 MSHR_MERGE:          0
cpu0->cpu0_ITLB TRANSLATION  ACCESS:          0 HIT:          0 MISS:          0 MSHR_MERGE:          0
cpu0->cpu0_ITLB PREFETCH REQUESTED:          0 ISSUED:          0 USEFUL:          0 USELESS:          0 LATE:          0
cpu0->cpu0_ITLB AVERAGE MISS LATENCY: 5.045 cycles
cpu0->cpu0_DTLB TOTAL        ACCESS:   11109170 HIT:   10248859 MISS:     860311 MSHR_MERGE:     205365
cpu0->cpu0_DTLB LOAD         ACCESS:   11109170 HIT:   10248859 MISS:     860311 MSHR_MERGE:     205365
cpu0->cpu0_DTLB RFO          ACCESS:          0 HIT:          0 MISS:          0 MSHR_MERGE:          0
cpu0->cpu0_DTLB PREFETCH     ACCESS:          0 HIT:          0 MISS:          0 MSHR_MERGE:          0
cpu0->cpu0_DTLB WRITE        ACCESS:          0 HIT:          0 MISS:          0 MSHR_MERGE:          0
cpu0->cpu0_DTLB TRANSLATION  ACCESS:          0 HIT:          0 MISS:          0 MSHR_MERGE:          0
cpu0->cpu0_DTLB PREFETCH REQUESTED:          0 ISSUED:          0 USEFUL:          0 USELESS:          0 LATE:          0
cpu0->cpu0_DTLB AVERAGE MISS LATENCY: 5.811 cycles
cpu0->LLC TOTAL        ACCESS:    1071076 HIT:     961404 MISS:     109672 MSHR_MERGE:         17
cpu0->LLC LOAD         ACCESS:     726795 HIT:     693096 MISS:      33699 MSHR_MERGE:          0
cpu0->LLC RFO          ACCESS:      37843 HIT:      29213 MISS:       8630 MSHR_MERGE:          0
cpu0->LLC PREFETCH     ACCESS:     161411 HIT:      97988 MISS:      63423 MSHR_MERGE:         17
cpu0->LLC WRITE        ACCESS:     143374 HIT:     140466 MISS:       2908 MSHR_MERGE:          0
cpu0->LLC TRANSLATION  ACCESS:       1653 HIT:        641 MISS:       1012 MSHR_MERGE:          0
cpu0->LLC PREFETCH REQUESTED:          0 ISSUED:          0 USEFUL:          0 USELESS:          0 LATE:          0
cpu0->LLC AVERAGE MISS LATENCY: 185.3 cycles

DRAM Statistics

Channel 0 RQ ROW_BUFFER_HIT:       3849
  ROW_BUFFER_MISS:     102888
  AVG DBUS CONGESTED CYCLE: 14.64
Channel 0 WQ ROW_BUFFER_HIT:      12184
  ROW_BUFFER_MISS:      44307
  FULL:          0
Channel 0 REFRESHES ISSUED:       2185

[ROI Statistics]
[System Configuration]
num_cpus 1
cpu_freq 4000
fetch_width 6
decode_width 6
dispatch_width 6
execute_width 6
lq_width 2
sq_width 2
retire_width 6
scheduler_size 128
branch_mispredict_penalty 15
rob_size 352
lq_size 128
sq_size 72
ifetch_buffer_size 64
decode_buffer_size 32
dispatch_buffer_size 32
register_file_size 288
decode_latency 1
dispatch_latency 1
schedule_latency 1
execute_latency 1
page_size 4096
block_size 64
core_0_itlb_set 16
core_0_itlb_way 4
core_0_itlb_rq_size 16
core_0_itlb_wq_size 16
core_0_itlb_pq_size 0
core_0_itlb_mshr_size 8
core_0_itlb_hit_latency 1
core_0_itlb_fill_latency 1
core_0_itlb_max_tag_check 2
core_0_itlb_max_fill 2
core_0_dtlb_set 16
core_0_dtlb_way 4
core_0_dtlb_rq_size 16
core_0_dtlb_wq_size 16
core_0_dtlb_pq_size 0
core_0_dtlb_mshr_size 8
core_0_dtlb_hit_latency 1
core_0_dtlb_fill_latency 1
core_0_dtlb_max_tag_check 2
core_0_dtlb_max_fill 2
core_0_stlb_set 262144
core_0_stlb_way 16
core_0_stlb_rq_size 32
core_0_stlb_wq_size 32
core_0_stlb_pq_size 0
core_0_stlb_mshr_size 16
core_0_stlb_hit_latency 4
core_0_stlb_fill_latency 4
core_0_stlb_max_tag_check 1
core_0_stlb_max_fill 1
core_0_l1i_set 64
core_0_l1i_way 8
core_0_l1i_rq_size 64
core_0_l1i_wq_size 64
core_0_l1i_pq_size 32
core_0_l1i_mshr_size 8
core_0_l1i_hit_latency 2
core_0_l1i_fill_latency 2
core_0_l1i_max_tag_check 2
core_0_l1i_max_fill 2
core_0_l1d_set 64
core_0_l1d_way 12
core_0_l1d_rq_size 64
core_0_l1d_wq_size 64
core_0_l1d_pq_size 8
core_0_l1d_mshr_size 16
core_0_l1d_hit_latency 2
core_0_l1d_fill_latency 3
core_0_l1d_max_tag_check 2
core_0_l1d_max_fill 2
core_0_l2c_set 1024
core_0_l2c_way 8
core_0_l2c_rq_size 32
core_0_l2c_wq_size 32
core_0_l2c_pq_size 16
core_0_l2c_mshr_size 32
core_0_l2c_hit_latency 5
core_0_l2c_fill_latency 5
core_0_l2c_max_tag_check 1
core_0_l2c_max_fill 1
llc_set 2048
llc_way 16
llc_rq_size 32
llc_wq_size 32
llc_pq_size 32
llc_mshr_size 64
llc_hit_latency 10
llc_fill_latency 10
llc_max_tag_check 1
llc_max_fill 1
dram_channels 1
dram_ranks 1
dram_bankgroups 8
dram_banks 4
dram_rows 65536
dram_columns 1024
dram_channel_width 8
dram_rq_size 64
dram_wq_size 64
dram_size 17179869184
core_0_itlb_prefetcher no
core_0_dtlb_prefetcher no
core_0_stlb_prefetcher no
core_0_l1i_prefetcher next_line
core_0_l1d_prefetcher berti
core_0_l2c_prefetcher ip_stride
llc_prefetcher no
llc_replacement drrip

Core_0_instructions 50000001
Core_0_cycles 26214201
Core_0_IPC 1.90736
Core_0_branch_prediction_accuracy 98.2858
Core_0_branch_MPKI 3.07018
Core_0_average_ROB_occupancy_at_mispredict 105.257

Core_0_ITLB_total_access 6651194
Core_0_ITLB_total_hit 6194108
Core_0_ITLB_total_miss 457086
Core_0_ITLB_total_MPKI 9.14172
Core_0_ITLB_total_miss_rate 0.0687224
Core_0_ITLB_demand_access 6651194
Core_0_ITLB_demand_hit 6194108
Core_0_ITLB_demand_miss 457086
Core_0_ITLB_demand_MPKI 9.14172
Core_0_ITLB_demand_miss_rate 0.0687224
Core_0_ITLB_load_access 6651194
Core_0_ITLB_load_hit 6194108
Core_0_ITLB_load_miss 457086
Core_0_ITLB_load_MPKI 9.14172
Core_0_ITLB_load_miss_rate 0.0687224
Core_0_ITLB_rfo_access 0
Core_0_ITLB_rfo_hit 0
Core_0_ITLB_rfo_miss 0
Core_0_ITLB_rfo_MPKI 0
Core_0_ITLB_rfo_miss_rate 0
Core_0_ITLB_prefetch_access 0
Core_0_ITLB_prefetch_hit 0
Core_0_ITLB_prefetch_miss 0
Core_0_ITLB_prefetch_MPKI 0
Core_0_ITLB_prefetch_miss_rate 0
Core_0_ITLB_writeback_access 0
Core_0_ITLB_writeback_hit 0
Core_0_ITLB_writeback_miss 0
Core_0_ITLB_writeback_MPKI 0
Core_0_ITLB_writeback_miss_rate 0
Core_0_ITLB_prefetch_requested 0
Core_0_ITLB_prefetch_issued 0
Core_0_ITLB_prefetch_useful 0
Core_0_ITLB_prefetch_useless 0
Core_0_ITLB_prefetch_late 0
Core_0_ITLB_prefetch_accuracy 0
Core_0_ITLB_prefetch_coverage 0
Core_0_ITLB_total_eviction 0

Core_0_DTLB_total_access 11109170
Core_0_DTLB_total_hit 10248859
Core_0_DTLB_total_miss 860311
Core_0_DTLB_total_MPKI 17.2062
Core_0_DTLB_total_miss_rate 0.0774415
Core_0_DTLB_demand_access 11109170
Core_0_DTLB_demand_hit 10248859
Core_0_DTLB_demand_miss 860311
Core_0_DTLB_demand_MPKI 17.2062
Core_0_DTLB_demand_miss_rate 0.0774415
Core_0_DTLB_load_access 11109170
Core_0_DTLB_load_hit 10248859
Core_0_DTLB_load_miss 860311
Core_0_DTLB_load_MPKI 17.2062
Core_0_DTLB_load_miss_rate 0.0774415
Core_0_DTLB_rfo_access 0
Core_0_DTLB_rfo_hit 0
Core_0_DTLB_rfo_miss 0
Core_0_DTLB_rfo_MPKI 0
Core_0_DTLB_rfo_miss_rate 0
Core_0_DTLB_prefetch_access 0
Core_0_DTLB_prefetch_hit 0
Core_0_DTLB_prefetch_miss 0
Core_0_DTLB_prefetch_MPKI 0
Core_0_DTLB_prefetch_miss_rate 0
Core_0_DTLB_writeback_access 0
Core_0_DTLB_writeback_hit 0
Core_0_DTLB_writeback_miss 0
Core_0_DTLB_writeback_MPKI 0
Core_0_DTLB_writeback_miss_rate 0
Core_0_DTLB_prefetch_requested 0
Core_0_DTLB_prefetch_issued 0
Core_0_DTLB_prefetch_useful 0
Core_0_DTLB_prefetch_useless 0
Core_0_DTLB_prefetch_late 0
Core_0_DTLB_prefetch_accuracy 0
Core_0_DTLB_prefetch_coverage 0
Core_0_DTLB_total_eviction 0

Core_0_STLB_total_access 841183
Core_0_STLB_total_hit 839863
Core_0_STLB_total_miss 1320
Core_0_STLB_total_MPKI 0.0264
Core_0_STLB_total_miss_rate 0.00156922
Core_0_STLB_demand_access 841183
Core_0_STLB_demand_hit 839863
Core_0_STLB_demand_miss 1320
Core_0_STLB_demand_MPKI 0.0264
Core_0_STLB_demand_miss_rate 0.00156922
Core_0_STLB_load_access 841183
Core_0_STLB_load_hit 839863
Core_0_STLB_load_miss 1320
Core_0_STLB_load_MPKI 0.0264
Core_0_STLB_load_miss_rate 0.00156922
Core_0_STLB_rfo_access 0
Core_0_STLB_rfo_hit 0
Core_0_STLB_rfo_miss 0
Core_0_STLB_rfo_MPKI 0
Core_0_STLB_rfo_miss_rate 0
Core_0_STLB_prefetch_access 0
Core_0_STLB_prefetch_hit 0
Core_0_STLB_prefetch_miss 0
Core_0_STLB_prefetch_MPKI 0
Core_0_STLB_prefetch_miss_rate 0
Core_0_STLB_writeback_access 0
Core_0_STLB_writeback_hit 0
Core_0_STLB_writeback_miss 0
Core_0_STLB_writeback_MPKI 0
Core_0_STLB_writeback_miss_rate 0
Core_0_STLB_prefetch_requested 0
Core_0_STLB_prefetch_issued 0
Core_0_STLB_prefetch_useful 0
Core_0_STLB_prefetch_useless 0
Core_0_STLB_prefetch_late 0
Core_0_STLB_prefetch_accuracy 0
Core_0_STLB_prefetch_coverage 0
Core_0_STLB_total_eviction 0

Core_0_L1I_total_access 7842464
Core_0_L1I_total_hit 5757888
Core_0_L1I_total_miss 2084576
Core_0_L1I_total_MPKI 41.6915
Core_0_L1I_total_miss_rate 0.265806
Core_0_L1I_demand_access 7842464
Core_0_L1I_demand_hit 5757888
Core_0_L1I_demand_miss 2084576
Core_0_L1I_demand_MPKI 41.6915
Core_0_L1I_demand_miss_rate 0.265806
Core_0_L1I_load_access 7842464
Core_0_L1I_load_hit 5757888
Core_0_L1I_load_miss 2084576
Core_0_L1I_load_MPKI 41.6915
Core_0_L1I_load_miss_rate 0.265806
Core_0_L1I_rfo_access 0
Core_0_L1I_rfo_hit 0
Core_0_L1I_rfo_miss 0
Core_0_L1I_rfo_MPKI 0
Core_0_L1I_rfo_miss_rate 0
Core_0_L1I_prefetch_access 0
Core_0_L1I_prefetch_hit 0
Core_0_L1I_prefetch_miss 0
Core_0_L1I_prefetch_MPKI 0
Core_0_L1I_prefetch_miss_rate 0
Core_0_L1I_writeback_access 0
Core_0_L1I_writeback_hit 0
Core_0_L1I_writeback_miss 0
Core_0_L1I_writeback_MPKI 0
Core_0_L1I_writeback_miss_rate 0
Core_0_L1I_prefetch_requested 0
Core_0_L1I_prefetch_issued 0
Core_0_L1I_prefetch_useful 0
Core_0_L1I_prefetch_useless 0
Core_0_L1I_prefetch_late 0
Core_0_L1I_prefetch_accuracy 0
Core_0_L1I_prefetch_coverage 0
Core_0_L1I_total_eviction 0

Core_0_L1D_total_access 11869799
Core_0_L1D_total_hit 10789252
Core_0_L1D_total_miss 1080547
Core_0_L1D_total_MPKI 21.6109
Core_0_L1D_total_miss_rate 0.0910333
Core_0_L1D_demand_access 6494397
Core_0_L1D_demand_hit 5862303
Core_0_L1D_demand_miss 632094
Core_0_L1D_demand_MPKI 12.6419
Core_0_L1D_demand_miss_rate 0.0973291
Core_0_L1D_load_access 6494397
Core_0_L1D_load_hit 5862303
Core_0_L1D_load_miss 632094
Core_0_L1D_load_MPKI 12.6419
Core_0_L1D_load_miss_rate 0.0973291
Core_0_L1D_rfo_access 0
Core_0_L1D_rfo_hit 0
Core_0_L1D_rfo_miss 0
Core_0_L1D_rfo_MPKI 0
Core_0_L1D_rfo_miss_rate 0
Core_0_L1D_prefetch_access 408981
Core_0_L1D_prefetch_hit 156103
Core_0_L1D_prefetch_miss 252878
Core_0_L1D_prefetch_MPKI 5.05756
Core_0_L1D_prefetch_miss_rate 0.618312
Core_0_L1D_writeback_access 4966421
Core_0_L1D_writeback_hit 4770846
Core_0_L1D_writeback_miss 195575
Core_0_L1D_writeback_MPKI 3.9115
Core_0_L1D_writeback_miss_rate 0.0393795
Core_0_L1D_prefetch_requested 411102
Core_0_L1D_prefetch_issued 408981
Core_0_L1D_prefetch_useful 97565
Core_0_L1D_prefetch_useless 140149
Core_0_L1D_prefetch_late 9038
Core_0_L1D_prefetch_accuracy 0.238556
Core_0_L1D_prefetch_coverage 0.133713
Core_0_L1D_total_eviction 0

Core_0_L2C_total_access 2383560
Core_0_L2C_total_hit 1441922
Core_0_L2C_total_miss 941638
Core_0_L2C_total_MPKI 18.8328
Core_0_L2C_total_miss_rate 0.395055
Core_0_L2C_demand_access 1834053
Core_0_L2C_demand_hit 1069260
Core_0_L2C_demand_miss 764793
Core_0_L2C_demand_MPKI 15.2959
Core_0_L2C_demand_miss_rate 0.416996
Core_0_L2C_load_access 1758394
Core_0_L2C_load_hit 1031473
Core_0_L2C_load_miss 726921
Core_0_L2C_load_MPKI 14.5384
Core_0_L2C_load_miss_rate 0.413401
Core_0_L2C_rfo_access 75659
Core_0_L2C_rfo_hit 37787
Core_0_L2C_rfo_miss 37872
Core_0_L2C_rfo_MPKI 0.75744
Core_0_L2C_rfo_miss_rate 0.500562
Core_0_L2C_prefetch_access 283440
Core_0_L2C_prefetch_hit 108223
Core_0_L2C_prefetch_miss 175217
Core_0_L2C_prefetch_MPKI 3.50434
Core_0_L2C_prefetch_miss_rate 0.61818
Core_0_L2C_writeback_access 266067
Core_0_L2C_writeback_hit 264439
Core_0_L2C_writeback_miss 1628
Core_0_L2C_writeback_MPKI 0.03256
Core_0_L2C_writeback_miss_rate 0.00611876
Core_0_L2C_prefetch_requested 45859
Core_0_L2C_prefetch_issued 45696
Core_0_L2C_prefetch_useful 15884
Core_0_L2C_prefetch_useless 6334
Core_0_L2C_prefetch_late 155
Core_0_L2C_prefetch_accuracy 0.347602
Core_0_L2C_prefetch_coverage 0.0203464
Core_0_L2C_total_eviction 0

Core_0_LLC_total_access 1069423
Core_0_LLC_total_hit 960763
Core_0_LLC_total_miss 108660
Core_0_LLC_total_MPKI 2.1732
Core_0_LLC_total_miss_rate 0.101606
Core_0_LLC_demand_access 764638
Core_0_LLC_demand_hit 722309
Core_0_LLC_demand_miss 42329
Core_0_LLC_demand_MPKI 0.84658
Core_0_LLC_demand_miss_rate 0.0553582
Core_0_LLC_load_access 726795
Core_0_LLC_load_hit 693096
Core_0_LLC_load_miss 33699
Core_0_LLC_load_MPKI 0.67398
Core_0_LLC_load_miss_rate 0.0463666
Core_0_LLC_rfo_access 37843
Core_0_LLC_rfo_hit 29213
Core_0_LLC_rfo_miss 8630
Core_0_LLC_rfo_MPKI 0.1726
Core_0_LLC_rfo_miss_rate 0.228047
Core_0_LLC_prefetch_access 161411
Core_0_LLC_prefetch_hit 97988
Core_0_LLC_prefetch_miss 63423
Core_0_LLC_prefetch_MPKI 1.26846
Core_0_LLC_prefetch_miss_rate 0.392929
Core_0_LLC_writeback_access 143374
Core_0_LLC_writeback_hit 140466
Core_0_LLC_writeback_miss 2908
Core_0_LLC_writeback_MPKI 0.05816
Core_0_LLC_writeback_miss_rate 0.0202826
Core_0_LLC_prefetch_requested 0
Core_0_LLC_prefetch_issued 0
Core_0_LLC_prefetch_useful 0
Core_0_LLC_prefetch_useless 0
Core_0_LLC_prefetch_late 0
Core_0_LLC_prefetch_accuracy 0
Core_0_LLC_prefetch_coverage 0
Core_0_LLC_total_eviction 0

[DRAM Statistics]
Channel_0_RQ_row_buffer_hit 3849
Channel_0_RQ_row_buffer_miss 102888
Channel_0_WQ_row_buffer_hit 12184
Channel_0_WQ_row_buffer_miss 44307
Channel_0_WQ_full 0
Channel_0_dbus_congested 439193
DRAM_total_RQ_row_buffer_hit 3849
DRAM_total_RQ_row_buffer_miss 102888
DRAM_total_WQ_row_buffer_hit 12184
DRAM_total_WQ_row_buffer_miss 44307
DRAM_total_WQ_full 0
DRAM_total_dbus_congested 439193
DRAM_avg_congested_cycle 14.6382

======STLB miss causes ========
Core_0_STLB_miss_cause_breakdown
Core_0_STLB_cause_Demand_Data_miss 954
Core_0_STLB_cause_Demand_Data_miss_rate 0.00113412
Core_0_STLB_cause_Demand_Instruction_miss 7
Core_0_STLB_cause_Demand_Instruction_miss_rate 8.32161e-06
Core_0_STLB_cause_L1D_Prefetch_miss 359
Core_0_STLB_cause_L1D_Prefetch_miss_rate 0.00042678
Core_0_STLB_cause_L1I_Prefetch_miss 0
Core_0_STLB_cause_L1I_Prefetch_miss_rate 0
Core_0_STLB_cause_Other_miss 0
Core_0_STLB_cause_Other_miss_rate 0
Core_0_STLB_Demand_miss 961
Core_0_STLB_Demand_miss_rate 0.00114244
Core_0_STLB_L1D_Prefetch_miss 359
Core_0_STLB_L1D_Prefetch_miss_rate 0.00042678
Core_0_STLB_Other_miss 0
Core_0_STLB_Other_miss_rate 0
