[VMEM] WARNING: physical memory size is smaller than virtual memory size.

*** ChampSim Multicore Out-of-Order Simulator ***
Warmup Instructions: 20000000
Simulation Instructions: 50000000
Number of CPUs: 1
Page size: 4096
STLB ideal mode: off
STLB ideal fill: off
Core 0: /data0/tzh/champsim_traces/QMM/srv_61_new.xz
 L1D Berti prefetcher
Off-chip DRAM Size: 16 GiB Channels: 1 Width: 64-bit Data Rate: 3205 MT/s
[BTB] WARNING: target of return is a lower address than the corresponding call. This is usually a problem with your trace.
[BTB] WARNING: target of return is a lower address than the corresponding call. This is usually a problem with your trace.
[BTB] WARNING: target of return is a lower address than the corresponding call. This is usually a problem with your trace.
[BTB] WARNING: target of return is a lower address than the corresponding call. This is usually a problem with your trace.
[BTB] WARNING: target of return is a lower address than the corresponding call. This is usually a problem with your trace.
[BTB] WARNING: target of return is a lower address than the corresponding call. This is usually a problem with your trace.
[BTB] WARNING: target of return is a lower address than the corresponding call. This is usually a problem with your trace.
[BTB] WARNING: target of return is a lower address than the corresponding call. This is usually a problem with your trace.
[BTB] WARNING: target of return is a lower address than the corresponding call. This is usually a problem with your trace.
[BTB] WARNING: target of return is a lower address than the corresponding call. This is usually a problem with your trace.
Warmup halting CPU 0 at instruction 20000001 cycle 4422164 for remainder of phase
Warmup finished CPU 0 instructions: 20000001 cycles: 4422164 cumulative IPC: 4.523 (Simulation time: 00 hr 00 min 59 sec)
Warmup complete CPU 0 instructions: 20000001 cycles: 4422164 cumulative IPC: 4.523 (Simulation time: 00 hr 00 min 59 sec)
*** Reached end of trace: (0, "/data0/tzh/champsim_traces/QMM/srv_61_new.xz")
*** Reached end of trace: (0, "/data0/tzh/champsim_traces/QMM/srv_61_new.xz")
Simulation finished CPU 0 instructions: 50000001 cycles: 29647284 cumulative IPC: 1.686 (Simulation time: 00 hr 05 min 01 sec)
Simulation complete CPU 0 instructions: 50000001 cycles: 29647284 cumulative IPC: 1.686 (Simulation time: 00 hr 05 min 01 sec)

ChampSim completed all CPUs

=== Simulation ===
CPU 0 runs /data0/tzh/champsim_traces/QMM/srv_61_new.xz

Region of Interest Statistics

CPU 0 cumulative IPC: 1.686 instructions: 50000001 cycles: 29647284
CPU 0 Branch Prediction Accuracy: 97.24% MPKI: 4.991 Average ROB Occupancy at Mispredict: 73.56
Branch type MPKI
BRANCH_DIRECT_JUMP: 0.4183
BRANCH_INDIRECT: 0.3555
BRANCH_CONDITIONAL: 2.704
BRANCH_DIRECT_CALL: 0.7413
BRANCH_INDIRECT_CALL: 0.1837
BRANCH_RETURN: 0.5882

cpu0->cpu0_STLB TOTAL        ACCESS:     830162 HIT:     829485 MISS:        677 MSHR_MERGE:          0
cpu0->cpu0_STLB LOAD         ACCESS:     830162 HIT:     829485 MISS:        677 MSHR_MERGE:          0
cpu0->cpu0_STLB RFO          ACCESS:          0 HIT:          0 MISS:          0 MSHR_MERGE:          0
cpu0->cpu0_STLB PREFETCH     ACCESS:          0 HIT:          0 MISS:          0 MSHR_MERGE:          0
cpu0->cpu0_STLB WRITE        ACCESS:          0 HIT:          0 MISS:          0 MSHR_MERGE:          0
cpu0->cpu0_STLB TRANSLATION  ACCESS:          0 HIT:          0 MISS:          0 MSHR_MERGE:          0
cpu0->cpu0_STLB PREFETCH REQUESTED:          0 ISSUED:          0 USEFUL:          0 USELESS:          0 LATE:          0
cpu0->cpu0_STLB AVERAGE MISS LATENCY: 407.6 cycles
cpu0->cpu0_L2C TOTAL        ACCESS:    2434839 HIT:    1297090 MISS:    1137749 MSHR_MERGE:      14103
cpu0->cpu0_L2C LOAD         ACCESS:    1787771 HIT:     898458 MISS:     889313 MSHR_MERGE:        211
cpu0->cpu0_L2C RFO          ACCESS:      80452 HIT:      34059 MISS:      46393 MSHR_MERGE:         48
cpu0->cpu0_L2C PREFETCH     ACCESS:     303385 HIT:     103635 MISS:     199750 MSHR_MERGE:      13844
cpu0->cpu0_L2C WRITE        ACCESS:     262400 HIT:     260892 MISS:       1508 MSHR_MERGE:          0
cpu0->cpu0_L2C TRANSLATION  ACCESS:        831 HIT:         46 MISS:        785 MSHR_MERGE:          0
cpu0->cpu0_L2C PREFETCH REQUESTED:      60707 ISSUED:      53899 USEFUL:      16589 USELESS:       7437 LATE:        259
cpu0->cpu0_L2C AVERAGE MISS LATENCY: 23.38 cycles
cpu0->cpu0_L1I TOTAL        ACCESS:    7595274 HIT:    5530054 MISS:    2065220 MSHR_MERGE:     760427
cpu0->cpu0_L1I LOAD         ACCESS:    7595274 HIT:    5530054 MISS:    2065220 MSHR_MERGE:     760427
cpu0->cpu0_L1I RFO          ACCESS:          0 HIT:          0 MISS:          0 MSHR_MERGE:          0
cpu0->cpu0_L1I PREFETCH     ACCESS:          0 HIT:          0 MISS:          0 MSHR_MERGE:          0
cpu0->cpu0_L1I WRITE        ACCESS:          0 HIT:          0 MISS:          0 MSHR_MERGE:          0
cpu0->cpu0_L1I TRANSLATION  ACCESS:          0 HIT:          0 MISS:          0 MSHR_MERGE:          0
cpu0->cpu0_L1I PREFETCH REQUESTED:          0 ISSUED:          0 USEFUL:          0 USELESS:          0 LATE:          0
cpu0->cpu0_L1I AVERAGE MISS LATENCY: 15.65 cycles
cpu0->cpu0_L1D TOTAL        ACCESS:   12126836 HIT:   10995935 MISS:    1130901 MSHR_MERGE:     317138
cpu0->cpu0_L1D LOAD         ACCESS:    6714500 HIT:    6067994 MISS:     646506 MSHR_MERGE:     163522
cpu0->cpu0_L1D RFO          ACCESS:          0 HIT:          0 MISS:          0 MSHR_MERGE:          0
cpu0->cpu0_L1D PREFETCH     ACCESS:     429168 HIT:     164334 MISS:     264834 MSHR_MERGE:      15342
cpu0->cpu0_L1D WRITE        ACCESS:    4981521 HIT:    4762793 MISS:     218728 MSHR_MERGE:     138272
cpu0->cpu0_L1D TRANSLATION  ACCESS:       1647 HIT:        814 MISS:        833 MSHR_MERGE:          2
cpu0->cpu0_L1D PREFETCH REQUESTED:     431684 ISSUED:     429160 USEFUL:      98503 USELESS:     150960 LATE:      11289
cpu0->cpu0_L1D AVERAGE MISS LATENCY: 29.52 cycles
cpu0->cpu0_ITLB TOTAL        ACCESS:    6436757 HIT:    5966103 MISS:     470654 MSHR_MERGE:     275216
cpu0->cpu0_ITLB LOAD         ACCESS:    6436757 HIT:    5966103 MISS:     470654 MSHR_MERGE:     275216
cpu0->cpu0_ITLB RFO          ACCESS:          0 HIT:          0 MISS:          0 MSHR_MERGE:          0
cpu0->cpu0_ITLB PREFETCH     ACCESS:          0 HIT:          0 MISS:          0 MSHR_MERGE:          0
cpu0->cpu0_ITLB WRITE        ACCESS:          0 HIT:          0 MISS:          0 MSHR_MERGE:          0
cpu0->cpu0_ITLB TRANSLATION  ACCESS:          0 HIT:          0 MISS:          0 MSHR_MERGE:          0
cpu0->cpu0_ITLB PREFETCH REQUESTED:          0 ISSUED:          0 USEFUL:          0 USELESS:          0 LATE:          0
cpu0->cpu0_ITLB AVERAGE MISS LATENCY: 5.061 cycles
cpu0->cpu0_DTLB TOTAL        ACCESS:   11364454 HIT:   10530209 MISS:     834245 MSHR_MERGE:     199521
cpu0->cpu0_DTLB LOAD         ACCESS:   11364454 HIT:   10530209 MISS:     834245 MSHR_MERGE:     199521
cpu0->cpu0_DTLB RFO          ACCESS:          0 HIT:          0 MISS:          0 MSHR_MERGE:          0
cpu0->cpu0_DTLB PREFETCH     ACCESS:          0 HIT:          0 MISS:          0 MSHR_MERGE:          0
cpu0->cpu0_DTLB WRITE        ACCESS:          0 HIT:          0 MISS:          0 MSHR_MERGE:          0
cpu0->cpu0_DTLB TRANSLATION  ACCESS:          0 HIT:          0 MISS:          0 MSHR_MERGE:          0
cpu0->cpu0_DTLB PREFETCH REQUESTED:          0 ISSUED:          0 USEFUL:          0 USELESS:          0 LATE:          0
cpu0->cpu0_DTLB AVERAGE MISS LATENCY: 5.43 cycles
cpu0->LLC TOTAL        ACCESS:    1278796 HIT:    1167515 MISS:     111281 MSHR_MERGE:          5
cpu0->LLC LOAD         ACCESS:     889102 HIT:     859366 MISS:      29736 MSHR_MERGE:          0
cpu0->LLC RFO          ACCESS:      46345 HIT:      36369 MISS:       9976 MSHR_MERGE:          0
cpu0->LLC PREFETCH     ACCESS:     185905 HIT:     117425 MISS:      68480 MSHR_MERGE:          5
cpu0->LLC WRITE        ACCESS:     156659 HIT:     154096 MISS:       2563 MSHR_MERGE:          0
cpu0->LLC TRANSLATION  ACCESS:        785 HIT:        259 MISS:        526 MSHR_MERGE:          0
cpu0->LLC PREFETCH REQUESTED:          0 ISSUED:          0 USEFUL:          0 USELESS:          0 LATE:          0
cpu0->LLC AVERAGE MISS LATENCY: 183.2 cycles

DRAM Statistics

Channel 0 RQ ROW_BUFFER_HIT:       2834
  ROW_BUFFER_MISS:     105873
  AVG DBUS CONGESTED CYCLE: 15.17
Channel 0 WQ ROW_BUFFER_HIT:      11669
  ROW_BUFFER_MISS:      45888
  FULL:          0
Channel 0 REFRESHES ISSUED:       2471

[ROI Statistics]
[System Configuration]
num_cpus 1
cpu_freq 4000
fetch_width 6
decode_width 6
dispatch_width 6
execute_width 6
lq_width 2
sq_width 2
retire_width 6
scheduler_size 128
branch_mispredict_penalty 15
rob_size 352
lq_size 128
sq_size 72
ifetch_buffer_size 64
decode_buffer_size 32
dispatch_buffer_size 32
register_file_size 288
decode_latency 1
dispatch_latency 1
schedule_latency 1
execute_latency 1
page_size 4096
block_size 64
core_0_itlb_set 16
core_0_itlb_way 4
core_0_itlb_rq_size 16
core_0_itlb_wq_size 16
core_0_itlb_pq_size 0
core_0_itlb_mshr_size 8
core_0_itlb_hit_latency 1
core_0_itlb_fill_latency 1
core_0_itlb_max_tag_check 2
core_0_itlb_max_fill 2
core_0_dtlb_set 16
core_0_dtlb_way 4
core_0_dtlb_rq_size 16
core_0_dtlb_wq_size 16
core_0_dtlb_pq_size 0
core_0_dtlb_mshr_size 8
core_0_dtlb_hit_latency 1
core_0_dtlb_fill_latency 1
core_0_dtlb_max_tag_check 2
core_0_dtlb_max_fill 2
core_0_stlb_set 262144
core_0_stlb_way 16
core_0_stlb_rq_size 32
core_0_stlb_wq_size 32
core_0_stlb_pq_size 0
core_0_stlb_mshr_size 16
core_0_stlb_hit_latency 4
core_0_stlb_fill_latency 4
core_0_stlb_max_tag_check 1
core_0_stlb_max_fill 1
core_0_l1i_set 64
core_0_l1i_way 8
core_0_l1i_rq_size 64
core_0_l1i_wq_size 64
core_0_l1i_pq_size 32
core_0_l1i_mshr_size 8
core_0_l1i_hit_latency 2
core_0_l1i_fill_latency 2
core_0_l1i_max_tag_check 2
core_0_l1i_max_fill 2
core_0_l1d_set 64
core_0_l1d_way 12
core_0_l1d_rq_size 64
core_0_l1d_wq_size 64
core_0_l1d_pq_size 8
core_0_l1d_mshr_size 16
core_0_l1d_hit_latency 2
core_0_l1d_fill_latency 3
core_0_l1d_max_tag_check 2
core_0_l1d_max_fill 2
core_0_l2c_set 1024
core_0_l2c_way 8
core_0_l2c_rq_size 32
core_0_l2c_wq_size 32
core_0_l2c_pq_size 16
core_0_l2c_mshr_size 32
core_0_l2c_hit_latency 5
core_0_l2c_fill_latency 5
core_0_l2c_max_tag_check 1
core_0_l2c_max_fill 1
llc_set 2048
llc_way 16
llc_rq_size 32
llc_wq_size 32
llc_pq_size 32
llc_mshr_size 64
llc_hit_latency 10
llc_fill_latency 10
llc_max_tag_check 1
llc_max_fill 1
dram_channels 1
dram_ranks 1
dram_bankgroups 8
dram_banks 4
dram_rows 65536
dram_columns 1024
dram_channel_width 8
dram_rq_size 64
dram_wq_size 64
dram_size 17179869184
core_0_itlb_prefetcher no
core_0_dtlb_prefetcher no
core_0_stlb_prefetcher no
core_0_l1i_prefetcher next_line
core_0_l1d_prefetcher berti
core_0_l2c_prefetcher ip_stride
llc_prefetcher no
llc_replacement drrip

Core_0_instructions 50000001
Core_0_cycles 29647284
Core_0_IPC 1.6865
Core_0_branch_prediction_accuracy 97.2421
Core_0_branch_MPKI 4.9908
Core_0_average_ROB_occupancy_at_mispredict 73.5612

Core_0_ITLB_total_access 6436757
Core_0_ITLB_total_hit 5966103
Core_0_ITLB_total_miss 470654
Core_0_ITLB_total_MPKI 9.41308
Core_0_ITLB_total_miss_rate 0.0731197
Core_0_ITLB_demand_access 6436757
Core_0_ITLB_demand_hit 5966103
Core_0_ITLB_demand_miss 470654
Core_0_ITLB_demand_MPKI 9.41308
Core_0_ITLB_demand_miss_rate 0.0731197
Core_0_ITLB_load_access 6436757
Core_0_ITLB_load_hit 5966103
Core_0_ITLB_load_miss 470654
Core_0_ITLB_load_MPKI 9.41308
Core_0_ITLB_load_miss_rate 0.0731197
Core_0_ITLB_rfo_access 0
Core_0_ITLB_rfo_hit 0
Core_0_ITLB_rfo_miss 0
Core_0_ITLB_rfo_MPKI 0
Core_0_ITLB_rfo_miss_rate 0
Core_0_ITLB_prefetch_access 0
Core_0_ITLB_prefetch_hit 0
Core_0_ITLB_prefetch_miss 0
Core_0_ITLB_prefetch_MPKI 0
Core_0_ITLB_prefetch_miss_rate 0
Core_0_ITLB_writeback_access 0
Core_0_ITLB_writeback_hit 0
Core_0_ITLB_writeback_miss 0
Core_0_ITLB_writeback_MPKI 0
Core_0_ITLB_writeback_miss_rate 0
Core_0_ITLB_prefetch_requested 0
Core_0_ITLB_prefetch_issued 0
Core_0_ITLB_prefetch_useful 0
Core_0_ITLB_prefetch_useless 0
Core_0_ITLB_prefetch_late 0
Core_0_ITLB_prefetch_accuracy 0
Core_0_ITLB_prefetch_coverage 0
Core_0_ITLB_total_eviction 0

Core_0_DTLB_total_access 11364454
Core_0_DTLB_total_hit 10530209
Core_0_DTLB_total_miss 834245
Core_0_DTLB_total_MPKI 16.6849
Core_0_DTLB_total_miss_rate 0.0734083
Core_0_DTLB_demand_access 11364454
Core_0_DTLB_demand_hit 10530209
Core_0_DTLB_demand_miss 834245
Core_0_DTLB_demand_MPKI 16.6849
Core_0_DTLB_demand_miss_rate 0.0734083
Core_0_DTLB_load_access 11364454
Core_0_DTLB_load_hit 10530209
Core_0_DTLB_load_miss 834245
Core_0_DTLB_load_MPKI 16.6849
Core_0_DTLB_load_miss_rate 0.0734083
Core_0_DTLB_rfo_access 0
Core_0_DTLB_rfo_hit 0
Core_0_DTLB_rfo_miss 0
Core_0_DTLB_rfo_MPKI 0
Core_0_DTLB_rfo_miss_rate 0
Core_0_DTLB_prefetch_access 0
Core_0_DTLB_prefetch_hit 0
Core_0_DTLB_prefetch_miss 0
Core_0_DTLB_prefetch_MPKI 0
Core_0_DTLB_prefetch_miss_rate 0
Core_0_DTLB_writeback_access 0
Core_0_DTLB_writeback_hit 0
Core_0_DTLB_writeback_miss 0
Core_0_DTLB_writeback_MPKI 0
Core_0_DTLB_writeback_miss_rate 0
Core_0_DTLB_prefetch_requested 0
Core_0_DTLB_prefetch_issued 0
Core_0_DTLB_prefetch_useful 0
Core_0_DTLB_prefetch_useless 0
Core_0_DTLB_prefetch_late 0
Core_0_DTLB_prefetch_accuracy 0
Core_0_DTLB_prefetch_coverage 0
Core_0_DTLB_total_eviction 0

Core_0_STLB_total_access 830162
Core_0_STLB_total_hit 829485
Core_0_STLB_total_miss 677
Core_0_STLB_total_MPKI 0.01354
Core_0_STLB_total_miss_rate 0.000815503
Core_0_STLB_demand_access 830162
Core_0_STLB_demand_hit 829485
Core_0_STLB_demand_miss 677
Core_0_STLB_demand_MPKI 0.01354
Core_0_STLB_demand_miss_rate 0.000815503
Core_0_STLB_load_access 830162
Core_0_STLB_load_hit 829485
Core_0_STLB_load_miss 677
Core_0_STLB_load_MPKI 0.01354
Core_0_STLB_load_miss_rate 0.000815503
Core_0_STLB_rfo_access 0
Core_0_STLB_rfo_hit 0
Core_0_STLB_rfo_miss 0
Core_0_STLB_rfo_MPKI 0
Core_0_STLB_rfo_miss_rate 0
Core_0_STLB_prefetch_access 0
Core_0_STLB_prefetch_hit 0
Core_0_STLB_prefetch_miss 0
Core_0_STLB_prefetch_MPKI 0
Core_0_STLB_prefetch_miss_rate 0
Core_0_STLB_writeback_access 0
Core_0_STLB_writeback_hit 0
Core_0_STLB_writeback_miss 0
Core_0_STLB_writeback_MPKI 0
Core_0_STLB_writeback_miss_rate 0
Core_0_STLB_prefetch_requested 0
Core_0_STLB_prefetch_issued 0
Core_0_STLB_prefetch_useful 0
Core_0_STLB_prefetch_useless 0
Core_0_STLB_prefetch_late 0
Core_0_STLB_prefetch_accuracy 0
Core_0_STLB_prefetch_coverage 0
Core_0_STLB_total_eviction 0

Core_0_L1I_total_access 7595274
Core_0_L1I_total_hit 5530054
Core_0_L1I_total_miss 2065220
Core_0_L1I_total_MPKI 41.3044
Core_0_L1I_total_miss_rate 0.271909
Core_0_L1I_demand_access 7595274
Core_0_L1I_demand_hit 5530054
Core_0_L1I_demand_miss 2065220
Core_0_L1I_demand_MPKI 41.3044
Core_0_L1I_demand_miss_rate 0.271909
Core_0_L1I_load_access 7595274
Core_0_L1I_load_hit 5530054
Core_0_L1I_load_miss 2065220
Core_0_L1I_load_MPKI 41.3044
Core_0_L1I_load_miss_rate 0.271909
Core_0_L1I_rfo_access 0
Core_0_L1I_rfo_hit 0
Core_0_L1I_rfo_miss 0
Core_0_L1I_rfo_MPKI 0
Core_0_L1I_rfo_miss_rate 0
Core_0_L1I_prefetch_access 0
Core_0_L1I_prefetch_hit 0
Core_0_L1I_prefetch_miss 0
Core_0_L1I_prefetch_MPKI 0
Core_0_L1I_prefetch_miss_rate 0
Core_0_L1I_writeback_access 0
Core_0_L1I_writeback_hit 0
Core_0_L1I_writeback_miss 0
Core_0_L1I_writeback_MPKI 0
Core_0_L1I_writeback_miss_rate 0
Core_0_L1I_prefetch_requested 0
Core_0_L1I_prefetch_issued 0
Core_0_L1I_prefetch_useful 0
Core_0_L1I_prefetch_useless 0
Core_0_L1I_prefetch_late 0
Core_0_L1I_prefetch_accuracy 0
Core_0_L1I_prefetch_coverage 0
Core_0_L1I_total_eviction 0

Core_0_L1D_total_access 12125189
Core_0_L1D_total_hit 10995121
Core_0_L1D_total_miss 1130068
Core_0_L1D_total_MPKI 22.6014
Core_0_L1D_total_miss_rate 0.0932
Core_0_L1D_demand_access 6714500
Core_0_L1D_demand_hit 6067994
Core_0_L1D_demand_miss 646506
Core_0_L1D_demand_MPKI 12.9301
Core_0_L1D_demand_miss_rate 0.0962851
Core_0_L1D_load_access 6714500
Core_0_L1D_load_hit 6067994
Core_0_L1D_load_miss 646506
Core_0_L1D_load_MPKI 12.9301
Core_0_L1D_load_miss_rate 0.0962851
Core_0_L1D_rfo_access 0
Core_0_L1D_rfo_hit 0
Core_0_L1D_rfo_miss 0
Core_0_L1D_rfo_MPKI 0
Core_0_L1D_rfo_miss_rate 0
Core_0_L1D_prefetch_access 429168
Core_0_L1D_prefetch_hit 164334
Core_0_L1D_prefetch_miss 264834
Core_0_L1D_prefetch_MPKI 5.29668
Core_0_L1D_prefetch_miss_rate 0.617087
Core_0_L1D_writeback_access 4981521
Core_0_L1D_writeback_hit 4762793
Core_0_L1D_writeback_miss 218728
Core_0_L1D_writeback_MPKI 4.37456
Core_0_L1D_writeback_miss_rate 0.0439079
Core_0_L1D_prefetch_requested 431684
Core_0_L1D_prefetch_issued 429160
Core_0_L1D_prefetch_useful 98503
Core_0_L1D_prefetch_useless 150960
Core_0_L1D_prefetch_late 11289
Core_0_L1D_prefetch_accuracy 0.229525
Core_0_L1D_prefetch_coverage 0.132217
Core_0_L1D_total_eviction 0

Core_0_L2C_total_access 2434008
Core_0_L2C_total_hit 1297044
Core_0_L2C_total_miss 1136964
Core_0_L2C_total_MPKI 22.7393
Core_0_L2C_total_miss_rate 0.467116
Core_0_L2C_demand_access 1868223
Core_0_L2C_demand_hit 932517
Core_0_L2C_demand_miss 935706
Core_0_L2C_demand_MPKI 18.7141
Core_0_L2C_demand_miss_rate 0.500853
Core_0_L2C_load_access 1787771
Core_0_L2C_load_hit 898458
Core_0_L2C_load_miss 889313
Core_0_L2C_load_MPKI 17.7863
Core_0_L2C_load_miss_rate 0.497442
Core_0_L2C_rfo_access 80452
Core_0_L2C_rfo_hit 34059
Core_0_L2C_rfo_miss 46393
Core_0_L2C_rfo_MPKI 0.92786
Core_0_L2C_rfo_miss_rate 0.576654
Core_0_L2C_prefetch_access 303385
Core_0_L2C_prefetch_hit 103635
Core_0_L2C_prefetch_miss 199750
Core_0_L2C_prefetch_MPKI 3.995
Core_0_L2C_prefetch_miss_rate 0.658404
Core_0_L2C_writeback_access 262400
Core_0_L2C_writeback_hit 260892
Core_0_L2C_writeback_miss 1508
Core_0_L2C_writeback_MPKI 0.03016
Core_0_L2C_writeback_miss_rate 0.00574695
Core_0_L2C_prefetch_requested 60707
Core_0_L2C_prefetch_issued 53899
Core_0_L2C_prefetch_useful 16589
Core_0_L2C_prefetch_useless 7437
Core_0_L2C_prefetch_late 259
Core_0_L2C_prefetch_accuracy 0.307779
Core_0_L2C_prefetch_coverage 0.01742
Core_0_L2C_total_eviction 0

Core_0_LLC_total_access 1278011
Core_0_LLC_total_hit 1167256
Core_0_LLC_total_miss 110755
Core_0_LLC_total_MPKI 2.2151
Core_0_LLC_total_miss_rate 0.086662
Core_0_LLC_demand_access 935447
Core_0_LLC_demand_hit 895735
Core_0_LLC_demand_miss 39712
Core_0_LLC_demand_MPKI 0.79424
Core_0_LLC_demand_miss_rate 0.0424524
Core_0_LLC_load_access 889102
Core_0_LLC_load_hit 859366
Core_0_LLC_load_miss 29736
Core_0_LLC_load_MPKI 0.59472
Core_0_LLC_load_miss_rate 0.033445
Core_0_LLC_rfo_access 46345
Core_0_LLC_rfo_hit 36369
Core_0_LLC_rfo_miss 9976
Core_0_LLC_rfo_MPKI 0.19952
Core_0_LLC_rfo_miss_rate 0.215255
Core_0_LLC_prefetch_access 185905
Core_0_LLC_prefetch_hit 117425
Core_0_LLC_prefetch_miss 68480
Core_0_LLC_prefetch_MPKI 1.3696
Core_0_LLC_prefetch_miss_rate 0.36836
Core_0_LLC_writeback_access 156659
Core_0_LLC_writeback_hit 154096
Core_0_LLC_writeback_miss 2563
Core_0_LLC_writeback_MPKI 0.05126
Core_0_LLC_writeback_miss_rate 0.0163604
Core_0_LLC_prefetch_requested 0
Core_0_LLC_prefetch_issued 0
Core_0_LLC_prefetch_useful 0
Core_0_LLC_prefetch_useless 0
Core_0_LLC_prefetch_late 0
Core_0_LLC_prefetch_accuracy 0
Core_0_LLC_prefetch_coverage 0
Core_0_LLC_total_eviction 0

[DRAM Statistics]
Channel_0_RQ_row_buffer_hit 2834
Channel_0_RQ_row_buffer_miss 105873
Channel_0_WQ_row_buffer_hit 11669
Channel_0_WQ_row_buffer_miss 45888
Channel_0_WQ_full 0
Channel_0_dbus_congested 434793
DRAM_total_RQ_row_buffer_hit 2834
DRAM_total_RQ_row_buffer_miss 105873
DRAM_total_WQ_row_buffer_hit 11669
DRAM_total_WQ_row_buffer_miss 45888
DRAM_total_WQ_full 0
DRAM_total_dbus_congested 434793
DRAM_avg_congested_cycle 15.1672

======STLB miss causes ========
Core_0_STLB_miss_cause_breakdown
Core_0_STLB_cause_Demand_Data_miss 338
Core_0_STLB_cause_Demand_Data_miss_rate 0.000407149
Core_0_STLB_cause_Demand_Instruction_miss 18
Core_0_STLB_cause_Demand_Instruction_miss_rate 2.16825e-05
Core_0_STLB_cause_L1D_Prefetch_miss 321
Core_0_STLB_cause_L1D_Prefetch_miss_rate 0.000386672
Core_0_STLB_cause_L1I_Prefetch_miss 0
Core_0_STLB_cause_L1I_Prefetch_miss_rate 0
Core_0_STLB_cause_Other_miss 0
Core_0_STLB_cause_Other_miss_rate 0
Core_0_STLB_Demand_miss 356
Core_0_STLB_Demand_miss_rate 0.000428832
Core_0_STLB_L1D_Prefetch_miss 321
Core_0_STLB_L1D_Prefetch_miss_rate 0.000386672
Core_0_STLB_Other_miss 0
Core_0_STLB_Other_miss_rate 0
