[VMEM] WARNING: physical memory size is smaller than virtual memory size.

*** ChampSim Multicore Out-of-Order Simulator ***
Warmup Instructions: 20000000
Simulation Instructions: 50000000
Number of CPUs: 1
Page size: 4096
STLB ideal mode: off
STLB ideal fill: off
Core 0: /data0/tzh/champsim_traces/QMM/srv_69_new.xz
 L1D Berti prefetcher
Off-chip DRAM Size: 16 GiB Channels: 1 Width: 64-bit Data Rate: 3205 MT/s
[BTB] WARNING: target of return is a lower address than the corresponding call. This is usually a problem with your trace.
[BTB] WARNING: target of return is a lower address than the corresponding call. This is usually a problem with your trace.
[BTB] WARNING: target of return is a lower address than the corresponding call. This is usually a problem with your trace.
[BTB] WARNING: target of return is a lower address than the corresponding call. This is usually a problem with your trace.
[BTB] WARNING: target of return is a lower address than the corresponding call. This is usually a problem with your trace.
[BTB] WARNING: target of return is a lower address than the corresponding call. This is usually a problem with your trace.
[BTB] WARNING: target of return is a lower address than the corresponding call. This is usually a problem with your trace.
[BTB] WARNING: target of return is a lower address than the corresponding call. This is usually a problem with your trace.
[BTB] WARNING: target of return is a lower address than the corresponding call. This is usually a problem with your trace.
[BTB] WARNING: target of return is a lower address than the corresponding call. This is usually a problem with your trace.
Warmup halting CPU 0 at instruction 20000001 cycle 4515250 for remainder of phase
Warmup finished CPU 0 instructions: 20000001 cycles: 4515250 cumulative IPC: 4.429 (Simulation time: 00 hr 01 min 05 sec)
Warmup complete CPU 0 instructions: 20000001 cycles: 4515250 cumulative IPC: 4.429 (Simulation time: 00 hr 01 min 05 sec)
*** Reached end of trace: (0, "/data0/tzh/champsim_traces/QMM/srv_69_new.xz")
*** Reached end of trace: (0, "/data0/tzh/champsim_traces/QMM/srv_69_new.xz")
Simulation finished CPU 0 instructions: 50000001 cycles: 30857383 cumulative IPC: 1.62 (Simulation time: 00 hr 05 min 05 sec)
Simulation complete CPU 0 instructions: 50000001 cycles: 30857383 cumulative IPC: 1.62 (Simulation time: 00 hr 05 min 05 sec)

ChampSim completed all CPUs

=== Simulation ===
CPU 0 runs /data0/tzh/champsim_traces/QMM/srv_69_new.xz

Region of Interest Statistics

CPU 0 cumulative IPC: 1.62 instructions: 50000001 cycles: 30857383
CPU 0 Branch Prediction Accuracy: 97% MPKI: 5.41 Average ROB Occupancy at Mispredict: 67.05
Branch type MPKI
BRANCH_DIRECT_JUMP: 0.401
BRANCH_INDIRECT: 0.5844
BRANCH_CONDITIONAL: 2.817
BRANCH_DIRECT_CALL: 0.764
BRANCH_INDIRECT_CALL: 0.1845
BRANCH_RETURN: 0.6597

cpu0->cpu0_STLB TOTAL        ACCESS:     819175 HIT:     818608 MISS:        567 MSHR_MERGE:          0
cpu0->cpu0_STLB LOAD         ACCESS:     819175 HIT:     818608 MISS:        567 MSHR_MERGE:          0
cpu0->cpu0_STLB RFO          ACCESS:          0 HIT:          0 MISS:          0 MSHR_MERGE:          0
cpu0->cpu0_STLB PREFETCH     ACCESS:          0 HIT:          0 MISS:          0 MSHR_MERGE:          0
cpu0->cpu0_STLB WRITE        ACCESS:          0 HIT:          0 MISS:          0 MSHR_MERGE:          0
cpu0->cpu0_STLB TRANSLATION  ACCESS:          0 HIT:          0 MISS:          0 MSHR_MERGE:          0
cpu0->cpu0_STLB PREFETCH REQUESTED:          0 ISSUED:          0 USEFUL:          0 USELESS:          0 LATE:          0
cpu0->cpu0_STLB AVERAGE MISS LATENCY: 410.1 cycles
cpu0->cpu0_L2C TOTAL        ACCESS:    2368944 HIT:    1270863 MISS:    1098081 MSHR_MERGE:      13317
cpu0->cpu0_L2C LOAD         ACCESS:    1734666 HIT:     881501 MISS:     853165 MSHR_MERGE:        210
cpu0->cpu0_L2C RFO          ACCESS:      78943 HIT:      33343 MISS:      45600 MSHR_MERGE:         34
cpu0->cpu0_L2C PREFETCH     ACCESS:     299044 HIT:     101862 MISS:     197182 MSHR_MERGE:      13073
cpu0->cpu0_L2C WRITE        ACCESS:     255578 HIT:     254105 MISS:       1473 MSHR_MERGE:          0
cpu0->cpu0_L2C TRANSLATION  ACCESS:        713 HIT:         52 MISS:        661 MSHR_MERGE:          0
cpu0->cpu0_L2C PREFETCH REQUESTED:      56420 ISSUED:      52058 USEFUL:      15948 USELESS:       7473 LATE:        244
cpu0->cpu0_L2C AVERAGE MISS LATENCY: 24.52 cycles
cpu0->cpu0_L1I TOTAL        ACCESS:    7568392 HIT:    5573745 MISS:    1994647 MSHR_MERGE:     732108
cpu0->cpu0_L1I LOAD         ACCESS:    7568392 HIT:    5573745 MISS:    1994647 MSHR_MERGE:     732108
cpu0->cpu0_L1I RFO          ACCESS:          0 HIT:          0 MISS:          0 MSHR_MERGE:          0
cpu0->cpu0_L1I PREFETCH     ACCESS:          0 HIT:          0 MISS:          0 MSHR_MERGE:          0
cpu0->cpu0_L1I WRITE        ACCESS:          0 HIT:          0 MISS:          0 MSHR_MERGE:          0
cpu0->cpu0_L1I TRANSLATION  ACCESS:          0 HIT:          0 MISS:          0 MSHR_MERGE:          0
cpu0->cpu0_L1I PREFETCH REQUESTED:          0 ISSUED:          0 USEFUL:          0 USELESS:          0 LATE:          0
cpu0->cpu0_L1I AVERAGE MISS LATENCY: 15.87 cycles
cpu0->cpu0_L1D TOTAL        ACCESS:   12176747 HIT:   11060657 MISS:    1116090 MSHR_MERGE:     317301
cpu0->cpu0_L1D LOAD         ACCESS:    6775748 HIT:    6144674 MISS:     631074 MSHR_MERGE:     158937
cpu0->cpu0_L1D RFO          ACCESS:          0 HIT:          0 MISS:          0 MSHR_MERGE:          0
cpu0->cpu0_L1D PREFETCH     ACCESS:     432579 HIT:     170443 MISS:     262136 MSHR_MERGE:      15146
cpu0->cpu0_L1D WRITE        ACCESS:    4967053 HIT:    4744887 MISS:     222166 MSHR_MERGE:     143217
cpu0->cpu0_L1D TRANSLATION  ACCESS:       1367 HIT:        653 MISS:        714 MSHR_MERGE:          1
cpu0->cpu0_L1D PREFETCH REQUESTED:     436778 ISSUED:     432581 USEFUL:      96328 USELESS:     150637 LATE:       9562
cpu0->cpu0_L1D AVERAGE MISS LATENCY: 30.35 cycles
cpu0->cpu0_ITLB TOTAL        ACCESS:    6401441 HIT:    5940416 MISS:     461025 MSHR_MERGE:     268253
cpu0->cpu0_ITLB LOAD         ACCESS:    6401441 HIT:    5940416 MISS:     461025 MSHR_MERGE:     268253
cpu0->cpu0_ITLB RFO          ACCESS:          0 HIT:          0 MISS:          0 MSHR_MERGE:          0
cpu0->cpu0_ITLB PREFETCH     ACCESS:          0 HIT:          0 MISS:          0 MSHR_MERGE:          0
cpu0->cpu0_ITLB WRITE        ACCESS:          0 HIT:          0 MISS:          0 MSHR_MERGE:          0
cpu0->cpu0_ITLB TRANSLATION  ACCESS:          0 HIT:          0 MISS:          0 MSHR_MERGE:          0
cpu0->cpu0_ITLB PREFETCH REQUESTED:          0 ISSUED:          0 USEFUL:          0 USELESS:          0 LATE:          0
cpu0->cpu0_ITLB AVERAGE MISS LATENCY: 5.038 cycles
cpu0->cpu0_DTLB TOTAL        ACCESS:   11436487 HIT:   10612080 MISS:     824407 MSHR_MERGE:     198004
cpu0->cpu0_DTLB LOAD         ACCESS:   11436487 HIT:   10612080 MISS:     824407 MSHR_MERGE:     198004
cpu0->cpu0_DTLB RFO          ACCESS:          0 HIT:          0 MISS:          0 MSHR_MERGE:          0
cpu0->cpu0_DTLB PREFETCH     ACCESS:          0 HIT:          0 MISS:          0 MSHR_MERGE:          0
cpu0->cpu0_DTLB WRITE        ACCESS:          0 HIT:          0 MISS:          0 MSHR_MERGE:          0
cpu0->cpu0_DTLB TRANSLATION  ACCESS:          0 HIT:          0 MISS:          0 MSHR_MERGE:          0
cpu0->cpu0_DTLB PREFETCH REQUESTED:          0 ISSUED:          0 USEFUL:          0 USELESS:          0 LATE:          0
cpu0->cpu0_DTLB AVERAGE MISS LATENCY: 5.377 cycles
cpu0->LLC TOTAL        ACCESS:    1236022 HIT:    1118825 MISS:     117197 MSHR_MERGE:         21
cpu0->LLC LOAD         ACCESS:     852955 HIT:     819149 MISS:      33806 MSHR_MERGE:          1
cpu0->LLC RFO          ACCESS:      45566 HIT:      35343 MISS:      10223 MSHR_MERGE:          0
cpu0->LLC PREFETCH     ACCESS:     184109 HIT:     114396 MISS:      69713 MSHR_MERGE:         20
cpu0->LLC WRITE        ACCESS:     152731 HIT:     149740 MISS:       2991 MSHR_MERGE:          0
cpu0->LLC TRANSLATION  ACCESS:        661 HIT:        197 MISS:        464 MSHR_MERGE:          0
cpu0->LLC PREFETCH REQUESTED:          0 ISSUED:          0 USEFUL:          0 USELESS:          0 LATE:          0
cpu0->LLC AVERAGE MISS LATENCY: 180.1 cycles

DRAM Statistics

Channel 0 RQ ROW_BUFFER_HIT:       3067
  ROW_BUFFER_MISS:     111113
  AVG DBUS CONGESTED CYCLE: 15.3
Channel 0 WQ ROW_BUFFER_HIT:      11641
  ROW_BUFFER_MISS:      42272
  FULL:          0
Channel 0 REFRESHES ISSUED:       2571

[ROI Statistics]
[System Configuration]
num_cpus 1
cpu_freq 4000
fetch_width 6
decode_width 6
dispatch_width 6
execute_width 6
lq_width 2
sq_width 2
retire_width 6
scheduler_size 128
branch_mispredict_penalty 15
rob_size 352
lq_size 128
sq_size 72
ifetch_buffer_size 64
decode_buffer_size 32
dispatch_buffer_size 32
register_file_size 288
decode_latency 1
dispatch_latency 1
schedule_latency 1
execute_latency 1
page_size 4096
block_size 64
core_0_itlb_set 16
core_0_itlb_way 4
core_0_itlb_rq_size 16
core_0_itlb_wq_size 16
core_0_itlb_pq_size 0
core_0_itlb_mshr_size 8
core_0_itlb_hit_latency 1
core_0_itlb_fill_latency 1
core_0_itlb_max_tag_check 2
core_0_itlb_max_fill 2
core_0_dtlb_set 16
core_0_dtlb_way 4
core_0_dtlb_rq_size 16
core_0_dtlb_wq_size 16
core_0_dtlb_pq_size 0
core_0_dtlb_mshr_size 8
core_0_dtlb_hit_latency 1
core_0_dtlb_fill_latency 1
core_0_dtlb_max_tag_check 2
core_0_dtlb_max_fill 2
core_0_stlb_set 262144
core_0_stlb_way 16
core_0_stlb_rq_size 32
core_0_stlb_wq_size 32
core_0_stlb_pq_size 0
core_0_stlb_mshr_size 16
core_0_stlb_hit_latency 4
core_0_stlb_fill_latency 4
core_0_stlb_max_tag_check 1
core_0_stlb_max_fill 1
core_0_l1i_set 64
core_0_l1i_way 8
core_0_l1i_rq_size 64
core_0_l1i_wq_size 64
core_0_l1i_pq_size 32
core_0_l1i_mshr_size 8
core_0_l1i_hit_latency 2
core_0_l1i_fill_latency 2
core_0_l1i_max_tag_check 2
core_0_l1i_max_fill 2
core_0_l1d_set 64
core_0_l1d_way 12
core_0_l1d_rq_size 64
core_0_l1d_wq_size 64
core_0_l1d_pq_size 8
core_0_l1d_mshr_size 16
core_0_l1d_hit_latency 2
core_0_l1d_fill_latency 3
core_0_l1d_max_tag_check 2
core_0_l1d_max_fill 2
core_0_l2c_set 1024
core_0_l2c_way 8
core_0_l2c_rq_size 32
core_0_l2c_wq_size 32
core_0_l2c_pq_size 16
core_0_l2c_mshr_size 32
core_0_l2c_hit_latency 5
core_0_l2c_fill_latency 5
core_0_l2c_max_tag_check 1
core_0_l2c_max_fill 1
llc_set 2048
llc_way 16
llc_rq_size 32
llc_wq_size 32
llc_pq_size 32
llc_mshr_size 64
llc_hit_latency 10
llc_fill_latency 10
llc_max_tag_check 1
llc_max_fill 1
dram_channels 1
dram_ranks 1
dram_bankgroups 8
dram_banks 4
dram_rows 65536
dram_columns 1024
dram_channel_width 8
dram_rq_size 64
dram_wq_size 64
dram_size 17179869184
core_0_itlb_prefetcher no
core_0_dtlb_prefetcher no
core_0_stlb_prefetcher no
core_0_l1i_prefetcher next_line
core_0_l1d_prefetcher berti
core_0_l2c_prefetcher ip_stride
llc_prefetcher no
llc_replacement drrip

Core_0_instructions 50000001
Core_0_cycles 30857383
Core_0_IPC 1.62036
Core_0_branch_prediction_accuracy 96.9982
Core_0_branch_MPKI 5.41038
Core_0_average_ROB_occupancy_at_mispredict 67.0477

Core_0_ITLB_total_access 6401441
Core_0_ITLB_total_hit 5940416
Core_0_ITLB_total_miss 461025
Core_0_ITLB_total_MPKI 9.2205
Core_0_ITLB_total_miss_rate 0.0720189
Core_0_ITLB_demand_access 6401441
Core_0_ITLB_demand_hit 5940416
Core_0_ITLB_demand_miss 461025
Core_0_ITLB_demand_MPKI 9.2205
Core_0_ITLB_demand_miss_rate 0.0720189
Core_0_ITLB_load_access 6401441
Core_0_ITLB_load_hit 5940416
Core_0_ITLB_load_miss 461025
Core_0_ITLB_load_MPKI 9.2205
Core_0_ITLB_load_miss_rate 0.0720189
Core_0_ITLB_rfo_access 0
Core_0_ITLB_rfo_hit 0
Core_0_ITLB_rfo_miss 0
Core_0_ITLB_rfo_MPKI 0
Core_0_ITLB_rfo_miss_rate 0
Core_0_ITLB_prefetch_access 0
Core_0_ITLB_prefetch_hit 0
Core_0_ITLB_prefetch_miss 0
Core_0_ITLB_prefetch_MPKI 0
Core_0_ITLB_prefetch_miss_rate 0
Core_0_ITLB_writeback_access 0
Core_0_ITLB_writeback_hit 0
Core_0_ITLB_writeback_miss 0
Core_0_ITLB_writeback_MPKI 0
Core_0_ITLB_writeback_miss_rate 0
Core_0_ITLB_prefetch_requested 0
Core_0_ITLB_prefetch_issued 0
Core_0_ITLB_prefetch_useful 0
Core_0_ITLB_prefetch_useless 0
Core_0_ITLB_prefetch_late 0
Core_0_ITLB_prefetch_accuracy 0
Core_0_ITLB_prefetch_coverage 0
Core_0_ITLB_total_eviction 0

Core_0_DTLB_total_access 11436487
Core_0_DTLB_total_hit 10612080
Core_0_DTLB_total_miss 824407
Core_0_DTLB_total_MPKI 16.4881
Core_0_DTLB_total_miss_rate 0.0720857
Core_0_DTLB_demand_access 11436487
Core_0_DTLB_demand_hit 10612080
Core_0_DTLB_demand_miss 824407
Core_0_DTLB_demand_MPKI 16.4881
Core_0_DTLB_demand_miss_rate 0.0720857
Core_0_DTLB_load_access 11436487
Core_0_DTLB_load_hit 10612080
Core_0_DTLB_load_miss 824407
Core_0_DTLB_load_MPKI 16.4881
Core_0_DTLB_load_miss_rate 0.0720857
Core_0_DTLB_rfo_access 0
Core_0_DTLB_rfo_hit 0
Core_0_DTLB_rfo_miss 0
Core_0_DTLB_rfo_MPKI 0
Core_0_DTLB_rfo_miss_rate 0
Core_0_DTLB_prefetch_access 0
Core_0_DTLB_prefetch_hit 0
Core_0_DTLB_prefetch_miss 0
Core_0_DTLB_prefetch_MPKI 0
Core_0_DTLB_prefetch_miss_rate 0
Core_0_DTLB_writeback_access 0
Core_0_DTLB_writeback_hit 0
Core_0_DTLB_writeback_miss 0
Core_0_DTLB_writeback_MPKI 0
Core_0_DTLB_writeback_miss_rate 0
Core_0_DTLB_prefetch_requested 0
Core_0_DTLB_prefetch_issued 0
Core_0_DTLB_prefetch_useful 0
Core_0_DTLB_prefetch_useless 0
Core_0_DTLB_prefetch_late 0
Core_0_DTLB_prefetch_accuracy 0
Core_0_DTLB_prefetch_coverage 0
Core_0_DTLB_total_eviction 0

Core_0_STLB_total_access 819175
Core_0_STLB_total_hit 818608
Core_0_STLB_total_miss 567
Core_0_STLB_total_MPKI 0.01134
Core_0_STLB_total_miss_rate 0.00069216
Core_0_STLB_demand_access 819175
Core_0_STLB_demand_hit 818608
Core_0_STLB_demand_miss 567
Core_0_STLB_demand_MPKI 0.01134
Core_0_STLB_demand_miss_rate 0.00069216
Core_0_STLB_load_access 819175
Core_0_STLB_load_hit 818608
Core_0_STLB_load_miss 567
Core_0_STLB_load_MPKI 0.01134
Core_0_STLB_load_miss_rate 0.00069216
Core_0_STLB_rfo_access 0
Core_0_STLB_rfo_hit 0
Core_0_STLB_rfo_miss 0
Core_0_STLB_rfo_MPKI 0
Core_0_STLB_rfo_miss_rate 0
Core_0_STLB_prefetch_access 0
Core_0_STLB_prefetch_hit 0
Core_0_STLB_prefetch_miss 0
Core_0_STLB_prefetch_MPKI 0
Core_0_STLB_prefetch_miss_rate 0
Core_0_STLB_writeback_access 0
Core_0_STLB_writeback_hit 0
Core_0_STLB_writeback_miss 0
Core_0_STLB_writeback_MPKI 0
Core_0_STLB_writeback_miss_rate 0
Core_0_STLB_prefetch_requested 0
Core_0_STLB_prefetch_issued 0
Core_0_STLB_prefetch_useful 0
Core_0_STLB_prefetch_useless 0
Core_0_STLB_prefetch_late 0
Core_0_STLB_prefetch_accuracy 0
Core_0_STLB_prefetch_coverage 0
Core_0_STLB_total_eviction 0

Core_0_L1I_total_access 7568392
Core_0_L1I_total_hit 5573745
Core_0_L1I_total_miss 1994647
Core_0_L1I_total_MPKI 39.8929
Core_0_L1I_total_miss_rate 0.26355
Core_0_L1I_demand_access 7568392
Core_0_L1I_demand_hit 5573745
Core_0_L1I_demand_miss 1994647
Core_0_L1I_demand_MPKI 39.8929
Core_0_L1I_demand_miss_rate 0.26355
Core_0_L1I_load_access 7568392
Core_0_L1I_load_hit 5573745
Core_0_L1I_load_miss 1994647
Core_0_L1I_load_MPKI 39.8929
Core_0_L1I_load_miss_rate 0.26355
Core_0_L1I_rfo_access 0
Core_0_L1I_rfo_hit 0
Core_0_L1I_rfo_miss 0
Core_0_L1I_rfo_MPKI 0
Core_0_L1I_rfo_miss_rate 0
Core_0_L1I_prefetch_access 0
Core_0_L1I_prefetch_hit 0
Core_0_L1I_prefetch_miss 0
Core_0_L1I_prefetch_MPKI 0
Core_0_L1I_prefetch_miss_rate 0
Core_0_L1I_writeback_access 0
Core_0_L1I_writeback_hit 0
Core_0_L1I_writeback_miss 0
Core_0_L1I_writeback_MPKI 0
Core_0_L1I_writeback_miss_rate 0
Core_0_L1I_prefetch_requested 0
Core_0_L1I_prefetch_issued 0
Core_0_L1I_prefetch_useful 0
Core_0_L1I_prefetch_useless 0
Core_0_L1I_prefetch_late 0
Core_0_L1I_prefetch_accuracy 0
Core_0_L1I_prefetch_coverage 0
Core_0_L1I_total_eviction 0

Core_0_L1D_total_access 12175380
Core_0_L1D_total_hit 11060004
Core_0_L1D_total_miss 1115376
Core_0_L1D_total_MPKI 22.3075
Core_0_L1D_total_miss_rate 0.0916091
Core_0_L1D_demand_access 6775748
Core_0_L1D_demand_hit 6144674
Core_0_L1D_demand_miss 631074
Core_0_L1D_demand_MPKI 12.6215
Core_0_L1D_demand_miss_rate 0.0931372
Core_0_L1D_load_access 6775748
Core_0_L1D_load_hit 6144674
Core_0_L1D_load_miss 631074
Core_0_L1D_load_MPKI 12.6215
Core_0_L1D_load_miss_rate 0.0931372
Core_0_L1D_rfo_access 0
Core_0_L1D_rfo_hit 0
Core_0_L1D_rfo_miss 0
Core_0_L1D_rfo_MPKI 0
Core_0_L1D_rfo_miss_rate 0
Core_0_L1D_prefetch_access 432579
Core_0_L1D_prefetch_hit 170443
Core_0_L1D_prefetch_miss 262136
Core_0_L1D_prefetch_MPKI 5.24272
Core_0_L1D_prefetch_miss_rate 0.605984
Core_0_L1D_writeback_access 4967053
Core_0_L1D_writeback_hit 4744887
Core_0_L1D_writeback_miss 222166
Core_0_L1D_writeback_MPKI 4.44332
Core_0_L1D_writeback_miss_rate 0.0447279
Core_0_L1D_prefetch_requested 436778
Core_0_L1D_prefetch_issued 432581
Core_0_L1D_prefetch_useful 96328
Core_0_L1D_prefetch_useless 150637
Core_0_L1D_prefetch_late 9562
Core_0_L1D_prefetch_accuracy 0.222682
Core_0_L1D_prefetch_coverage 0.132427
Core_0_L1D_total_eviction 0

Core_0_L2C_total_access 2368231
Core_0_L2C_total_hit 1270811
Core_0_L2C_total_miss 1097420
Core_0_L2C_total_MPKI 21.9484
Core_0_L2C_total_miss_rate 0.463392
Core_0_L2C_demand_access 1813609
Core_0_L2C_demand_hit 914844
Core_0_L2C_demand_miss 898765
Core_0_L2C_demand_MPKI 17.9753
Core_0_L2C_demand_miss_rate 0.495567
Core_0_L2C_load_access 1734666
Core_0_L2C_load_hit 881501
Core_0_L2C_load_miss 853165
Core_0_L2C_load_MPKI 17.0633
Core_0_L2C_load_miss_rate 0.491832
Core_0_L2C_rfo_access 78943
Core_0_L2C_rfo_hit 33343
Core_0_L2C_rfo_miss 45600
Core_0_L2C_rfo_MPKI 0.912
Core_0_L2C_rfo_miss_rate 0.577632
Core_0_L2C_prefetch_access 299044
Core_0_L2C_prefetch_hit 101862
Core_0_L2C_prefetch_miss 197182
Core_0_L2C_prefetch_MPKI 3.94364
Core_0_L2C_prefetch_miss_rate 0.659375
Core_0_L2C_writeback_access 255578
Core_0_L2C_writeback_hit 254105
Core_0_L2C_writeback_miss 1473
Core_0_L2C_writeback_MPKI 0.02946
Core_0_L2C_writeback_miss_rate 0.00576341
Core_0_L2C_prefetch_requested 56420
Core_0_L2C_prefetch_issued 52058
Core_0_L2C_prefetch_useful 15948
Core_0_L2C_prefetch_useless 7473
Core_0_L2C_prefetch_late 244
Core_0_L2C_prefetch_accuracy 0.306351
Core_0_L2C_prefetch_coverage 0.017435
Core_0_L2C_total_eviction 0

Core_0_LLC_total_access 1235361
Core_0_LLC_total_hit 1118628
Core_0_LLC_total_miss 116733
Core_0_LLC_total_MPKI 2.33466
Core_0_LLC_total_miss_rate 0.094493
Core_0_LLC_demand_access 898521
Core_0_LLC_demand_hit 854492
Core_0_LLC_demand_miss 44029
Core_0_LLC_demand_MPKI 0.88058
Core_0_LLC_demand_miss_rate 0.0490016
Core_0_LLC_load_access 852955
Core_0_LLC_load_hit 819149
Core_0_LLC_load_miss 33806
Core_0_LLC_load_MPKI 0.67612
Core_0_LLC_load_miss_rate 0.039634
Core_0_LLC_rfo_access 45566
Core_0_LLC_rfo_hit 35343
Core_0_LLC_rfo_miss 10223
Core_0_LLC_rfo_MPKI 0.20446
Core_0_LLC_rfo_miss_rate 0.224356
Core_0_LLC_prefetch_access 184109
Core_0_LLC_prefetch_hit 114396
Core_0_LLC_prefetch_miss 69713
Core_0_LLC_prefetch_MPKI 1.39426
Core_0_LLC_prefetch_miss_rate 0.378651
Core_0_LLC_writeback_access 152731
Core_0_LLC_writeback_hit 149740
Core_0_LLC_writeback_miss 2991
Core_0_LLC_writeback_MPKI 0.05982
Core_0_LLC_writeback_miss_rate 0.0195835
Core_0_LLC_prefetch_requested 0
Core_0_LLC_prefetch_issued 0
Core_0_LLC_prefetch_useful 0
Core_0_LLC_prefetch_useless 0
Core_0_LLC_prefetch_late 0
Core_0_LLC_prefetch_accuracy 0
Core_0_LLC_prefetch_coverage 0
Core_0_LLC_total_eviction 0

[DRAM Statistics]
Channel_0_RQ_row_buffer_hit 3067
Channel_0_RQ_row_buffer_miss 111113
Channel_0_WQ_row_buffer_hit 11641
Channel_0_WQ_row_buffer_miss 42272
Channel_0_WQ_full 0
Channel_0_dbus_congested 436240
DRAM_total_RQ_row_buffer_hit 3067
DRAM_total_RQ_row_buffer_miss 111113
DRAM_total_WQ_row_buffer_hit 11641
DRAM_total_WQ_row_buffer_miss 42272
DRAM_total_WQ_full 0
DRAM_total_dbus_congested 436240
DRAM_avg_congested_cycle 15.2993

======STLB miss causes ========
Core_0_STLB_miss_cause_breakdown
Core_0_STLB_cause_Demand_Data_miss 204
Core_0_STLB_cause_Demand_Data_miss_rate 0.000249031
Core_0_STLB_cause_Demand_Instruction_miss 6
Core_0_STLB_cause_Demand_Instruction_miss_rate 7.32444e-06
Core_0_STLB_cause_L1D_Prefetch_miss 357
Core_0_STLB_cause_L1D_Prefetch_miss_rate 0.000435804
Core_0_STLB_cause_L1I_Prefetch_miss 0
Core_0_STLB_cause_L1I_Prefetch_miss_rate 0
Core_0_STLB_cause_Other_miss 0
Core_0_STLB_cause_Other_miss_rate 0
Core_0_STLB_Demand_miss 210
Core_0_STLB_Demand_miss_rate 0.000256355
Core_0_STLB_L1D_Prefetch_miss 357
Core_0_STLB_L1D_Prefetch_miss_rate 0.000435804
Core_0_STLB_Other_miss 0
Core_0_STLB_Other_miss_rate 0
