[VMEM] WARNING: physical memory size is smaller than virtual memory size.

*** ChampSim Multicore Out-of-Order Simulator ***
Warmup Instructions: 20000000
Simulation Instructions: 50000000
Number of CPUs: 1
Page size: 4096
STLB ideal mode: off
STLB ideal fill: off
Core 0: /data0/tzh/champsim_traces/QMM/srv_67_new.xz
 L1D Berti prefetcher
Off-chip DRAM Size: 16 GiB Channels: 1 Width: 64-bit Data Rate: 3205 MT/s
[BTB] WARNING: target of return is a lower address than the corresponding call. This is usually a problem with your trace.
[BTB] WARNING: target of return is a lower address than the corresponding call. This is usually a problem with your trace.
[BTB] WARNING: target of return is a lower address than the corresponding call. This is usually a problem with your trace.
[BTB] WARNING: target of return is a lower address than the corresponding call. This is usually a problem with your trace.
[BTB] WARNING: target of return is a lower address than the corresponding call. This is usually a problem with your trace.
[BTB] WARNING: target of return is a lower address than the corresponding call. This is usually a problem with your trace.
[BTB] WARNING: target of return is a lower address than the corresponding call. This is usually a problem with your trace.
[BTB] WARNING: target of return is a lower address than the corresponding call. This is usually a problem with your trace.
[BTB] WARNING: target of return is a lower address than the corresponding call. This is usually a problem with your trace.
[BTB] WARNING: target of return is a lower address than the corresponding call. This is usually a problem with your trace.
Warmup halting CPU 0 at instruction 20000004 cycle 4451379 for remainder of phase
Warmup finished CPU 0 instructions: 20000004 cycles: 4451379 cumulative IPC: 4.493 (Simulation time: 00 hr 01 min 05 sec)
Warmup complete CPU 0 instructions: 20000004 cycles: 4451379 cumulative IPC: 4.493 (Simulation time: 00 hr 01 min 05 sec)
*** Reached end of trace: (0, "/data0/tzh/champsim_traces/QMM/srv_67_new.xz")
*** Reached end of trace: (0, "/data0/tzh/champsim_traces/QMM/srv_67_new.xz")
Simulation finished CPU 0 instructions: 50000001 cycles: 25036224 cumulative IPC: 1.997 (Simulation time: 00 hr 05 min 22 sec)
Simulation complete CPU 0 instructions: 50000001 cycles: 25036224 cumulative IPC: 1.997 (Simulation time: 00 hr 05 min 22 sec)

ChampSim completed all CPUs

=== Simulation ===
CPU 0 runs /data0/tzh/champsim_traces/QMM/srv_67_new.xz

Region of Interest Statistics

CPU 0 cumulative IPC: 1.997 instructions: 50000001 cycles: 25036224
CPU 0 Branch Prediction Accuracy: 98.62% MPKI: 2.47 Average ROB Occupancy at Mispredict: 119.7
Branch type MPKI
BRANCH_DIRECT_JUMP: 0.1459
BRANCH_INDIRECT: 0.2109
BRANCH_CONDITIONAL: 1.475
BRANCH_DIRECT_CALL: 0.2678
BRANCH_INDIRECT_CALL: 0.1081
BRANCH_RETURN: 0.2629

cpu0->cpu0_STLB TOTAL        ACCESS:     833666 HIT:     832382 MISS:       1284 MSHR_MERGE:          0
cpu0->cpu0_STLB LOAD         ACCESS:     833666 HIT:     832382 MISS:       1284 MSHR_MERGE:          0
cpu0->cpu0_STLB RFO          ACCESS:          0 HIT:          0 MISS:          0 MSHR_MERGE:          0
cpu0->cpu0_STLB PREFETCH     ACCESS:          0 HIT:          0 MISS:          0 MSHR_MERGE:          0
cpu0->cpu0_STLB WRITE        ACCESS:          0 HIT:          0 MISS:          0 MSHR_MERGE:          0
cpu0->cpu0_STLB TRANSLATION  ACCESS:          0 HIT:          0 MISS:          0 MSHR_MERGE:          0
cpu0->cpu0_STLB PREFETCH REQUESTED:          0 ISSUED:          0 USEFUL:          0 USELESS:          0 LATE:          0
cpu0->cpu0_STLB AVERAGE MISS LATENCY: 390.9 cycles
cpu0->cpu0_L2C TOTAL        ACCESS:    2346047 HIT:    1472625 MISS:     873422 MSHR_MERGE:      16102
cpu0->cpu0_L2C LOAD         ACCESS:    1721131 HIT:    1062951 MISS:     658180 MSHR_MERGE:        125
cpu0->cpu0_L2C RFO          ACCESS:      75118 HIT:      37537 MISS:      37581 MSHR_MERGE:         42
cpu0->cpu0_L2C PREFETCH     ACCESS:     286020 HIT:     111552 MISS:     174468 MSHR_MERGE:      15935
cpu0->cpu0_L2C WRITE        ACCESS:     262171 HIT:     260463 MISS:       1708 MSHR_MERGE:          0
cpu0->cpu0_L2C TRANSLATION  ACCESS:       1607 HIT:        122 MISS:       1485 MSHR_MERGE:          0
cpu0->cpu0_L2C PREFETCH REQUESTED:      46130 ISSUED:      46089 USEFUL:      16033 USELESS:       6215 LATE:        167
cpu0->cpu0_L2C AVERAGE MISS LATENCY: 27.4 cycles
cpu0->cpu0_L1I TOTAL        ACCESS:    7845639 HIT:    5799733 MISS:    2045906 MSHR_MERGE:     787156
cpu0->cpu0_L1I LOAD         ACCESS:    7845639 HIT:    5799733 MISS:    2045906 MSHR_MERGE:     787156
cpu0->cpu0_L1I RFO          ACCESS:          0 HIT:          0 MISS:          0 MSHR_MERGE:          0
cpu0->cpu0_L1I PREFETCH     ACCESS:          0 HIT:          0 MISS:          0 MSHR_MERGE:          0
cpu0->cpu0_L1I WRITE        ACCESS:          0 HIT:          0 MISS:          0 MSHR_MERGE:          0
cpu0->cpu0_L1I TRANSLATION  ACCESS:          0 HIT:          0 MISS:          0 MSHR_MERGE:          0
cpu0->cpu0_L1I PREFETCH REQUESTED:          0 ISSUED:          0 USEFUL:          0 USELESS:          0 LATE:          0
cpu0->cpu0_L1I AVERAGE MISS LATENCY: 13.98 cycles
cpu0->cpu0_L1D TOTAL        ACCESS:   11832298 HIT:   10751610 MISS:    1080688 MSHR_MERGE:     301631
cpu0->cpu0_L1D LOAD         ACCESS:    6442209 HIT:    5818601 MISS:     623608 MSHR_MERGE:     161218
cpu0->cpu0_L1D RFO          ACCESS:          0 HIT:          0 MISS:          0 MSHR_MERGE:          0
cpu0->cpu0_L1D PREFETCH     ACCESS:     412007 HIT:     155666 MISS:     256341 MSHR_MERGE:      16407
cpu0->cpu0_L1D WRITE        ACCESS:    4974854 HIT:    4775727 MISS:     199127 MSHR_MERGE:     124001
cpu0->cpu0_L1D TRANSLATION  ACCESS:       3228 HIT:       1616 MISS:       1612 MSHR_MERGE:          5
cpu0->cpu0_L1D PREFETCH REQUESTED:     414033 ISSUED:     412006 USEFUL:     100402 USELESS:     139486 LATE:       9712
cpu0->cpu0_L1D AVERAGE MISS LATENCY: 29.89 cycles
cpu0->cpu0_ITLB TOTAL        ACCESS:    6675438 HIT:    6217097 MISS:     458341 MSHR_MERGE:     269150
cpu0->cpu0_ITLB LOAD         ACCESS:    6675438 HIT:    6217097 MISS:     458341 MSHR_MERGE:     269150
cpu0->cpu0_ITLB RFO          ACCESS:          0 HIT:          0 MISS:          0 MSHR_MERGE:          0
cpu0->cpu0_ITLB PREFETCH     ACCESS:          0 HIT:          0 MISS:          0 MSHR_MERGE:          0
cpu0->cpu0_ITLB WRITE        ACCESS:          0 HIT:          0 MISS:          0 MSHR_MERGE:          0
cpu0->cpu0_ITLB TRANSLATION  ACCESS:          0 HIT:          0 MISS:          0 MSHR_MERGE:          0
cpu0->cpu0_ITLB PREFETCH REQUESTED:          0 ISSUED:          0 USEFUL:          0 USELESS:          0 LATE:          0
cpu0->cpu0_ITLB AVERAGE MISS LATENCY: 5.078 cycles
cpu0->cpu0_DTLB TOTAL        ACCESS:   11056827 HIT:   10205108 MISS:     851719 MSHR_MERGE:     207244
cpu0->cpu0_DTLB LOAD         ACCESS:   11056827 HIT:   10205108 MISS:     851719 MSHR_MERGE:     207244
cpu0->cpu0_DTLB RFO          ACCESS:          0 HIT:          0 MISS:          0 MSHR_MERGE:          0
cpu0->cpu0_DTLB PREFETCH     ACCESS:          0 HIT:          0 MISS:          0 MSHR_MERGE:          0
cpu0->cpu0_DTLB WRITE        ACCESS:          0 HIT:          0 MISS:          0 MSHR_MERGE:          0
cpu0->cpu0_DTLB TRANSLATION  ACCESS:          0 HIT:          0 MISS:          0 MSHR_MERGE:          0
cpu0->cpu0_DTLB PREFETCH REQUESTED:          0 ISSUED:          0 USEFUL:          0 USELESS:          0 LATE:          0
cpu0->cpu0_DTLB AVERAGE MISS LATENCY: 5.776 cycles
cpu0->LLC TOTAL        ACCESS:     993107 HIT:     885206 MISS:     107901 MSHR_MERGE:          6
cpu0->LLC LOAD         ACCESS:     658055 HIT:     624066 MISS:      33989 MSHR_MERGE:          0
cpu0->LLC RFO          ACCESS:      37539 HIT:      29105 MISS:       8434 MSHR_MERGE:          2
cpu0->LLC PREFETCH     ACCESS:     158532 HIT:      97047 MISS:      61485 MSHR_MERGE:          4
cpu0->LLC WRITE        ACCESS:     137496 HIT:     134460 MISS:       3036 MSHR_MERGE:          0
cpu0->LLC TRANSLATION  ACCESS:       1485 HIT:        528 MISS:        957 MSHR_MERGE:          0
cpu0->LLC PREFETCH REQUESTED:          0 ISSUED:          0 USEFUL:          0 USELESS:          0 LATE:          0
cpu0->LLC AVERAGE MISS LATENCY: 186.2 cycles

DRAM Statistics

Channel 0 RQ ROW_BUFFER_HIT:       3980
  ROW_BUFFER_MISS:     100875
  AVG DBUS CONGESTED CYCLE: 13.95
Channel 0 WQ ROW_BUFFER_HIT:      11670
  ROW_BUFFER_MISS:      43868
  FULL:          0
Channel 0 REFRESHES ISSUED:       2087

[ROI Statistics]
[System Configuration]
num_cpus 1
cpu_freq 4000
fetch_width 6
decode_width 6
dispatch_width 6
execute_width 6
lq_width 2
sq_width 2
retire_width 6
scheduler_size 128
branch_mispredict_penalty 15
rob_size 352
lq_size 128
sq_size 72
ifetch_buffer_size 64
decode_buffer_size 32
dispatch_buffer_size 32
register_file_size 288
decode_latency 1
dispatch_latency 1
schedule_latency 1
execute_latency 1
page_size 4096
block_size 64
core_0_itlb_set 16
core_0_itlb_way 4
core_0_itlb_rq_size 16
core_0_itlb_wq_size 16
core_0_itlb_pq_size 0
core_0_itlb_mshr_size 8
core_0_itlb_hit_latency 1
core_0_itlb_fill_latency 1
core_0_itlb_max_tag_check 2
core_0_itlb_max_fill 2
core_0_dtlb_set 16
core_0_dtlb_way 4
core_0_dtlb_rq_size 16
core_0_dtlb_wq_size 16
core_0_dtlb_pq_size 0
core_0_dtlb_mshr_size 8
core_0_dtlb_hit_latency 1
core_0_dtlb_fill_latency 1
core_0_dtlb_max_tag_check 2
core_0_dtlb_max_fill 2
core_0_stlb_set 262144
core_0_stlb_way 16
core_0_stlb_rq_size 32
core_0_stlb_wq_size 32
core_0_stlb_pq_size 0
core_0_stlb_mshr_size 16
core_0_stlb_hit_latency 4
core_0_stlb_fill_latency 4
core_0_stlb_max_tag_check 1
core_0_stlb_max_fill 1
core_0_l1i_set 64
core_0_l1i_way 8
core_0_l1i_rq_size 64
core_0_l1i_wq_size 64
core_0_l1i_pq_size 32
core_0_l1i_mshr_size 8
core_0_l1i_hit_latency 2
core_0_l1i_fill_latency 2
core_0_l1i_max_tag_check 2
core_0_l1i_max_fill 2
core_0_l1d_set 64
core_0_l1d_way 12
core_0_l1d_rq_size 64
core_0_l1d_wq_size 64
core_0_l1d_pq_size 8
core_0_l1d_mshr_size 16
core_0_l1d_hit_latency 2
core_0_l1d_fill_latency 3
core_0_l1d_max_tag_check 2
core_0_l1d_max_fill 2
core_0_l2c_set 1024
core_0_l2c_way 8
core_0_l2c_rq_size 32
core_0_l2c_wq_size 32
core_0_l2c_pq_size 16
core_0_l2c_mshr_size 32
core_0_l2c_hit_latency 5
core_0_l2c_fill_latency 5
core_0_l2c_max_tag_check 1
core_0_l2c_max_fill 1
llc_set 2048
llc_way 16
llc_rq_size 32
llc_wq_size 32
llc_pq_size 32
llc_mshr_size 64
llc_hit_latency 10
llc_fill_latency 10
llc_max_tag_check 1
llc_max_fill 1
dram_channels 1
dram_ranks 1
dram_bankgroups 8
dram_banks 4
dram_rows 65536
dram_columns 1024
dram_channel_width 8
dram_rq_size 64
dram_wq_size 64
dram_size 17179869184
core_0_itlb_prefetcher no
core_0_dtlb_prefetcher no
core_0_stlb_prefetcher no
core_0_l1i_prefetcher next_line
core_0_l1d_prefetcher berti
core_0_l2c_prefetcher ip_stride
llc_prefetcher no
llc_replacement drrip

Core_0_instructions 50000001
Core_0_cycles 25036224
Core_0_IPC 1.99711
Core_0_branch_prediction_accuracy 98.6198
Core_0_branch_MPKI 2.47046
Core_0_average_ROB_occupancy_at_mispredict 119.682

Core_0_ITLB_total_access 6675438
Core_0_ITLB_total_hit 6217097
Core_0_ITLB_total_miss 458341
Core_0_ITLB_total_MPKI 9.16682
Core_0_ITLB_total_miss_rate 0.0686608
Core_0_ITLB_demand_access 6675438
Core_0_ITLB_demand_hit 6217097
Core_0_ITLB_demand_miss 458341
Core_0_ITLB_demand_MPKI 9.16682
Core_0_ITLB_demand_miss_rate 0.0686608
Core_0_ITLB_load_access 6675438
Core_0_ITLB_load_hit 6217097
Core_0_ITLB_load_miss 458341
Core_0_ITLB_load_MPKI 9.16682
Core_0_ITLB_load_miss_rate 0.0686608
Core_0_ITLB_rfo_access 0
Core_0_ITLB_rfo_hit 0
Core_0_ITLB_rfo_miss 0
Core_0_ITLB_rfo_MPKI 0
Core_0_ITLB_rfo_miss_rate 0
Core_0_ITLB_prefetch_access 0
Core_0_ITLB_prefetch_hit 0
Core_0_ITLB_prefetch_miss 0
Core_0_ITLB_prefetch_MPKI 0
Core_0_ITLB_prefetch_miss_rate 0
Core_0_ITLB_writeback_access 0
Core_0_ITLB_writeback_hit 0
Core_0_ITLB_writeback_miss 0
Core_0_ITLB_writeback_MPKI 0
Core_0_ITLB_writeback_miss_rate 0
Core_0_ITLB_prefetch_requested 0
Core_0_ITLB_prefetch_issued 0
Core_0_ITLB_prefetch_useful 0
Core_0_ITLB_prefetch_useless 0
Core_0_ITLB_prefetch_late 0
Core_0_ITLB_prefetch_accuracy 0
Core_0_ITLB_prefetch_coverage 0
Core_0_ITLB_total_eviction 0

Core_0_DTLB_total_access 11056827
Core_0_DTLB_total_hit 10205108
Core_0_DTLB_total_miss 851719
Core_0_DTLB_total_MPKI 17.0344
Core_0_DTLB_total_miss_rate 0.0770311
Core_0_DTLB_demand_access 11056827
Core_0_DTLB_demand_hit 10205108
Core_0_DTLB_demand_miss 851719
Core_0_DTLB_demand_MPKI 17.0344
Core_0_DTLB_demand_miss_rate 0.0770311
Core_0_DTLB_load_access 11056827
Core_0_DTLB_load_hit 10205108
Core_0_DTLB_load_miss 851719
Core_0_DTLB_load_MPKI 17.0344
Core_0_DTLB_load_miss_rate 0.0770311
Core_0_DTLB_rfo_access 0
Core_0_DTLB_rfo_hit 0
Core_0_DTLB_rfo_miss 0
Core_0_DTLB_rfo_MPKI 0
Core_0_DTLB_rfo_miss_rate 0
Core_0_DTLB_prefetch_access 0
Core_0_DTLB_prefetch_hit 0
Core_0_DTLB_prefetch_miss 0
Core_0_DTLB_prefetch_MPKI 0
Core_0_DTLB_prefetch_miss_rate 0
Core_0_DTLB_writeback_access 0
Core_0_DTLB_writeback_hit 0
Core_0_DTLB_writeback_miss 0
Core_0_DTLB_writeback_MPKI 0
Core_0_DTLB_writeback_miss_rate 0
Core_0_DTLB_prefetch_requested 0
Core_0_DTLB_prefetch_issued 0
Core_0_DTLB_prefetch_useful 0
Core_0_DTLB_prefetch_useless 0
Core_0_DTLB_prefetch_late 0
Core_0_DTLB_prefetch_accuracy 0
Core_0_DTLB_prefetch_coverage 0
Core_0_DTLB_total_eviction 0

Core_0_STLB_total_access 833666
Core_0_STLB_total_hit 832382
Core_0_STLB_total_miss 1284
Core_0_STLB_total_MPKI 0.02568
Core_0_STLB_total_miss_rate 0.00154019
Core_0_STLB_demand_access 833666
Core_0_STLB_demand_hit 832382
Core_0_STLB_demand_miss 1284
Core_0_STLB_demand_MPKI 0.02568
Core_0_STLB_demand_miss_rate 0.00154019
Core_0_STLB_load_access 833666
Core_0_STLB_load_hit 832382
Core_0_STLB_load_miss 1284
Core_0_STLB_load_MPKI 0.02568
Core_0_STLB_load_miss_rate 0.00154019
Core_0_STLB_rfo_access 0
Core_0_STLB_rfo_hit 0
Core_0_STLB_rfo_miss 0
Core_0_STLB_rfo_MPKI 0
Core_0_STLB_rfo_miss_rate 0
Core_0_STLB_prefetch_access 0
Core_0_STLB_prefetch_hit 0
Core_0_STLB_prefetch_miss 0
Core_0_STLB_prefetch_MPKI 0
Core_0_STLB_prefetch_miss_rate 0
Core_0_STLB_writeback_access 0
Core_0_STLB_writeback_hit 0
Core_0_STLB_writeback_miss 0
Core_0_STLB_writeback_MPKI 0
Core_0_STLB_writeback_miss_rate 0
Core_0_STLB_prefetch_requested 0
Core_0_STLB_prefetch_issued 0
Core_0_STLB_prefetch_useful 0
Core_0_STLB_prefetch_useless 0
Core_0_STLB_prefetch_late 0
Core_0_STLB_prefetch_accuracy 0
Core_0_STLB_prefetch_coverage 0
Core_0_STLB_total_eviction 0

Core_0_L1I_total_access 7845639
Core_0_L1I_total_hit 5799733
Core_0_L1I_total_miss 2045906
Core_0_L1I_total_MPKI 40.9181
Core_0_L1I_total_miss_rate 0.26077
Core_0_L1I_demand_access 7845639
Core_0_L1I_demand_hit 5799733
Core_0_L1I_demand_miss 2045906
Core_0_L1I_demand_MPKI 40.9181
Core_0_L1I_demand_miss_rate 0.26077
Core_0_L1I_load_access 7845639
Core_0_L1I_load_hit 5799733
Core_0_L1I_load_miss 2045906
Core_0_L1I_load_MPKI 40.9181
Core_0_L1I_load_miss_rate 0.26077
Core_0_L1I_rfo_access 0
Core_0_L1I_rfo_hit 0
Core_0_L1I_rfo_miss 0
Core_0_L1I_rfo_MPKI 0
Core_0_L1I_rfo_miss_rate 0
Core_0_L1I_prefetch_access 0
Core_0_L1I_prefetch_hit 0
Core_0_L1I_prefetch_miss 0
Core_0_L1I_prefetch_MPKI 0
Core_0_L1I_prefetch_miss_rate 0
Core_0_L1I_writeback_access 0
Core_0_L1I_writeback_hit 0
Core_0_L1I_writeback_miss 0
Core_0_L1I_writeback_MPKI 0
Core_0_L1I_writeback_miss_rate 0
Core_0_L1I_prefetch_requested 0
Core_0_L1I_prefetch_issued 0
Core_0_L1I_prefetch_useful 0
Core_0_L1I_prefetch_useless 0
Core_0_L1I_prefetch_late 0
Core_0_L1I_prefetch_accuracy 0
Core_0_L1I_prefetch_coverage 0
Core_0_L1I_total_eviction 0

Core_0_L1D_total_access 11829070
Core_0_L1D_total_hit 10749994
Core_0_L1D_total_miss 1079076
Core_0_L1D_total_MPKI 21.5815
Core_0_L1D_total_miss_rate 0.0912224
Core_0_L1D_demand_access 6442209
Core_0_L1D_demand_hit 5818601
Core_0_L1D_demand_miss 623608
Core_0_L1D_demand_MPKI 12.4722
Core_0_L1D_demand_miss_rate 0.0968003
Core_0_L1D_load_access 6442209
Core_0_L1D_load_hit 5818601
Core_0_L1D_load_miss 623608
Core_0_L1D_load_MPKI 12.4722
Core_0_L1D_load_miss_rate 0.0968003
Core_0_L1D_rfo_access 0
Core_0_L1D_rfo_hit 0
Core_0_L1D_rfo_miss 0
Core_0_L1D_rfo_MPKI 0
Core_0_L1D_rfo_miss_rate 0
Core_0_L1D_prefetch_access 412007
Core_0_L1D_prefetch_hit 155666
Core_0_L1D_prefetch_miss 256341
Core_0_L1D_prefetch_MPKI 5.12682
Core_0_L1D_prefetch_miss_rate 0.622176
Core_0_L1D_writeback_access 4974854
Core_0_L1D_writeback_hit 4775727
Core_0_L1D_writeback_miss 199127
Core_0_L1D_writeback_MPKI 3.98254
Core_0_L1D_writeback_miss_rate 0.0400267
Core_0_L1D_prefetch_requested 414033
Core_0_L1D_prefetch_issued 412006
Core_0_L1D_prefetch_useful 100402
Core_0_L1D_prefetch_useless 139486
Core_0_L1D_prefetch_late 9712
Core_0_L1D_prefetch_accuracy 0.243691
Core_0_L1D_prefetch_coverage 0.138675
Core_0_L1D_total_eviction 0

Core_0_L2C_total_access 2344440
Core_0_L2C_total_hit 1472503
Core_0_L2C_total_miss 871937
Core_0_L2C_total_MPKI 17.4387
Core_0_L2C_total_miss_rate 0.371917
Core_0_L2C_demand_access 1796249
Core_0_L2C_demand_hit 1100488
Core_0_L2C_demand_miss 695761
Core_0_L2C_demand_MPKI 13.9152
Core_0_L2C_demand_miss_rate 0.387341
Core_0_L2C_load_access 1721131
Core_0_L2C_load_hit 1062951
Core_0_L2C_load_miss 658180
Core_0_L2C_load_MPKI 13.1636
Core_0_L2C_load_miss_rate 0.382411
Core_0_L2C_rfo_access 75118
Core_0_L2C_rfo_hit 37537
Core_0_L2C_rfo_miss 37581
Core_0_L2C_rfo_MPKI 0.75162
Core_0_L2C_rfo_miss_rate 0.500293
Core_0_L2C_prefetch_access 286020
Core_0_L2C_prefetch_hit 111552
Core_0_L2C_prefetch_miss 174468
Core_0_L2C_prefetch_MPKI 3.48936
Core_0_L2C_prefetch_miss_rate 0.609985
Core_0_L2C_writeback_access 262171
Core_0_L2C_writeback_hit 260463
Core_0_L2C_writeback_miss 1708
Core_0_L2C_writeback_MPKI 0.03416
Core_0_L2C_writeback_miss_rate 0.00651483
Core_0_L2C_prefetch_requested 46130
Core_0_L2C_prefetch_issued 46089
Core_0_L2C_prefetch_useful 16033
Core_0_L2C_prefetch_useless 6215
Core_0_L2C_prefetch_late 167
Core_0_L2C_prefetch_accuracy 0.34787
Core_0_L2C_prefetch_coverage 0.0225248
Core_0_L2C_total_eviction 0

Core_0_LLC_total_access 991622
Core_0_LLC_total_hit 884678
Core_0_LLC_total_miss 106944
Core_0_LLC_total_MPKI 2.13888
Core_0_LLC_total_miss_rate 0.107848
Core_0_LLC_demand_access 695594
Core_0_LLC_demand_hit 653171
Core_0_LLC_demand_miss 42423
Core_0_LLC_demand_MPKI 0.84846
Core_0_LLC_demand_miss_rate 0.0609882
Core_0_LLC_load_access 658055
Core_0_LLC_load_hit 624066
Core_0_LLC_load_miss 33989
Core_0_LLC_load_MPKI 0.67978
Core_0_LLC_load_miss_rate 0.0516507
Core_0_LLC_rfo_access 37539
Core_0_LLC_rfo_hit 29105
Core_0_LLC_rfo_miss 8434
Core_0_LLC_rfo_MPKI 0.16868
Core_0_LLC_rfo_miss_rate 0.224673
Core_0_LLC_prefetch_access 158532
Core_0_LLC_prefetch_hit 97047
Core_0_LLC_prefetch_miss 61485
Core_0_LLC_prefetch_MPKI 1.2297
Core_0_LLC_prefetch_miss_rate 0.38784
Core_0_LLC_writeback_access 137496
Core_0_LLC_writeback_hit 134460
Core_0_LLC_writeback_miss 3036
Core_0_LLC_writeback_MPKI 0.06072
Core_0_LLC_writeback_miss_rate 0.0220806
Core_0_LLC_prefetch_requested 0
Core_0_LLC_prefetch_issued 0
Core_0_LLC_prefetch_useful 0
Core_0_LLC_prefetch_useless 0
Core_0_LLC_prefetch_late 0
Core_0_LLC_prefetch_accuracy 0
Core_0_LLC_prefetch_coverage 0
Core_0_LLC_total_eviction 0

[DRAM Statistics]
Channel_0_RQ_row_buffer_hit 3980
Channel_0_RQ_row_buffer_miss 100875
Channel_0_WQ_row_buffer_hit 11670
Channel_0_WQ_row_buffer_miss 43868
Channel_0_WQ_full 0
Channel_0_dbus_congested 430629
DRAM_total_RQ_row_buffer_hit 3980
DRAM_total_RQ_row_buffer_miss 100875
DRAM_total_WQ_row_buffer_hit 11670
DRAM_total_WQ_row_buffer_miss 43868
DRAM_total_WQ_full 0
DRAM_total_dbus_congested 430629
DRAM_avg_congested_cycle 13.9499

======STLB miss causes ========
Core_0_STLB_miss_cause_breakdown
Core_0_STLB_cause_Demand_Data_miss 887
Core_0_STLB_cause_Demand_Data_miss_rate 0.00106398
Core_0_STLB_cause_Demand_Instruction_miss 23
Core_0_STLB_cause_Demand_Instruction_miss_rate 2.7589e-05
Core_0_STLB_cause_L1D_Prefetch_miss 374
Core_0_STLB_cause_L1D_Prefetch_miss_rate 0.000448621
Core_0_STLB_cause_L1I_Prefetch_miss 0
Core_0_STLB_cause_L1I_Prefetch_miss_rate 0
Core_0_STLB_cause_Other_miss 0
Core_0_STLB_cause_Other_miss_rate 0
Core_0_STLB_Demand_miss 910
Core_0_STLB_Demand_miss_rate 0.00109156
Core_0_STLB_L1D_Prefetch_miss 374
Core_0_STLB_L1D_Prefetch_miss_rate 0.000448621
Core_0_STLB_Other_miss 0
Core_0_STLB_Other_miss_rate 0
