[VMEM] WARNING: physical memory size is smaller than virtual memory size.

*** ChampSim Multicore Out-of-Order Simulator ***
Warmup Instructions: 50000000
Simulation Instructions: 100000000
Number of CPUs: 1
Page size: 4096
Core 0: /data0/tzh/champsim_traces/SPEC06/429.mcf-184B.champsimtrace.xz
VBerti Prefetcher
BERTI HASH ENTANGLING
BERTI IP MASK ffff
Off-chip DRAM Size: 16 GiB Channels: 1 Width: 64-bit Data Rate: 3205 MT/s
Warmup halting CPU 0 at instruction 50000004 cycle 13136817 for remainder of phase
Warmup finished CPU 0 instructions: 50000004 cycles: 13136817 cumulative IPC: 3.806 (Simulation time: 00 hr 03 min 44 sec)
Warmup complete CPU 0 instructions: 50000004 cycles: 13136817 cumulative IPC: 3.806 (Simulation time: 00 hr 03 min 44 sec)
Simulation finished CPU 0 instructions: 100000005 cycles: 824512906 cumulative IPC: 0.1213 (Simulation time: 01 hr 11 min 49 sec)
Simulation complete CPU 0 instructions: 100000005 cycles: 824512906 cumulative IPC: 0.1213 (Simulation time: 01 hr 11 min 49 sec)

ChampSim completed all CPUs

=== Simulation ===
CPU 0 runs /data0/tzh/champsim_traces/SPEC06/429.mcf-184B.champsimtrace.xz

Region of Interest Statistics

CPU 0 cumulative IPC: 0.1213 instructions: 100000005 cycles: 824512906
CPU 0 Branch Prediction Accuracy: 93.42% MPKI: 15.87 Average ROB Occupancy at Mispredict: 54.6
Branch type MPKI
BRANCH_DIRECT_JUMP: 0.6636
BRANCH_INDIRECT: 0
BRANCH_CONDITIONAL: 15.2
BRANCH_DIRECT_CALL: 0
BRANCH_INDIRECT_CALL: 0
BRANCH_RETURN: 0

cpu0->cpu0_STLB TOTAL        ACCESS:    9986983 HIT:    9077619 MISS:     909364 MSHR_MERGE:          0
cpu0->cpu0_STLB LOAD         ACCESS:    9986983 HIT:    9077619 MISS:     909364 MSHR_MERGE:          0
cpu0->cpu0_STLB RFO          ACCESS:          0 HIT:          0 MISS:          0 MSHR_MERGE:          0
cpu0->cpu0_STLB PREFETCH     ACCESS:          0 HIT:          0 MISS:          0 MSHR_MERGE:          0
cpu0->cpu0_STLB WRITE        ACCESS:          0 HIT:          0 MISS:          0 MSHR_MERGE:          0
cpu0->cpu0_STLB TRANSLATION  ACCESS:          0 HIT:          0 MISS:          0 MSHR_MERGE:          0
cpu0->cpu0_STLB PREFETCH REQUESTED:          0 ISSUED:          0 USEFUL:          0 USELESS:          0 LATE:          0 TOO_EARLY:          0
cpu0->cpu0_STLB AVERAGE MISS LATENCY: 139.5 cycles
cpu0->cpu0_L2C TOTAL        ACCESS:   14848589 HIT:    5824396 MISS:    9024193 MSHR_MERGE:       2987
cpu0->cpu0_L2C LOAD         ACCESS:   11802340 HIT:    3462975 MISS:    8339365 MSHR_MERGE:        135
cpu0->cpu0_L2C RFO          ACCESS:     160331 HIT:      53096 MISS:     107235 MSHR_MERGE:          0
cpu0->cpu0_L2C PREFETCH     ACCESS:     299209 HIT:     259385 MISS:      39824 MSHR_MERGE:       2852
cpu0->cpu0_L2C WRITE        ACCESS:    1730065 HIT:    1729888 MISS:        177 MSHR_MERGE:          0
cpu0->cpu0_L2C TRANSLATION  ACCESS:     856644 HIT:     319052 MISS:     537592 MSHR_MERGE:          0
cpu0->cpu0_L2C PREFETCH REQUESTED:      20202 ISSUED:      20202 USEFUL:       3333 USELESS:       8249 LATE:        100 TOO_EARLY:        901
cpu0->cpu0_L2C AVERAGE MISS LATENCY: 172 cycles
cpu0->cpu0_L1I TOTAL        ACCESS:    1418241 HIT:    1418241 MISS:          0 MSHR_MERGE:          0
cpu0->cpu0_L1I LOAD         ACCESS:    1418241 HIT:    1418241 MISS:          0 MSHR_MERGE:          0
cpu0->cpu0_L1I RFO          ACCESS:          0 HIT:          0 MISS:          0 MSHR_MERGE:          0
cpu0->cpu0_L1I PREFETCH     ACCESS:          0 HIT:          0 MISS:          0 MSHR_MERGE:          0
cpu0->cpu0_L1I WRITE        ACCESS:          0 HIT:          0 MISS:          0 MSHR_MERGE:          0
cpu0->cpu0_L1I TRANSLATION  ACCESS:          0 HIT:          0 MISS:          0 MSHR_MERGE:          0
cpu0->cpu0_L1I PREFETCH REQUESTED:          0 ISSUED:          0 USEFUL:          0 USELESS:          0 LATE:          0 TOO_EARLY:          0
cpu0->cpu0_L1I AVERAGE MISS LATENCY: - cycles
cpu0->cpu0_L1D TOTAL        ACCESS:   32168897 HIT:   15328366 MISS:   16840531 MSHR_MERGE:    3715630
cpu0->cpu0_L1D LOAD         ACCESS:   24849658 HIT:    9370163 MISS:   15479495 MSHR_MERGE:    3677132
cpu0->cpu0_L1D RFO          ACCESS:          0 HIT:          0 MISS:          0 MSHR_MERGE:          0
cpu0->cpu0_L1D PREFETCH     ACCESS:    1762617 HIT:    1455043 MISS:     307574 MSHR_MERGE:       2014
cpu0->cpu0_L1D WRITE        ACCESS:    3412478 HIT:    3237565 MISS:     174913 MSHR_MERGE:      14579
cpu0->cpu0_L1D TRANSLATION  ACCESS:    2144144 HIT:    1265595 MISS:     878549 MSHR_MERGE:      21905
cpu0->cpu0_L1D PREFETCH REQUESTED:    1951757 ISSUED:    1762617 USEFUL:      15787 USELESS:      20495 LATE:        679 TOO_EARLY:        558
cpu0->cpu0_L1D AVERAGE MISS LATENCY: 129.3 cycles
cpu0->cpu0_ITLB TOTAL        ACCESS:    1264648 HIT:    1264648 MISS:          0 MSHR_MERGE:          0
cpu0->cpu0_ITLB LOAD         ACCESS:    1264648 HIT:    1264648 MISS:          0 MSHR_MERGE:          0
cpu0->cpu0_ITLB RFO          ACCESS:          0 HIT:          0 MISS:          0 MSHR_MERGE:          0
cpu0->cpu0_ITLB PREFETCH     ACCESS:          0 HIT:          0 MISS:          0 MSHR_MERGE:          0
cpu0->cpu0_ITLB WRITE        ACCESS:          0 HIT:          0 MISS:          0 MSHR_MERGE:          0
cpu0->cpu0_ITLB TRANSLATION  ACCESS:          0 HIT:          0 MISS:          0 MSHR_MERGE:          0
cpu0->cpu0_ITLB PREFETCH REQUESTED:          0 ISSUED:          0 USEFUL:          0 USELESS:          0 LATE:          0 TOO_EARLY:          0
cpu0->cpu0_ITLB AVERAGE MISS LATENCY: - cycles
cpu0->cpu0_DTLB TOTAL        ACCESS:   29108646 HIT:   15129645 MISS:   13979001 MSHR_MERGE:    3992018
cpu0->cpu0_DTLB LOAD         ACCESS:   29108646 HIT:   15129645 MISS:   13979001 MSHR_MERGE:    3992018
cpu0->cpu0_DTLB RFO          ACCESS:          0 HIT:          0 MISS:          0 MSHR_MERGE:          0
cpu0->cpu0_DTLB PREFETCH     ACCESS:          0 HIT:          0 MISS:          0 MSHR_MERGE:          0
cpu0->cpu0_DTLB WRITE        ACCESS:          0 HIT:          0 MISS:          0 MSHR_MERGE:          0
cpu0->cpu0_DTLB TRANSLATION  ACCESS:          0 HIT:          0 MISS:          0 MSHR_MERGE:          0
cpu0->cpu0_DTLB PREFETCH REQUESTED:          0 ISSUED:          0 USEFUL:          0 USELESS:          0 LATE:          0 TOO_EARLY:          0
cpu0->cpu0_DTLB AVERAGE MISS LATENCY: 17.79 cycles
cpu0->LLC TOTAL        ACCESS:   10221795 HIT:    3027595 MISS:    7194200 MSHR_MERGE:          2
cpu0->LLC LOAD         ACCESS:    8339229 HIT:    2244739 MISS:    6094490 MSHR_MERGE:          0
cpu0->LLC RFO          ACCESS:     107235 HIT:      35849 MISS:      71386 MSHR_MERGE:          0
cpu0->LLC PREFETCH     ACCESS:      36972 HIT:       8041 MISS:      28931 MSHR_MERGE:          2
cpu0->LLC WRITE        ACCESS:    1200767 HIT:     577610 MISS:     623157 MSHR_MERGE:          0
cpu0->LLC TRANSLATION  ACCESS:     537592 HIT:     161356 MISS:     376236 MSHR_MERGE:          0
cpu0->LLC PREFETCH REQUESTED:          0 ISSUED:          0 USEFUL:          0 USELESS:          0 LATE:          0 TOO_EARLY:          0
cpu0->LLC AVERAGE MISS LATENCY: 196.7 cycles

DRAM Statistics

Channel 0 RQ ROW_BUFFER_HIT:       7903
  ROW_BUFFER_MISS:    6562711
  AVG DBUS CONGESTED CYCLE: 9.696
Channel 0 WQ ROW_BUFFER_HIT:     273816
  ROW_BUFFER_MISS:     676196
  FULL:          0
Channel 0 REFRESHES ISSUED:      68710

[ROI Statistics]
[System Configuration]
num_cpus 1
cpu_freq 4000
fetch_width 6
decode_width 6
dispatch_width 6
execute_width 6
lq_width 2
sq_width 2
retire_width 6
scheduler_size 128
branch_mispredict_penalty 15
rob_size 352
lq_size 128
sq_size 72
ifetch_buffer_size 64
decode_buffer_size 32
dispatch_buffer_size 32
register_file_size 288
decode_latency 1
dispatch_latency 1
schedule_latency 1
execute_latency 1
page_size 4096
block_size 64
core_0_itlb_set 16
core_0_itlb_way 4
core_0_itlb_rq_size 16
core_0_itlb_wq_size 16
core_0_itlb_pq_size 0
core_0_itlb_mshr_size 8
core_0_itlb_hit_latency 1
core_0_itlb_fill_latency 1
core_0_itlb_max_tag_check 2
core_0_itlb_max_fill 2
core_0_dtlb_set 16
core_0_dtlb_way 4
core_0_dtlb_rq_size 16
core_0_dtlb_wq_size 16
core_0_dtlb_pq_size 0
core_0_dtlb_mshr_size 8
core_0_dtlb_hit_latency 1
core_0_dtlb_fill_latency 1
core_0_dtlb_max_tag_check 2
core_0_dtlb_max_fill 2
core_0_stlb_set 128
core_0_stlb_way 12
core_0_stlb_rq_size 32
core_0_stlb_wq_size 32
core_0_stlb_pq_size 0
core_0_stlb_mshr_size 16
core_0_stlb_hit_latency 4
core_0_stlb_fill_latency 4
core_0_stlb_max_tag_check 1
core_0_stlb_max_fill 1
core_0_l1i_set 64
core_0_l1i_way 8
core_0_l1i_rq_size 64
core_0_l1i_wq_size 64
core_0_l1i_pq_size 32
core_0_l1i_mshr_size 8
core_0_l1i_hit_latency 2
core_0_l1i_fill_latency 2
core_0_l1i_max_tag_check 2
core_0_l1i_max_fill 2
core_0_l1d_set 64
core_0_l1d_way 12
core_0_l1d_rq_size 64
core_0_l1d_wq_size 64
core_0_l1d_pq_size 8
core_0_l1d_mshr_size 16
core_0_l1d_hit_latency 2
core_0_l1d_fill_latency 3
core_0_l1d_max_tag_check 2
core_0_l1d_max_fill 2
core_0_l2c_set 1024
core_0_l2c_way 8
core_0_l2c_rq_size 32
core_0_l2c_wq_size 32
core_0_l2c_pq_size 16
core_0_l2c_mshr_size 32
core_0_l2c_hit_latency 5
core_0_l2c_fill_latency 5
core_0_l2c_max_tag_check 1
core_0_l2c_max_fill 1
llc_set 2048
llc_way 16
llc_rq_size 32
llc_wq_size 32
llc_pq_size 32
llc_mshr_size 64
llc_hit_latency 10
llc_fill_latency 10
llc_max_tag_check 1
llc_max_fill 1
dram_channels 1
dram_ranks 1
dram_bankgroups 8
dram_banks 4
dram_rows 65536
dram_columns 1024
dram_channel_width 8
dram_rq_size 64
dram_wq_size 64
dram_size 17179869184
core_0_itlb_prefetcher no
core_0_dtlb_prefetcher no
core_0_stlb_prefetcher no
core_0_l1i_prefetcher next_line
core_0_l1d_prefetcher vberti
core_0_l2c_prefetcher ip_stride
llc_prefetcher no
llc_replacement drrip

Core_0_instructions 100000005
Core_0_cycles 824512906
Core_0_IPC 0.121284
Core_0_branch_prediction_accuracy 93.4186
Core_0_branch_MPKI 15.8681
Core_0_average_ROB_occupancy_at_mispredict 54.5997

Core_0_ITLB_total_access 1264648
Core_0_ITLB_total_hit 1264648
Core_0_ITLB_total_miss 0
Core_0_ITLB_total_MPKI 0
Core_0_ITLB_total_miss_rate 0
Core_0_ITLB_demand_access 1264648
Core_0_ITLB_demand_hit 1264648
Core_0_ITLB_demand_miss 0
Core_0_ITLB_demand_MPKI 0
Core_0_ITLB_demand_miss_rate 0
Core_0_ITLB_load_access 1264648
Core_0_ITLB_load_hit 1264648
Core_0_ITLB_load_miss 0
Core_0_ITLB_load_MPKI 0
Core_0_ITLB_load_miss_rate 0
Core_0_ITLB_rfo_access 0
Core_0_ITLB_rfo_hit 0
Core_0_ITLB_rfo_miss 0
Core_0_ITLB_rfo_MPKI 0
Core_0_ITLB_rfo_miss_rate 0
Core_0_ITLB_prefetch_access 0
Core_0_ITLB_prefetch_hit 0
Core_0_ITLB_prefetch_miss 0
Core_0_ITLB_prefetch_MPKI 0
Core_0_ITLB_prefetch_miss_rate 0
Core_0_ITLB_writeback_access 0
Core_0_ITLB_writeback_hit 0
Core_0_ITLB_writeback_miss 0
Core_0_ITLB_writeback_MPKI 0
Core_0_ITLB_writeback_miss_rate 0
Core_0_ITLB_prefetch_requested 0
Core_0_ITLB_prefetch_issued 0
Core_0_ITLB_prefetch_useful 0
Core_0_ITLB_prefetch_useless 0
Core_0_ITLB_prefetch_late 0
Core_0_ITLB_prefetch_fill 0
Core_0_ITLB_prefetch_too_early 0
Core_0_ITLB_prefetch_too_early_among_fill 0
Core_0_ITLB_prefetch_too_early_among_useless 0
Core_0_ITLB_prefetch_pollution_evict 0
Core_0_ITLB_prefetch_pollution_demand 0
Core_0_ITLB_prefetch_pollution_among_prefetch_fill 0
Core_0_ITLB_prefetch_accuracy 0
Core_0_ITLB_prefetch_coverage 0

Core_0_DTLB_total_access 29108646
Core_0_DTLB_total_hit 15129645
Core_0_DTLB_total_miss 13979001
Core_0_DTLB_total_MPKI 139.79
Core_0_DTLB_total_miss_rate 0.480235
Core_0_DTLB_demand_access 29108646
Core_0_DTLB_demand_hit 15129645
Core_0_DTLB_demand_miss 13979001
Core_0_DTLB_demand_MPKI 139.79
Core_0_DTLB_demand_miss_rate 0.480235
Core_0_DTLB_load_access 29108646
Core_0_DTLB_load_hit 15129645
Core_0_DTLB_load_miss 13979001
Core_0_DTLB_load_MPKI 139.79
Core_0_DTLB_load_miss_rate 0.480235
Core_0_DTLB_rfo_access 0
Core_0_DTLB_rfo_hit 0
Core_0_DTLB_rfo_miss 0
Core_0_DTLB_rfo_MPKI 0
Core_0_DTLB_rfo_miss_rate 0
Core_0_DTLB_prefetch_access 0
Core_0_DTLB_prefetch_hit 0
Core_0_DTLB_prefetch_miss 0
Core_0_DTLB_prefetch_MPKI 0
Core_0_DTLB_prefetch_miss_rate 0
Core_0_DTLB_writeback_access 0
Core_0_DTLB_writeback_hit 0
Core_0_DTLB_writeback_miss 0
Core_0_DTLB_writeback_MPKI 0
Core_0_DTLB_writeback_miss_rate 0
Core_0_DTLB_prefetch_requested 0
Core_0_DTLB_prefetch_issued 0
Core_0_DTLB_prefetch_useful 0
Core_0_DTLB_prefetch_useless 0
Core_0_DTLB_prefetch_late 0
Core_0_DTLB_prefetch_fill 0
Core_0_DTLB_prefetch_too_early 0
Core_0_DTLB_prefetch_too_early_among_fill 0
Core_0_DTLB_prefetch_too_early_among_useless 0
Core_0_DTLB_prefetch_pollution_evict 0
Core_0_DTLB_prefetch_pollution_demand 0
Core_0_DTLB_prefetch_pollution_among_prefetch_fill 0
Core_0_DTLB_prefetch_accuracy 0
Core_0_DTLB_prefetch_coverage 0

Core_0_STLB_total_access 9986983
Core_0_STLB_total_hit 9077619
Core_0_STLB_total_miss 909364
Core_0_STLB_total_MPKI 9.09364
Core_0_STLB_total_miss_rate 0.0910549
Core_0_STLB_demand_access 9986983
Core_0_STLB_demand_hit 9077619
Core_0_STLB_demand_miss 909364
Core_0_STLB_demand_MPKI 9.09364
Core_0_STLB_demand_miss_rate 0.0910549
Core_0_STLB_load_access 9986983
Core_0_STLB_load_hit 9077619
Core_0_STLB_load_miss 909364
Core_0_STLB_load_MPKI 9.09364
Core_0_STLB_load_miss_rate 0.0910549
Core_0_STLB_rfo_access 0
Core_0_STLB_rfo_hit 0
Core_0_STLB_rfo_miss 0
Core_0_STLB_rfo_MPKI 0
Core_0_STLB_rfo_miss_rate 0
Core_0_STLB_prefetch_access 0
Core_0_STLB_prefetch_hit 0
Core_0_STLB_prefetch_miss 0
Core_0_STLB_prefetch_MPKI 0
Core_0_STLB_prefetch_miss_rate 0
Core_0_STLB_writeback_access 0
Core_0_STLB_writeback_hit 0
Core_0_STLB_writeback_miss 0
Core_0_STLB_writeback_MPKI 0
Core_0_STLB_writeback_miss_rate 0
Core_0_STLB_prefetch_requested 0
Core_0_STLB_prefetch_issued 0
Core_0_STLB_prefetch_useful 0
Core_0_STLB_prefetch_useless 0
Core_0_STLB_prefetch_late 0
Core_0_STLB_prefetch_fill 0
Core_0_STLB_prefetch_too_early 0
Core_0_STLB_prefetch_too_early_among_fill 0
Core_0_STLB_prefetch_too_early_among_useless 0
Core_0_STLB_prefetch_pollution_evict 0
Core_0_STLB_prefetch_pollution_demand 0
Core_0_STLB_prefetch_pollution_among_prefetch_fill 0
Core_0_STLB_prefetch_accuracy 0
Core_0_STLB_prefetch_coverage 0

Core_0_L1I_total_access 1418241
Core_0_L1I_total_hit 1418241
Core_0_L1I_total_miss 0
Core_0_L1I_total_MPKI 0
Core_0_L1I_total_miss_rate 0
Core_0_L1I_demand_access 1418241
Core_0_L1I_demand_hit 1418241
Core_0_L1I_demand_miss 0
Core_0_L1I_demand_MPKI 0
Core_0_L1I_demand_miss_rate 0
Core_0_L1I_load_access 1418241
Core_0_L1I_load_hit 1418241
Core_0_L1I_load_miss 0
Core_0_L1I_load_MPKI 0
Core_0_L1I_load_miss_rate 0
Core_0_L1I_rfo_access 0
Core_0_L1I_rfo_hit 0
Core_0_L1I_rfo_miss 0
Core_0_L1I_rfo_MPKI 0
Core_0_L1I_rfo_miss_rate 0
Core_0_L1I_prefetch_access 0
Core_0_L1I_prefetch_hit 0
Core_0_L1I_prefetch_miss 0
Core_0_L1I_prefetch_MPKI 0
Core_0_L1I_prefetch_miss_rate 0
Core_0_L1I_writeback_access 0
Core_0_L1I_writeback_hit 0
Core_0_L1I_writeback_miss 0
Core_0_L1I_writeback_MPKI 0
Core_0_L1I_writeback_miss_rate 0
Core_0_L1I_prefetch_requested 0
Core_0_L1I_prefetch_issued 0
Core_0_L1I_prefetch_useful 0
Core_0_L1I_prefetch_useless 0
Core_0_L1I_prefetch_late 0
Core_0_L1I_prefetch_fill 0
Core_0_L1I_prefetch_too_early 0
Core_0_L1I_prefetch_too_early_among_fill 0
Core_0_L1I_prefetch_too_early_among_useless 0
Core_0_L1I_prefetch_pollution_evict 0
Core_0_L1I_prefetch_pollution_demand 0
Core_0_L1I_prefetch_pollution_among_prefetch_fill 0
Core_0_L1I_prefetch_accuracy 0
Core_0_L1I_prefetch_coverage 0

Core_0_L1D_total_access 30024753
Core_0_L1D_total_hit 14062771
Core_0_L1D_total_miss 15961982
Core_0_L1D_total_MPKI 159.62
Core_0_L1D_total_miss_rate 0.531627
Core_0_L1D_demand_access 24849658
Core_0_L1D_demand_hit 9370163
Core_0_L1D_demand_miss 15479495
Core_0_L1D_demand_MPKI 154.795
Core_0_L1D_demand_miss_rate 0.622926
Core_0_L1D_load_access 24849658
Core_0_L1D_load_hit 9370163
Core_0_L1D_load_miss 15479495
Core_0_L1D_load_MPKI 154.795
Core_0_L1D_load_miss_rate 0.622926
Core_0_L1D_rfo_access 0
Core_0_L1D_rfo_hit 0
Core_0_L1D_rfo_miss 0
Core_0_L1D_rfo_MPKI 0
Core_0_L1D_rfo_miss_rate 0
Core_0_L1D_prefetch_access 1762617
Core_0_L1D_prefetch_hit 1455043
Core_0_L1D_prefetch_miss 307574
Core_0_L1D_prefetch_MPKI 3.07574
Core_0_L1D_prefetch_miss_rate 0.174498
Core_0_L1D_writeback_access 3412478
Core_0_L1D_writeback_hit 3237565
Core_0_L1D_writeback_miss 174913
Core_0_L1D_writeback_MPKI 1.74913
Core_0_L1D_writeback_miss_rate 0.0512569
Core_0_L1D_prefetch_requested 1951757
Core_0_L1D_prefetch_issued 1762617
Core_0_L1D_prefetch_useful 15787
Core_0_L1D_prefetch_useless 20495
Core_0_L1D_prefetch_late 679
Core_0_L1D_prefetch_fill 35603
Core_0_L1D_prefetch_too_early 558
Core_0_L1D_prefetch_too_early_among_fill 0.0156728
Core_0_L1D_prefetch_too_early_among_useless 0.0272262
Core_0_L1D_prefetch_pollution_evict 26023
Core_0_L1D_prefetch_pollution_demand 26017
Core_0_L1D_prefetch_pollution_among_prefetch_fill 0.730922
Core_0_L1D_prefetch_accuracy 0.00895657
Core_0_L1D_prefetch_coverage 0.00101883

Core_0_L2C_total_access 13991945
Core_0_L2C_total_hit 5505344
Core_0_L2C_total_miss 8486601
Core_0_L2C_total_MPKI 84.866
Core_0_L2C_total_miss_rate 0.606535
Core_0_L2C_demand_access 11962671
Core_0_L2C_demand_hit 3516071
Core_0_L2C_demand_miss 8446600
Core_0_L2C_demand_MPKI 84.466
Core_0_L2C_demand_miss_rate 0.70608
Core_0_L2C_load_access 11802340
Core_0_L2C_load_hit 3462975
Core_0_L2C_load_miss 8339365
Core_0_L2C_load_MPKI 83.3936
Core_0_L2C_load_miss_rate 0.706586
Core_0_L2C_rfo_access 160331
Core_0_L2C_rfo_hit 53096
Core_0_L2C_rfo_miss 107235
Core_0_L2C_rfo_MPKI 1.07235
Core_0_L2C_rfo_miss_rate 0.668835
Core_0_L2C_prefetch_access 299209
Core_0_L2C_prefetch_hit 259385
Core_0_L2C_prefetch_miss 39824
Core_0_L2C_prefetch_MPKI 0.39824
Core_0_L2C_prefetch_miss_rate 0.133098
Core_0_L2C_writeback_access 1730065
Core_0_L2C_writeback_hit 1729888
Core_0_L2C_writeback_miss 177
Core_0_L2C_writeback_MPKI 0.00177
Core_0_L2C_writeback_miss_rate 0.000102308
Core_0_L2C_prefetch_requested 20202
Core_0_L2C_prefetch_issued 20202
Core_0_L2C_prefetch_useful 3333
Core_0_L2C_prefetch_useless 8249
Core_0_L2C_prefetch_late 100
Core_0_L2C_prefetch_fill 36759
Core_0_L2C_prefetch_too_early 901
Core_0_L2C_prefetch_too_early_among_fill 0.024511
Core_0_L2C_prefetch_too_early_among_useless 0.109225
Core_0_L2C_prefetch_pollution_evict 25884
Core_0_L2C_prefetch_pollution_demand 25866
Core_0_L2C_prefetch_pollution_among_prefetch_fill 0.704154
Core_0_L2C_prefetch_accuracy 0.164984
Core_0_L2C_prefetch_coverage 0.000394441

Core_0_LLC_total_access 9684203
Core_0_LLC_total_hit 2866239
Core_0_LLC_total_miss 6817964
Core_0_LLC_total_MPKI 68.1796
Core_0_LLC_total_miss_rate 0.704029
Core_0_LLC_demand_access 8446464
Core_0_LLC_demand_hit 2280588
Core_0_LLC_demand_miss 6165876
Core_0_LLC_demand_MPKI 61.6588
Core_0_LLC_demand_miss_rate 0.729995
Core_0_LLC_load_access 8339229
Core_0_LLC_load_hit 2244739
Core_0_LLC_load_miss 6094490
Core_0_LLC_load_MPKI 60.9449
Core_0_LLC_load_miss_rate 0.730822
Core_0_LLC_rfo_access 107235
Core_0_LLC_rfo_hit 35849
Core_0_LLC_rfo_miss 71386
Core_0_LLC_rfo_MPKI 0.71386
Core_0_LLC_rfo_miss_rate 0.665697
Core_0_LLC_prefetch_access 36972
Core_0_LLC_prefetch_hit 8041
Core_0_LLC_prefetch_miss 28931
Core_0_LLC_prefetch_MPKI 0.28931
Core_0_LLC_prefetch_miss_rate 0.782511
Core_0_LLC_writeback_access 1200767
Core_0_LLC_writeback_hit 577610
Core_0_LLC_writeback_miss 623157
Core_0_LLC_writeback_MPKI 6.23157
Core_0_LLC_writeback_miss_rate 0.518966
Core_0_LLC_prefetch_requested 0
Core_0_LLC_prefetch_issued 0
Core_0_LLC_prefetch_useful 0
Core_0_LLC_prefetch_useless 0
Core_0_LLC_prefetch_late 0
Core_0_LLC_prefetch_fill 28929
Core_0_LLC_prefetch_too_early 0
Core_0_LLC_prefetch_too_early_among_fill 0
Core_0_LLC_prefetch_too_early_among_useless 0
Core_0_LLC_prefetch_pollution_evict 17491
Core_0_LLC_prefetch_pollution_demand 17491
Core_0_LLC_prefetch_pollution_among_prefetch_fill 0.604618
Core_0_LLC_prefetch_accuracy 0
Core_0_LLC_prefetch_coverage 0

[DRAM Statistics]
Channel_0_RQ_row_buffer_hit 7903
Channel_0_RQ_row_buffer_miss 6562711
Channel_0_WQ_row_buffer_hit 273816
Channel_0_WQ_row_buffer_miss 676196
Channel_0_WQ_full 0
Channel_0_dbus_congested 15211485
DRAM_total_RQ_row_buffer_hit 7903
DRAM_total_RQ_row_buffer_miss 6562711
DRAM_total_WQ_row_buffer_hit 273816
DRAM_total_WQ_row_buffer_miss 676196
DRAM_total_WQ_full 0
DRAM_total_dbus_congested 15211485
DRAM_avg_congested_cycle 9.69638

====== DRAM_RQ_TRAFFIC ========
DRAM_RQ_READ_TRAFFIC_BREAKDOWN:
data_demand_read.count = 6165877
data_demand_read.share = 93.83%

inst_demand_read.count = 0
inst_demand_read.share = 0.00%

cache_inst_prefetch.count = 0
cache_inst_prefetch.share = 0.00%

cache_data_prefetch.count = 28929
cache_data_prefetch.share = 0.44%

stlb_data_demand.count = 376216
stlb_data_demand.share = 5.73%

stlb_inst_demand.count = 0
stlb_inst_demand.share = 0.00%

stlb_l1i_pref.count = 0
stlb_l1i_pref.share = 0.00%

stlb_l1d_pref.count = 20
stlb_l1d_pref.share = 0.00%

DRAM_RQ_READ_TRAFFIC_SUMMARY:
cache_demand.count = 6165877
cache_demand.share = 93.83%

cache_prefetch.count = 28929
cache_prefetch.share = 0.44%

stlb_demand.count = 376216
stlb_demand.share = 5.73%

stlb_prefetch.count = 20
stlb_prefetch.share = 0.00%

DRAM_RQ_READ_TRAFFIC_DEBUG:
total_classified_read.count = 6571042
unclassified_read.count = 0
total_read_with_other.count = 6571042

classified_plus_unclassified_check.count = 6571042
dram_rq_read_total_observed.count = 6571042
dram_rq_read_total_observed.per_1K_instructions = 65.7104

STLB_MISS_PTW_DRAM_TOUCH_BREAKDOWN:
stlb_miss_total.count = 909364

stlb_miss_touch_dram.count = 383750
stlb_miss_touch_dram.share = 42.20%

stlb_miss_no_dram_touch.count = 525614
stlb_miss_no_dram_touch.share = 57.80%

STLB_MISS_PTW_DRAM_TOUCH_DEBUG:
stlb_miss_touch_plus_no_touch.count = 909364
stlb_miss_total_check.count = 909364

======STLB miss causes ========
Core_0_STLB_miss_cause_breakdown
Core_0_STLB_cause_Demand_Data_miss 908645
Core_0_STLB_cause_Demand_Data_miss_rate 0.0909829
Core_0_STLB_cause_Demand_Instruction_miss 0
Core_0_STLB_cause_Demand_Instruction_miss_rate 0
Core_0_STLB_cause_L1D_Prefetch_miss 719
Core_0_STLB_cause_L1D_Prefetch_miss_rate 7.19937e-05
Core_0_STLB_cause_L1D_Prefetch_Same_Page_miss 0
Core_0_STLB_cause_L1D_Prefetch_Same_Page_miss_rate 0
Core_0_STLB_cause_L1D_Prefetch_Cross_Page_miss 719
Core_0_STLB_cause_L1D_Prefetch_Cross_Page_miss_rate 7.19937e-05
Core_0_STLB_cause_L1I_Prefetch_miss 0
Core_0_STLB_cause_L1I_Prefetch_miss_rate 0
Core_0_STLB_cause_Other_miss 0
Core_0_STLB_cause_Other_miss_rate 0
Core_0_STLB_Demand_miss 908645
Core_0_STLB_Demand_miss_rate 0.0909829
Core_0_STLB_L1D_Prefetch_miss 719
Core_0_STLB_L1D_Prefetch_miss_rate 7.19937e-05
Core_0_STLB_Other_miss 0
Core_0_STLB_Other_miss_rate 0

========== vBerti-TLB Cross-page Flow Stats ==========

Core_0_vBerti_Requested 1951757
Core_0_vBerti_Cross_page_prefetch_in_Requested 651295
Core_0_vBerti_Same_page_prefetch_in_Requested 1300462
Core_0_vBerti_Cross_page_prefetch_of_Requested 0.333697
Core_0_vBerti_Issued 1762617
Core_0_vBerti_InPQ_Same_page_prefetch 1207499
Core_0_vBerti_InPQ_Cross_page_prefetch 555118
Core_0_vBerti_PQ_Drop_Rate 0.0969076
Core_0_vBerti_InPQ_Cross_page_prefetch_of_Requested 0.28442
Core_0_vBerti_Cross_page_PQ_Drop_rate 0.14767
Core_0_vBerti_Cross_page_prefetch_of_Issued 0.31494
Core_0_CP_PF_PQFULL_drop 96177
Core_0_CP_PF_PQFULL_TLB_rescue_enqueued 95048
Core_0_CP_PF_PQFULL_TLB_rescue_issued 95048
Core_0_CP_PF_PQFULL_TLB_rescue_translated 95048

========= DTLB_vBerti Prefetch Stats =========
Core_0_DTLB_demand_access 27852269
Core_0_DTLB_demand_hit 13979663
Core_0_DTLB_demand_miss 13872606
Core_0_DTLB_demand_mshr_merge 3967346
Core_0_DTLB_demand_fill 9905265
Core_0_DTLB_demand_miss_rate 0.498078
Core_0_DTLB_demand_mpki 138.726
Core_0_DTLB_vberti_prefetch_access 1256377
Core_0_DTLB_vberti_prefetch_hit 1149982
Core_0_DTLB_vberti_prefetch_miss 106395
Core_0_DTLB_vberti_prefetch_mshr_merge 24672
Core_0_DTLB_vberti_prefetch_fill 81718
Core_0_DTLB_vberti_prefetch_miss_rate 0.084684
Core_0_DTLB_vberti_prefetch_mpki 1.06395

=== DTLB_vBerti Same/Cross-page Prefetch Stats ===
Core_0_DTLB_vberti_same_page_prefetch 737285
Core_0_DTLB_vberti_same_page_prefetch_hit 737285
Core_0_DTLB_vberti_same_page_prefetch_miss 0
Core_0_DTLB_vberti_same_page_prefetch_mshr_merge 0
Core_0_DTLB_vberti_same_page_prefetch_fill 0
Core_0_DTLB_vberti_same_page_prefetch_miss_rate 0
Core_0_DTLB_vberti_same_page_prefetch_mpki 0
Core_0_DTLB_vberti_cross_page_prefetch 519092
Core_0_DTLB_vberti_cross_page_prefetch_hit 412697
Core_0_DTLB_vberti_cross_page_prefetch_miss 106395
Core_0_DTLB_vberti_cross_page_prefetch_mshr_merge 24672
Core_0_DTLB_vberti_cross_page_prefetch_fill 81718
Core_0_DTLB_vberti_cross_page_prefetch_miss_rate 0.204964
Core_0_DTLB_vberti_cross_page_prefetch_mpki 1.06395
Core_0_DTLB_same_page_prefetch_miss_rate 0
Core_0_DTLB_same_page_prefetch_mpki 0
Core_0_DTLB_cross_page_prefetch_miss_rate 0.204964
Core_0_DTLB_cross_page_prefetch_mpki 1.06395
Core_0_DTLB_cross_page_prefetch_issued 519092
Core_0_DTLB_cross_page_prefetch_lookups 519092
Core_0_DTLB_cross_page_prefetch_useful 17690
Core_0_DTLB_cross_page_prefetch_useless 64033
Core_0_DTLB_cross_page_prefetch_late 5
Core_0_DTLB_cross_page_prefetch_too_early 22778
Core_0_DTLB_cross_page_prefetch_too_early_among_fill 0.278739
Core_0_DTLB_cross_page_prefetch_too_early_among_useless 0.355723
Core_0_DTLB_cross_page_prefetch_pollution_evict 49205
Core_0_DTLB_cross_page_prefetch_pollution_demand 36914
Core_0_DTLB_cross_page_prefetch_pollution_among_prefetch_fill 0.602132
Core_0_DTLB_cross_page_prefetch_accuracy 0.0340787
Core_0_DTLB_cross_page_prefetch_coverage 0.00127355

========= STLB_vBerti Prefetch Stats =========
Core_0_STLB_demand_access 9905260
Core_0_STLB_demand_hit 8996615
Core_0_STLB_demand_miss 908645
Core_0_STLB_demand_mshr_merge 0
Core_0_STLB_demand_fill 908645
Core_0_STLB_demand_miss_rate 0.0917336
Core_0_STLB_demand_mpki 9.08645
Core_0_STLB_vberti_prefetch_access 81723
Core_0_STLB_vberti_prefetch_hit 81004
Core_0_STLB_vberti_prefetch_miss 719
Core_0_STLB_vberti_prefetch_mshr_merge 0
Core_0_STLB_vberti_prefetch_fill 719
Core_0_STLB_vberti_prefetch_miss_rate 0.00879801
Core_0_STLB_vberti_prefetch_mpki 0.00719

=== STLB_vBerti Same/Cross-page Prefetch Stats ===
Core_0_STLB_vberti_same_page_prefetch 0
Core_0_STLB_vberti_same_page_prefetch_hit 0
Core_0_STLB_vberti_same_page_prefetch_miss 0
Core_0_STLB_vberti_same_page_prefetch_mshr_merge 0
Core_0_STLB_vberti_same_page_prefetch_fill 0
Core_0_STLB_vberti_same_page_prefetch_miss_rate 0
Core_0_STLB_vberti_same_page_prefetch_mpki 0
Core_0_STLB_vberti_cross_page_prefetch 81723
Core_0_STLB_vberti_cross_page_prefetch_hit 81004
Core_0_STLB_vberti_cross_page_prefetch_miss 719
Core_0_STLB_vberti_cross_page_prefetch_mshr_merge 0
Core_0_STLB_vberti_cross_page_prefetch_fill 719
Core_0_STLB_vberti_cross_page_prefetch_miss_rate 0.00879801
Core_0_STLB_vberti_cross_page_prefetch_mpki 0.00719
Core_0_STLB_same_page_prefetch_miss_rate 0
Core_0_STLB_same_page_prefetch_mpki 0
Core_0_STLB_cross_page_prefetch_miss_rate 0.00879801
Core_0_STLB_cross_page_prefetch_mpki 0.00719
Core_0_STLB_cross_page_prefetch_issued 81723
Core_0_STLB_cross_page_prefetch_lookups 81723
Core_0_STLB_cross_page_prefetch_useful 441
Core_0_STLB_cross_page_prefetch_useless 278
Core_0_STLB_cross_page_prefetch_late 0
Core_0_STLB_cross_page_prefetch_too_early 109
Core_0_STLB_cross_page_prefetch_too_early_among_fill 0.151599
Core_0_STLB_cross_page_prefetch_too_early_among_useless 0.392086
Core_0_STLB_cross_page_prefetch_pollution_evict 676
Core_0_STLB_cross_page_prefetch_pollution_demand 675
Core_0_STLB_cross_page_prefetch_pollution_among_prefetch_fill 0.940195
Core_0_STLB_cross_page_prefetch_accuracy 0.00539628
Core_0_STLB_cross_page_prefetch_coverage 0.000485103

========= STLB Cross-page Prefetch Buffer Stats =========
Core_0_STLB_raw_demand_miss 908645
Core_0_CP_PB_insert 0
Core_0_CP_PB_demand_hit 0
Core_0_STLB_PB_demand_miss 908645
Core_0_CP_PB_coverage 0
Core_0_STLB_raw_demand_mpki 9.08645
Core_0_STLB_PB_demand_mpki 9.08645
Core_0_CP_PB_demand_hit_mpki 0

Core_0_TLB_demand_miss_rate 0.0326237
Core_0_TLB_demand_mpki 9.08645
Core_0_TLB_same_page_prefetch_miss_rate 0
Core_0_TLB_same_page_prefetch_mpki 0
Core_0_TLB_cross_page_prefetch_miss_rate 0.00138511
Core_0_TLB_cross_page_prefetch_mpki 0.00719
Core_0_TLB_cross_page_prefetch_issued 519092
Core_0_TLB_cross_page_prefetch_lookups 519092
Core_0_TLB_cross_page_prefetch_useful 472
Core_0_TLB_cross_page_prefetch_useless 35795
Core_0_TLB_cross_page_prefetch_late 2
Core_0_TLB_cross_page_prefetch_too_early 12648
Core_0_TLB_cross_page_prefetch_too_early_among_fill 0.153426
Core_0_TLB_cross_page_prefetch_too_early_among_useless 0.353345
Core_0_TLB_cross_page_prefetch_accuracy 0.00090928
Core_0_TLB_cross_page_prefetch_coverage 0.000519185
BERTI TO_L1: 1189624 TO_L2: 877174 TO_L2_BC_MSHR: 206
BERTI AVG_LAT: 81.2548 NUM_TRACK_LATENCY: 18834511 NUM_CANT_TRACK_LATENCY: 0
BERTI CROSS_PAGE 669652 NO_CROSS_PAGE: 1397146
BERTI FOUND_BERTI: 25961616 NO_FOUND_BERTI: 11525577
BERTI AVERAGE_ISSUED: 1.6176
