[VMEM] WARNING: physical memory size is smaller than virtual memory size.

*** ChampSim Multicore Out-of-Order Simulator ***
Warmup Instructions: 50000000
Simulation Instructions: 100000000
Number of CPUs: 1
Page size: 4096
Core 0: /data0/tzh/champsim_traces/SPEC06/459.GemsFDTD-1211B.champsimtrace.xz
VBerti Prefetcher
BERTI HASH ENTANGLING
BERTI IP MASK ffff
Off-chip DRAM Size: 16 GiB Channels: 1 Width: 64-bit Data Rate: 3205 MT/s
Warmup halting CPU 0 at instruction 50000001 cycle 16588954 for remainder of phase
Warmup finished CPU 0 instructions: 50000001 cycles: 16588954 cumulative IPC: 3.014 (Simulation time: 00 hr 04 min 32 sec)
Warmup complete CPU 0 instructions: 50000001 cycles: 16588954 cumulative IPC: 3.014 (Simulation time: 00 hr 04 min 32 sec)
Simulation finished CPU 0 instructions: 100000004 cycles: 76273716 cumulative IPC: 1.311 (Simulation time: 00 hr 20 min 54 sec)
Simulation complete CPU 0 instructions: 100000004 cycles: 76273716 cumulative IPC: 1.311 (Simulation time: 00 hr 20 min 54 sec)

ChampSim completed all CPUs

=== Simulation ===
CPU 0 runs /data0/tzh/champsim_traces/SPEC06/459.GemsFDTD-1211B.champsimtrace.xz

Region of Interest Statistics

CPU 0 cumulative IPC: 1.311 instructions: 100000004 cycles: 76273716
CPU 0 Branch Prediction Accuracy: 99.97% MPKI: 0.00163 Average ROB Occupancy at Mispredict: 325.9
Branch type MPKI
BRANCH_DIRECT_JUMP: 0
BRANCH_INDIRECT: 0
BRANCH_CONDITIONAL: 0.00163
BRANCH_DIRECT_CALL: 0
BRANCH_INDIRECT_CALL: 0
BRANCH_RETURN: 0

cpu0->cpu0_STLB TOTAL        ACCESS:    1604218 HIT:    1496512 MISS:     107706 MSHR_MERGE:          0
cpu0->cpu0_STLB LOAD         ACCESS:    1604218 HIT:    1496512 MISS:     107706 MSHR_MERGE:          0
cpu0->cpu0_STLB RFO          ACCESS:          0 HIT:          0 MISS:          0 MSHR_MERGE:          0
cpu0->cpu0_STLB PREFETCH     ACCESS:          0 HIT:          0 MISS:          0 MSHR_MERGE:          0
cpu0->cpu0_STLB WRITE        ACCESS:          0 HIT:          0 MISS:          0 MSHR_MERGE:          0
cpu0->cpu0_STLB TRANSLATION  ACCESS:          0 HIT:          0 MISS:          0 MSHR_MERGE:          0
cpu0->cpu0_STLB PREFETCH REQUESTED:          0 ISSUED:          0 USEFUL:          0 USELESS:          0 LATE:          0 TOO_EARLY:          0
cpu0->cpu0_STLB AVERAGE MISS LATENCY: 165.2 cycles
cpu0->cpu0_L2C TOTAL        ACCESS:    3677393 HIT:    2509644 MISS:    1167749 MSHR_MERGE:     109929
cpu0->cpu0_L2C LOAD         ACCESS:     111381 HIT:      35621 MISS:      75760 MSHR_MERGE:        294
cpu0->cpu0_L2C RFO          ACCESS:       1673 HIT:       1673 MISS:          0 MSHR_MERGE:          0
cpu0->cpu0_L2C PREFETCH     ACCESS:    3116788 HIT:    2038476 MISS:    1078312 MSHR_MERGE:     109635
cpu0->cpu0_L2C WRITE        ACCESS:     430994 HIT:     430994 MISS:          0 MSHR_MERGE:          0
cpu0->cpu0_L2C TRANSLATION  ACCESS:      16557 HIT:       2880 MISS:      13677 MSHR_MERGE:          0
cpu0->cpu0_L2C PREFETCH REQUESTED:     207772 ISSUED:     207772 USEFUL:      22341 USELESS:       4946 LATE:          0 TOO_EARLY:         50
cpu0->cpu0_L2C AVERAGE MISS LATENCY: 200.8 cycles
cpu0->cpu0_L1I TOTAL        ACCESS:   27973118 HIT:   27973118 MISS:          0 MSHR_MERGE:          0
cpu0->cpu0_L1I LOAD         ACCESS:   27973118 HIT:   27973118 MISS:          0 MSHR_MERGE:          0
cpu0->cpu0_L1I RFO          ACCESS:          0 HIT:          0 MISS:          0 MSHR_MERGE:          0
cpu0->cpu0_L1I PREFETCH     ACCESS:          0 HIT:          0 MISS:          0 MSHR_MERGE:          0
cpu0->cpu0_L1I WRITE        ACCESS:          0 HIT:          0 MISS:          0 MSHR_MERGE:          0
cpu0->cpu0_L1I TRANSLATION  ACCESS:          0 HIT:          0 MISS:          0 MSHR_MERGE:          0
cpu0->cpu0_L1I PREFETCH REQUESTED:          0 ISSUED:          0 USEFUL:          0 USELESS:          0 LATE:          0 TOO_EARLY:          0
cpu0->cpu0_L1I AVERAGE MISS LATENCY: - cycles
cpu0->cpu0_L1D TOTAL        ACCESS:   59512393 HIT:   56458714 MISS:    3053679 MSHR_MERGE:      13989
cpu0->cpu0_L1D LOAD         ACCESS:   40876791 HIT:   40765040 MISS:     111751 MSHR_MERGE:        370
cpu0->cpu0_L1D RFO          ACCESS:          0 HIT:          0 MISS:          0 MSHR_MERGE:          0
cpu0->cpu0_L1D PREFETCH     ACCESS:   10752329 HIT:    7837250 MISS:    2915079 MSHR_MERGE:       5072
cpu0->cpu0_L1D WRITE        ACCESS:    7668518 HIT:    7658259 MISS:      10259 MSHR_MERGE:       8514
cpu0->cpu0_L1D TRANSLATION  ACCESS:     214755 HIT:     198165 MISS:      16590 MSHR_MERGE:         33
cpu0->cpu0_L1D PREFETCH REQUESTED:   44049701 ISSUED:   10752325 USEFUL:     800751 USELESS:     198266 LATE:         32 TOO_EARLY:        152
cpu0->cpu0_L1D AVERAGE MISS LATENCY: 147.1 cycles
cpu0->cpu0_ITLB TOTAL        ACCESS:   23891087 HIT:   23891087 MISS:          0 MSHR_MERGE:          0
cpu0->cpu0_ITLB LOAD         ACCESS:   23891087 HIT:   23891087 MISS:          0 MSHR_MERGE:          0
cpu0->cpu0_ITLB RFO          ACCESS:          0 HIT:          0 MISS:          0 MSHR_MERGE:          0
cpu0->cpu0_ITLB PREFETCH     ACCESS:          0 HIT:          0 MISS:          0 MSHR_MERGE:          0
cpu0->cpu0_ITLB WRITE        ACCESS:          0 HIT:          0 MISS:          0 MSHR_MERGE:          0
cpu0->cpu0_ITLB TRANSLATION  ACCESS:          0 HIT:          0 MISS:          0 MSHR_MERGE:          0
cpu0->cpu0_ITLB PREFETCH REQUESTED:          0 ISSUED:          0 USEFUL:          0 USELESS:          0 LATE:          0 TOO_EARLY:          0
cpu0->cpu0_ITLB AVERAGE MISS LATENCY: - cycles
cpu0->cpu0_DTLB TOTAL        ACCESS:   59042584 HIT:   56649112 MISS:    2393472 MSHR_MERGE:     789254
cpu0->cpu0_DTLB LOAD         ACCESS:   59042584 HIT:   56649112 MISS:    2393472 MSHR_MERGE:     789254
cpu0->cpu0_DTLB RFO          ACCESS:          0 HIT:          0 MISS:          0 MSHR_MERGE:          0
cpu0->cpu0_DTLB PREFETCH     ACCESS:          0 HIT:          0 MISS:          0 MSHR_MERGE:          0
cpu0->cpu0_DTLB WRITE        ACCESS:          0 HIT:          0 MISS:          0 MSHR_MERGE:          0
cpu0->cpu0_DTLB TRANSLATION  ACCESS:          0 HIT:          0 MISS:          0 MSHR_MERGE:          0
cpu0->cpu0_DTLB PREFETCH REQUESTED:          0 ISSUED:          0 USEFUL:          0 USELESS:          0 LATE:          0 TOO_EARLY:          0
cpu0->cpu0_DTLB AVERAGE MISS LATENCY: 16.16 cycles
cpu0->LLC TOTAL        ACCESS:    1487211 HIT:     460990 MISS:    1026221 MSHR_MERGE:         33
cpu0->LLC LOAD         ACCESS:      75466 HIT:      10968 MISS:      64498 MSHR_MERGE:          0
cpu0->LLC RFO          ACCESS:          0 HIT:          0 MISS:          0 MSHR_MERGE:          0
cpu0->LLC PREFETCH     ACCESS:     968676 HIT:      72654 MISS:     896022 MSHR_MERGE:         33
cpu0->LLC WRITE        ACCESS:     429392 HIT:     377254 MISS:      52138 MSHR_MERGE:          0
cpu0->LLC TRANSLATION  ACCESS:      13677 HIT:        114 MISS:      13563 MSHR_MERGE:          0
cpu0->LLC PREFETCH REQUESTED:          0 ISSUED:          0 USEFUL:          0 USELESS:          0 LATE:          0 TOO_EARLY:          0
cpu0->LLC AVERAGE MISS LATENCY: 130.3 cycles

DRAM Statistics

Channel 0 RQ ROW_BUFFER_HIT:       7441
  ROW_BUFFER_MISS:     966605
  AVG DBUS CONGESTED CYCLE: 9.739
Channel 0 WQ ROW_BUFFER_HIT:     102159
  ROW_BUFFER_MISS:     328599
  FULL:          0
Channel 0 REFRESHES ISSUED:       6356

[ROI Statistics]
[System Configuration]
num_cpus 1
cpu_freq 4000
fetch_width 6
decode_width 6
dispatch_width 6
execute_width 6
lq_width 2
sq_width 2
retire_width 6
scheduler_size 128
branch_mispredict_penalty 15
rob_size 352
lq_size 128
sq_size 72
ifetch_buffer_size 64
decode_buffer_size 32
dispatch_buffer_size 32
register_file_size 288
decode_latency 1
dispatch_latency 1
schedule_latency 1
execute_latency 1
page_size 4096
block_size 64
core_0_itlb_set 16
core_0_itlb_way 4
core_0_itlb_rq_size 16
core_0_itlb_wq_size 16
core_0_itlb_pq_size 0
core_0_itlb_mshr_size 8
core_0_itlb_hit_latency 1
core_0_itlb_fill_latency 1
core_0_itlb_max_tag_check 2
core_0_itlb_max_fill 2
core_0_dtlb_set 16
core_0_dtlb_way 4
core_0_dtlb_rq_size 16
core_0_dtlb_wq_size 16
core_0_dtlb_pq_size 0
core_0_dtlb_mshr_size 8
core_0_dtlb_hit_latency 1
core_0_dtlb_fill_latency 1
core_0_dtlb_max_tag_check 2
core_0_dtlb_max_fill 2
core_0_stlb_set 128
core_0_stlb_way 12
core_0_stlb_rq_size 32
core_0_stlb_wq_size 32
core_0_stlb_pq_size 0
core_0_stlb_mshr_size 16
core_0_stlb_hit_latency 4
core_0_stlb_fill_latency 4
core_0_stlb_max_tag_check 1
core_0_stlb_max_fill 1
core_0_l1i_set 64
core_0_l1i_way 8
core_0_l1i_rq_size 64
core_0_l1i_wq_size 64
core_0_l1i_pq_size 32
core_0_l1i_mshr_size 8
core_0_l1i_hit_latency 2
core_0_l1i_fill_latency 2
core_0_l1i_max_tag_check 2
core_0_l1i_max_fill 2
core_0_l1d_set 64
core_0_l1d_way 12
core_0_l1d_rq_size 64
core_0_l1d_wq_size 64
core_0_l1d_pq_size 8
core_0_l1d_mshr_size 16
core_0_l1d_hit_latency 2
core_0_l1d_fill_latency 3
core_0_l1d_max_tag_check 2
core_0_l1d_max_fill 2
core_0_l2c_set 1024
core_0_l2c_way 8
core_0_l2c_rq_size 32
core_0_l2c_wq_size 32
core_0_l2c_pq_size 16
core_0_l2c_mshr_size 32
core_0_l2c_hit_latency 5
core_0_l2c_fill_latency 5
core_0_l2c_max_tag_check 1
core_0_l2c_max_fill 1
llc_set 2048
llc_way 16
llc_rq_size 32
llc_wq_size 32
llc_pq_size 32
llc_mshr_size 64
llc_hit_latency 10
llc_fill_latency 10
llc_max_tag_check 1
llc_max_fill 1
dram_channels 1
dram_ranks 1
dram_bankgroups 8
dram_banks 4
dram_rows 65536
dram_columns 1024
dram_channel_width 8
dram_rq_size 64
dram_wq_size 64
dram_size 17179869184
core_0_itlb_prefetcher no
core_0_dtlb_prefetcher no
core_0_stlb_prefetcher no
core_0_l1i_prefetcher next_line
core_0_l1d_prefetcher vberti
core_0_l2c_prefetcher ip_stride
llc_prefetcher no
llc_replacement drrip

Core_0_instructions 100000004
Core_0_cycles 76273716
Core_0_IPC 1.31107
Core_0_branch_prediction_accuracy 99.9695
Core_0_branch_MPKI 0.00163
Core_0_average_ROB_occupancy_at_mispredict 325.939

Core_0_ITLB_total_access 23891087
Core_0_ITLB_total_hit 23891087
Core_0_ITLB_total_miss 0
Core_0_ITLB_total_MPKI 0
Core_0_ITLB_total_miss_rate 0
Core_0_ITLB_demand_access 23891087
Core_0_ITLB_demand_hit 23891087
Core_0_ITLB_demand_miss 0
Core_0_ITLB_demand_MPKI 0
Core_0_ITLB_demand_miss_rate 0
Core_0_ITLB_load_access 23891087
Core_0_ITLB_load_hit 23891087
Core_0_ITLB_load_miss 0
Core_0_ITLB_load_MPKI 0
Core_0_ITLB_load_miss_rate 0
Core_0_ITLB_rfo_access 0
Core_0_ITLB_rfo_hit 0
Core_0_ITLB_rfo_miss 0
Core_0_ITLB_rfo_MPKI 0
Core_0_ITLB_rfo_miss_rate 0
Core_0_ITLB_prefetch_access 0
Core_0_ITLB_prefetch_hit 0
Core_0_ITLB_prefetch_miss 0
Core_0_ITLB_prefetch_MPKI 0
Core_0_ITLB_prefetch_miss_rate 0
Core_0_ITLB_writeback_access 0
Core_0_ITLB_writeback_hit 0
Core_0_ITLB_writeback_miss 0
Core_0_ITLB_writeback_MPKI 0
Core_0_ITLB_writeback_miss_rate 0
Core_0_ITLB_prefetch_requested 0
Core_0_ITLB_prefetch_issued 0
Core_0_ITLB_prefetch_useful 0
Core_0_ITLB_prefetch_useless 0
Core_0_ITLB_prefetch_late 0
Core_0_ITLB_prefetch_fill 0
Core_0_ITLB_prefetch_too_early 0
Core_0_ITLB_prefetch_too_early_among_fill 0
Core_0_ITLB_prefetch_too_early_among_useless 0
Core_0_ITLB_prefetch_pollution_evict 0
Core_0_ITLB_prefetch_pollution_demand 0
Core_0_ITLB_prefetch_pollution_among_prefetch_fill 0
Core_0_ITLB_prefetch_accuracy 0
Core_0_ITLB_prefetch_coverage 0

Core_0_DTLB_total_access 59042584
Core_0_DTLB_total_hit 56649112
Core_0_DTLB_total_miss 2393472
Core_0_DTLB_total_MPKI 23.9347
Core_0_DTLB_total_miss_rate 0.0405381
Core_0_DTLB_demand_access 59042584
Core_0_DTLB_demand_hit 56649112
Core_0_DTLB_demand_miss 2393472
Core_0_DTLB_demand_MPKI 23.9347
Core_0_DTLB_demand_miss_rate 0.0405381
Core_0_DTLB_load_access 59042584
Core_0_DTLB_load_hit 56649112
Core_0_DTLB_load_miss 2393472
Core_0_DTLB_load_MPKI 23.9347
Core_0_DTLB_load_miss_rate 0.0405381
Core_0_DTLB_rfo_access 0
Core_0_DTLB_rfo_hit 0
Core_0_DTLB_rfo_miss 0
Core_0_DTLB_rfo_MPKI 0
Core_0_DTLB_rfo_miss_rate 0
Core_0_DTLB_prefetch_access 0
Core_0_DTLB_prefetch_hit 0
Core_0_DTLB_prefetch_miss 0
Core_0_DTLB_prefetch_MPKI 0
Core_0_DTLB_prefetch_miss_rate 0
Core_0_DTLB_writeback_access 0
Core_0_DTLB_writeback_hit 0
Core_0_DTLB_writeback_miss 0
Core_0_DTLB_writeback_MPKI 0
Core_0_DTLB_writeback_miss_rate 0
Core_0_DTLB_prefetch_requested 0
Core_0_DTLB_prefetch_issued 0
Core_0_DTLB_prefetch_useful 0
Core_0_DTLB_prefetch_useless 0
Core_0_DTLB_prefetch_late 0
Core_0_DTLB_prefetch_fill 0
Core_0_DTLB_prefetch_too_early 0
Core_0_DTLB_prefetch_too_early_among_fill 0
Core_0_DTLB_prefetch_too_early_among_useless 0
Core_0_DTLB_prefetch_pollution_evict 0
Core_0_DTLB_prefetch_pollution_demand 0
Core_0_DTLB_prefetch_pollution_among_prefetch_fill 0
Core_0_DTLB_prefetch_accuracy 0
Core_0_DTLB_prefetch_coverage 0

Core_0_STLB_total_access 1604218
Core_0_STLB_total_hit 1496512
Core_0_STLB_total_miss 107706
Core_0_STLB_total_MPKI 1.07706
Core_0_STLB_total_miss_rate 0.0671393
Core_0_STLB_demand_access 1604218
Core_0_STLB_demand_hit 1496512
Core_0_STLB_demand_miss 107706
Core_0_STLB_demand_MPKI 1.07706
Core_0_STLB_demand_miss_rate 0.0671393
Core_0_STLB_load_access 1604218
Core_0_STLB_load_hit 1496512
Core_0_STLB_load_miss 107706
Core_0_STLB_load_MPKI 1.07706
Core_0_STLB_load_miss_rate 0.0671393
Core_0_STLB_rfo_access 0
Core_0_STLB_rfo_hit 0
Core_0_STLB_rfo_miss 0
Core_0_STLB_rfo_MPKI 0
Core_0_STLB_rfo_miss_rate 0
Core_0_STLB_prefetch_access 0
Core_0_STLB_prefetch_hit 0
Core_0_STLB_prefetch_miss 0
Core_0_STLB_prefetch_MPKI 0
Core_0_STLB_prefetch_miss_rate 0
Core_0_STLB_writeback_access 0
Core_0_STLB_writeback_hit 0
Core_0_STLB_writeback_miss 0
Core_0_STLB_writeback_MPKI 0
Core_0_STLB_writeback_miss_rate 0
Core_0_STLB_prefetch_requested 0
Core_0_STLB_prefetch_issued 0
Core_0_STLB_prefetch_useful 0
Core_0_STLB_prefetch_useless 0
Core_0_STLB_prefetch_late 0
Core_0_STLB_prefetch_fill 0
Core_0_STLB_prefetch_too_early 0
Core_0_STLB_prefetch_too_early_among_fill 0
Core_0_STLB_prefetch_too_early_among_useless 0
Core_0_STLB_prefetch_pollution_evict 0
Core_0_STLB_prefetch_pollution_demand 0
Core_0_STLB_prefetch_pollution_among_prefetch_fill 0
Core_0_STLB_prefetch_accuracy 0
Core_0_STLB_prefetch_coverage 0

Core_0_L1I_total_access 27973118
Core_0_L1I_total_hit 27973118
Core_0_L1I_total_miss 0
Core_0_L1I_total_MPKI 0
Core_0_L1I_total_miss_rate 0
Core_0_L1I_demand_access 27973118
Core_0_L1I_demand_hit 27973118
Core_0_L1I_demand_miss 0
Core_0_L1I_demand_MPKI 0
Core_0_L1I_demand_miss_rate 0
Core_0_L1I_load_access 27973118
Core_0_L1I_load_hit 27973118
Core_0_L1I_load_miss 0
Core_0_L1I_load_MPKI 0
Core_0_L1I_load_miss_rate 0
Core_0_L1I_rfo_access 0
Core_0_L1I_rfo_hit 0
Core_0_L1I_rfo_miss 0
Core_0_L1I_rfo_MPKI 0
Core_0_L1I_rfo_miss_rate 0
Core_0_L1I_prefetch_access 0
Core_0_L1I_prefetch_hit 0
Core_0_L1I_prefetch_miss 0
Core_0_L1I_prefetch_MPKI 0
Core_0_L1I_prefetch_miss_rate 0
Core_0_L1I_writeback_access 0
Core_0_L1I_writeback_hit 0
Core_0_L1I_writeback_miss 0
Core_0_L1I_writeback_MPKI 0
Core_0_L1I_writeback_miss_rate 0
Core_0_L1I_prefetch_requested 0
Core_0_L1I_prefetch_issued 0
Core_0_L1I_prefetch_useful 0
Core_0_L1I_prefetch_useless 0
Core_0_L1I_prefetch_late 0
Core_0_L1I_prefetch_fill 0
Core_0_L1I_prefetch_too_early 0
Core_0_L1I_prefetch_too_early_among_fill 0
Core_0_L1I_prefetch_too_early_among_useless 0
Core_0_L1I_prefetch_pollution_evict 0
Core_0_L1I_prefetch_pollution_demand 0
Core_0_L1I_prefetch_pollution_among_prefetch_fill 0
Core_0_L1I_prefetch_accuracy 0
Core_0_L1I_prefetch_coverage 0

Core_0_L1D_total_access 59297638
Core_0_L1D_total_hit 56260549
Core_0_L1D_total_miss 3037089
Core_0_L1D_total_MPKI 30.3709
Core_0_L1D_total_miss_rate 0.0512177
Core_0_L1D_demand_access 40876791
Core_0_L1D_demand_hit 40765040
Core_0_L1D_demand_miss 111751
Core_0_L1D_demand_MPKI 1.11751
Core_0_L1D_demand_miss_rate 0.00273385
Core_0_L1D_load_access 40876791
Core_0_L1D_load_hit 40765040
Core_0_L1D_load_miss 111751
Core_0_L1D_load_MPKI 1.11751
Core_0_L1D_load_miss_rate 0.00273385
Core_0_L1D_rfo_access 0
Core_0_L1D_rfo_hit 0
Core_0_L1D_rfo_miss 0
Core_0_L1D_rfo_MPKI 0
Core_0_L1D_rfo_miss_rate 0
Core_0_L1D_prefetch_access 10752329
Core_0_L1D_prefetch_hit 7837250
Core_0_L1D_prefetch_miss 2915079
Core_0_L1D_prefetch_MPKI 29.1508
Core_0_L1D_prefetch_miss_rate 0.271111
Core_0_L1D_writeback_access 7668518
Core_0_L1D_writeback_hit 7658259
Core_0_L1D_writeback_miss 10259
Core_0_L1D_writeback_MPKI 0.10259
Core_0_L1D_writeback_miss_rate 0.00133781
Core_0_L1D_prefetch_requested 44049701
Core_0_L1D_prefetch_issued 10752325
Core_0_L1D_prefetch_useful 800751
Core_0_L1D_prefetch_useless 198266
Core_0_L1D_prefetch_late 32
Core_0_L1D_prefetch_fill 999103
Core_0_L1D_prefetch_too_early 152
Core_0_L1D_prefetch_too_early_among_fill 0.000152136
Core_0_L1D_prefetch_too_early_among_useless 0.000766647
Core_0_L1D_prefetch_pollution_evict 122
Core_0_L1D_prefetch_pollution_demand 5
Core_0_L1D_prefetch_pollution_among_prefetch_fill 0.00012211
Core_0_L1D_prefetch_accuracy 0.0744724
Core_0_L1D_prefetch_coverage 0.877533

Core_0_L2C_total_access 3660836
Core_0_L2C_total_hit 2506764
Core_0_L2C_total_miss 1154072
Core_0_L2C_total_MPKI 11.5407
Core_0_L2C_total_miss_rate 0.315248
Core_0_L2C_demand_access 113054
Core_0_L2C_demand_hit 37294
Core_0_L2C_demand_miss 75760
Core_0_L2C_demand_MPKI 0.7576
Core_0_L2C_demand_miss_rate 0.670122
Core_0_L2C_load_access 111381
Core_0_L2C_load_hit 35621
Core_0_L2C_load_miss 75760
Core_0_L2C_load_MPKI 0.7576
Core_0_L2C_load_miss_rate 0.680188
Core_0_L2C_rfo_access 1673
Core_0_L2C_rfo_hit 1673
Core_0_L2C_rfo_miss 0
Core_0_L2C_rfo_MPKI 0
Core_0_L2C_rfo_miss_rate 0
Core_0_L2C_prefetch_access 3116788
Core_0_L2C_prefetch_hit 2038476
Core_0_L2C_prefetch_miss 1078312
Core_0_L2C_prefetch_MPKI 10.7831
Core_0_L2C_prefetch_miss_rate 0.345969
Core_0_L2C_writeback_access 430994
Core_0_L2C_writeback_hit 430994
Core_0_L2C_writeback_miss 0
Core_0_L2C_writeback_MPKI 0
Core_0_L2C_writeback_miss_rate 0
Core_0_L2C_prefetch_requested 207772
Core_0_L2C_prefetch_issued 207772
Core_0_L2C_prefetch_useful 22341
Core_0_L2C_prefetch_useless 4946
Core_0_L2C_prefetch_late 0
Core_0_L2C_prefetch_fill 968251
Core_0_L2C_prefetch_too_early 50
Core_0_L2C_prefetch_too_early_among_fill 5.16395e-05
Core_0_L2C_prefetch_too_early_among_useless 0.0101092
Core_0_L2C_prefetch_pollution_evict 11503
Core_0_L2C_prefetch_pollution_demand 11498
Core_0_L2C_prefetch_pollution_among_prefetch_fill 0.0118802
Core_0_L2C_prefetch_accuracy 0.107527
Core_0_L2C_prefetch_coverage 0.227735

Core_0_LLC_total_access 1473534
Core_0_LLC_total_hit 460876
Core_0_LLC_total_miss 1012658
Core_0_LLC_total_MPKI 10.1266
Core_0_LLC_total_miss_rate 0.687231
Core_0_LLC_demand_access 75466
Core_0_LLC_demand_hit 10968
Core_0_LLC_demand_miss 64498
Core_0_LLC_demand_MPKI 0.64498
Core_0_LLC_demand_miss_rate 0.854663
Core_0_LLC_load_access 75466
Core_0_LLC_load_hit 10968
Core_0_LLC_load_miss 64498
Core_0_LLC_load_MPKI 0.64498
Core_0_LLC_load_miss_rate 0.854663
Core_0_LLC_rfo_access 0
Core_0_LLC_rfo_hit 0
Core_0_LLC_rfo_miss 0
Core_0_LLC_rfo_MPKI 0
Core_0_LLC_rfo_miss_rate 0
Core_0_LLC_prefetch_access 968676
Core_0_LLC_prefetch_hit 72654
Core_0_LLC_prefetch_miss 896022
Core_0_LLC_prefetch_MPKI 8.96022
Core_0_LLC_prefetch_miss_rate 0.924997
Core_0_LLC_writeback_access 429392
Core_0_LLC_writeback_hit 377254
Core_0_LLC_writeback_miss 52138
Core_0_LLC_writeback_MPKI 0.52138
Core_0_LLC_writeback_miss_rate 0.121423
Core_0_LLC_prefetch_requested 0
Core_0_LLC_prefetch_issued 0
Core_0_LLC_prefetch_useful 0
Core_0_LLC_prefetch_useless 0
Core_0_LLC_prefetch_late 0
Core_0_LLC_prefetch_fill 895985
Core_0_LLC_prefetch_too_early 0
Core_0_LLC_prefetch_too_early_among_fill 0
Core_0_LLC_prefetch_too_early_among_useless 0
Core_0_LLC_prefetch_pollution_evict 1007
Core_0_LLC_prefetch_pollution_demand 1007
Core_0_LLC_prefetch_pollution_among_prefetch_fill 0.0011239
Core_0_LLC_prefetch_accuracy 0
Core_0_LLC_prefetch_coverage 0

[DRAM Statistics]
Channel_0_RQ_row_buffer_hit 7441
Channel_0_RQ_row_buffer_miss 966605
Channel_0_WQ_row_buffer_hit 102159
Channel_0_WQ_row_buffer_miss 328599
Channel_0_WQ_full 0
Channel_0_dbus_congested 2990140
DRAM_total_RQ_row_buffer_hit 7441
DRAM_total_RQ_row_buffer_miss 966605
DRAM_total_WQ_row_buffer_hit 102159
DRAM_total_WQ_row_buffer_miss 328599
DRAM_total_WQ_full 0
DRAM_total_dbus_congested 2990140
DRAM_avg_congested_cycle 9.7394

====== DRAM_RQ_TRAFFIC ========
DRAM_RQ_READ_TRAFFIC_BREAKDOWN:
data_demand_read.count = 64498
data_demand_read.share = 6.62%

inst_demand_read.count = 0
inst_demand_read.share = 0.00%

cache_inst_prefetch.count = 0
cache_inst_prefetch.share = 0.00%

cache_data_prefetch.count = 895989
cache_data_prefetch.share = 91.99%

stlb_data_demand.count = 4
stlb_data_demand.share = 0.00%

stlb_inst_demand.count = 0
stlb_inst_demand.share = 0.00%

stlb_l1i_pref.count = 0
stlb_l1i_pref.share = 0.00%

stlb_l1d_pref.count = 13559
stlb_l1d_pref.share = 1.39%

DRAM_RQ_READ_TRAFFIC_SUMMARY:
cache_demand.count = 64498
cache_demand.share = 6.62%

cache_prefetch.count = 895989
cache_prefetch.share = 91.99%

stlb_demand.count = 4
stlb_demand.share = 0.00%

stlb_prefetch.count = 13559
stlb_prefetch.share = 1.39%

DRAM_RQ_READ_TRAFFIC_DEBUG:
total_classified_read.count = 974050
unclassified_read.count = 0
total_read_with_other.count = 974050

classified_plus_unclassified_check.count = 974050
dram_rq_read_total_observed.count = 974050
dram_rq_read_total_observed.per_1K_instructions = 9.7405

STLB_MISS_PTW_DRAM_TOUCH_BREAKDOWN:
stlb_miss_total.count = 107705

stlb_miss_touch_dram.count = 13465
stlb_miss_touch_dram.share = 12.50%

stlb_miss_no_dram_touch.count = 94240
stlb_miss_no_dram_touch.share = 87.50%

STLB_MISS_PTW_DRAM_TOUCH_DEBUG:
stlb_miss_touch_plus_no_touch.count = 107705
stlb_miss_total_check.count = 107705

======STLB miss causes ========
Core_0_STLB_miss_cause_breakdown
Core_0_STLB_cause_Demand_Data_miss 10
Core_0_STLB_cause_Demand_Data_miss_rate 6.23357e-06
Core_0_STLB_cause_Demand_Instruction_miss 0
Core_0_STLB_cause_Demand_Instruction_miss_rate 0
Core_0_STLB_cause_L1D_Prefetch_miss 107696
Core_0_STLB_cause_L1D_Prefetch_miss_rate 0.067133
Core_0_STLB_cause_L1D_Prefetch_Same_Page_miss 0
Core_0_STLB_cause_L1D_Prefetch_Same_Page_miss_rate 0
Core_0_STLB_cause_L1D_Prefetch_Cross_Page_miss 107696
Core_0_STLB_cause_L1D_Prefetch_Cross_Page_miss_rate 0.067133
Core_0_STLB_cause_L1I_Prefetch_miss 0
Core_0_STLB_cause_L1I_Prefetch_miss_rate 0
Core_0_STLB_cause_Other_miss 0
Core_0_STLB_cause_Other_miss_rate 0
Core_0_STLB_Demand_miss 10
Core_0_STLB_Demand_miss_rate 6.23357e-06
Core_0_STLB_L1D_Prefetch_miss 107696
Core_0_STLB_L1D_Prefetch_miss_rate 0.067133
Core_0_STLB_Other_miss 0
Core_0_STLB_Other_miss_rate 0

========== vBerti-TLB Cross-page Flow Stats ==========

Core_0_vBerti_Requested 44049701
Core_0_vBerti_Cross_page_prefetch_in_Requested 20525725
Core_0_vBerti_Same_page_prefetch_in_Requested 23523976
Core_0_vBerti_Cross_page_prefetch_of_Requested 0.465967
Core_0_vBerti_Issued 10752325
Core_0_vBerti_InPQ_Same_page_prefetch 8307464
Core_0_vBerti_InPQ_Cross_page_prefetch 2444861
Core_0_vBerti_PQ_Drop_Rate 0.755905
Core_0_vBerti_InPQ_Cross_page_prefetch_of_Requested 0.0555023
Core_0_vBerti_Cross_page_PQ_Drop_rate 0.880888
Core_0_vBerti_Cross_page_prefetch_of_Issued 0.22738
Core_0_CP_PF_PQFULL_drop 18080864
Core_0_CP_PF_PQFULL_TLB_rescue_enqueued 7701231
Core_0_CP_PF_PQFULL_TLB_rescue_issued 7701231
Core_0_CP_PF_PQFULL_TLB_rescue_translated 7701230

========= DTLB_vBerti Prefetch Stats =========
Core_0_DTLB_demand_access 44968442
Core_0_DTLB_demand_hit 43307983
Core_0_DTLB_demand_miss 1660459
Core_0_DTLB_demand_mshr_merge 643610
Core_0_DTLB_demand_fill 1017756
Core_0_DTLB_demand_miss_rate 0.036925
Core_0_DTLB_demand_mpki 16.6046
Core_0_DTLB_vberti_prefetch_access 14074142
Core_0_DTLB_vberti_prefetch_hit 13341129
Core_0_DTLB_vberti_prefetch_miss 733013
Core_0_DTLB_vberti_prefetch_mshr_merge 145644
Core_0_DTLB_vberti_prefetch_fill 586461
Core_0_DTLB_vberti_prefetch_miss_rate 0.0520823
Core_0_DTLB_vberti_prefetch_mpki 7.33013

=== DTLB_vBerti Same/Cross-page Prefetch Stats ===
Core_0_DTLB_vberti_same_page_prefetch 7551511
Core_0_DTLB_vberti_same_page_prefetch_hit 7498120
Core_0_DTLB_vberti_same_page_prefetch_miss 53391
Core_0_DTLB_vberti_same_page_prefetch_mshr_merge 10962
Core_0_DTLB_vberti_same_page_prefetch_fill 41675
Core_0_DTLB_vberti_same_page_prefetch_miss_rate 0.00707024
Core_0_DTLB_vberti_same_page_prefetch_mpki 0.53391
Core_0_DTLB_vberti_cross_page_prefetch 6522631
Core_0_DTLB_vberti_cross_page_prefetch_hit 5843009
Core_0_DTLB_vberti_cross_page_prefetch_miss 679622
Core_0_DTLB_vberti_cross_page_prefetch_mshr_merge 134682
Core_0_DTLB_vberti_cross_page_prefetch_fill 544786
Core_0_DTLB_vberti_cross_page_prefetch_miss_rate 0.104194
Core_0_DTLB_vberti_cross_page_prefetch_mpki 6.79622
Core_0_DTLB_same_page_prefetch_miss_rate 0.00707024
Core_0_DTLB_same_page_prefetch_mpki 0.53391
Core_0_DTLB_cross_page_prefetch_miss_rate 0.104194
Core_0_DTLB_cross_page_prefetch_mpki 6.79622
Core_0_DTLB_cross_page_prefetch_issued 6522631
Core_0_DTLB_cross_page_prefetch_lookups 6522631
Core_0_DTLB_cross_page_prefetch_useful 131648
Core_0_DTLB_cross_page_prefetch_useless 413292
Core_0_DTLB_cross_page_prefetch_late 153
Core_0_DTLB_cross_page_prefetch_too_early 12118
Core_0_DTLB_cross_page_prefetch_too_early_among_fill 0.0222436
Core_0_DTLB_cross_page_prefetch_too_early_among_useless 0.0293207
Core_0_DTLB_cross_page_prefetch_pollution_evict 290802
Core_0_DTLB_cross_page_prefetch_pollution_demand 272648
Core_0_DTLB_cross_page_prefetch_pollution_among_prefetch_fill 0.533791
Core_0_DTLB_cross_page_prefetch_accuracy 0.0201833
Core_0_DTLB_cross_page_prefetch_coverage 0.0734599

========= STLB_vBerti Prefetch Stats =========
Core_0_STLB_demand_access 1016849
Core_0_STLB_demand_hit 1016839
Core_0_STLB_demand_miss 10
Core_0_STLB_demand_mshr_merge 0
Core_0_STLB_demand_fill 10
Core_0_STLB_demand_miss_rate 9.8343e-06
Core_0_STLB_demand_mpki 0.0001
Core_0_STLB_vberti_prefetch_access 587369
Core_0_STLB_vberti_prefetch_hit 479673
Core_0_STLB_vberti_prefetch_miss 107696
Core_0_STLB_vberti_prefetch_mshr_merge 0
Core_0_STLB_vberti_prefetch_fill 107695
Core_0_STLB_vberti_prefetch_miss_rate 0.183353
Core_0_STLB_vberti_prefetch_mpki 1.07696

=== STLB_vBerti Same/Cross-page Prefetch Stats ===
Core_0_STLB_vberti_same_page_prefetch 42429
Core_0_STLB_vberti_same_page_prefetch_hit 42429
Core_0_STLB_vberti_same_page_prefetch_miss 0
Core_0_STLB_vberti_same_page_prefetch_mshr_merge 0
Core_0_STLB_vberti_same_page_prefetch_fill 0
Core_0_STLB_vberti_same_page_prefetch_miss_rate 0
Core_0_STLB_vberti_same_page_prefetch_mpki 0
Core_0_STLB_vberti_cross_page_prefetch 544940
Core_0_STLB_vberti_cross_page_prefetch_hit 437244
Core_0_STLB_vberti_cross_page_prefetch_miss 107696
Core_0_STLB_vberti_cross_page_prefetch_mshr_merge 0
Core_0_STLB_vberti_cross_page_prefetch_fill 107695
Core_0_STLB_vberti_cross_page_prefetch_miss_rate 0.197629
Core_0_STLB_vberti_cross_page_prefetch_mpki 1.07696
Core_0_STLB_same_page_prefetch_miss_rate 0
Core_0_STLB_same_page_prefetch_mpki 0
Core_0_STLB_cross_page_prefetch_miss_rate 0.197629
Core_0_STLB_cross_page_prefetch_mpki 1.07696
Core_0_STLB_cross_page_prefetch_issued 544940
Core_0_STLB_cross_page_prefetch_lookups 544940
Core_0_STLB_cross_page_prefetch_useful 26163
Core_0_STLB_cross_page_prefetch_useless 81533
Core_0_STLB_cross_page_prefetch_late 0
Core_0_STLB_cross_page_prefetch_too_early 0
Core_0_STLB_cross_page_prefetch_too_early_among_fill 0
Core_0_STLB_cross_page_prefetch_too_early_among_useless 0
Core_0_STLB_cross_page_prefetch_pollution_evict 2
Core_0_STLB_cross_page_prefetch_pollution_demand 2
Core_0_STLB_cross_page_prefetch_pollution_among_prefetch_fill 1.8571e-05
Core_0_STLB_cross_page_prefetch_accuracy 0.0480108
Core_0_STLB_cross_page_prefetch_coverage 0.999618

========= STLB Cross-page Prefetch Buffer Stats =========
Core_0_STLB_raw_demand_miss 10
Core_0_CP_PB_insert 0
Core_0_CP_PB_demand_hit 0
Core_0_STLB_PB_demand_miss 10
Core_0_CP_PB_coverage 0
Core_0_STLB_raw_demand_mpki 0.0001
Core_0_STLB_PB_demand_mpki 0.0001
Core_0_CP_PB_demand_hit_mpki 0

Core_0_TLB_demand_miss_rate 2.22378e-07
Core_0_TLB_demand_mpki 0.0001
Core_0_TLB_same_page_prefetch_miss_rate 0
Core_0_TLB_same_page_prefetch_mpki 0
Core_0_TLB_cross_page_prefetch_miss_rate 0.0165111
Core_0_TLB_cross_page_prefetch_mpki 1.07696
Core_0_TLB_cross_page_prefetch_issued 6522631
Core_0_TLB_cross_page_prefetch_lookups 6522631
Core_0_TLB_cross_page_prefetch_useful 99746
Core_0_TLB_cross_page_prefetch_useless 276780
Core_0_TLB_cross_page_prefetch_late 2
Core_0_TLB_cross_page_prefetch_too_early 10968
Core_0_TLB_cross_page_prefetch_too_early_among_fill 0.0168097
Core_0_TLB_cross_page_prefetch_too_early_among_useless 0.0396271
Core_0_TLB_cross_page_prefetch_accuracy 0.0152923
Core_0_TLB_cross_page_prefetch_coverage 0.9999
BERTI TO_L1: 36331007 TO_L2: 26354838 TO_L2_BC_MSHR: 30699
BERTI AVG_LAT: 149.514 NUM_TRACK_LATENCY: 1811421 NUM_CANT_TRACK_LATENCY: 0
BERTI CROSS_PAGE 31374418 NO_CROSS_PAGE: 31311427
BERTI FOUND_BERTI: 13323741 NO_FOUND_BERTI: 49797153
BERTI AVERAGE_ISSUED: 2.2305
