[VMEM] WARNING: physical memory size is smaller than virtual memory size.

*** ChampSim Multicore Out-of-Order Simulator ***
Warmup Instructions: 50000000
Simulation Instructions: 100000000
Number of CPUs: 1
Page size: 4096
Core 0: /data2/zcq/champsim_traces_gap/bc.twitter-1658B.champsimtrace.xz
VBerti Prefetcher
BERTI HASH ENTANGLING
BERTI IP MASK ffff
Off-chip DRAM Size: 16 GiB Channels: 1 Width: 64-bit Data Rate: 3205 MT/s
Warmup halting CPU 0 at instruction 50000001 cycle 24224503 for remainder of phase
Warmup finished CPU 0 instructions: 50000001 cycles: 24224503 cumulative IPC: 2.064 (Simulation time: 00 hr 04 min 47 sec)
Warmup complete CPU 0 instructions: 50000001 cycles: 24224503 cumulative IPC: 2.064 (Simulation time: 00 hr 04 min 47 sec)
Simulation finished CPU 0 instructions: 100000002 cycles: 246268476 cumulative IPC: 0.4061 (Simulation time: 00 hr 31 min 00 sec)
Simulation complete CPU 0 instructions: 100000002 cycles: 246268476 cumulative IPC: 0.4061 (Simulation time: 00 hr 31 min 00 sec)

ChampSim completed all CPUs

=== Simulation ===
CPU 0 runs /data2/zcq/champsim_traces_gap/bc.twitter-1658B.champsimtrace.xz

Region of Interest Statistics

CPU 0 cumulative IPC: 0.4061 instructions: 100000002 cycles: 246268476
CPU 0 Branch Prediction Accuracy: 97.65% MPKI: 4.13 Average ROB Occupancy at Mispredict: 141.1
Branch type MPKI
BRANCH_DIRECT_JUMP: 0
BRANCH_INDIRECT: 0
BRANCH_CONDITIONAL: 4.13
BRANCH_DIRECT_CALL: 0
BRANCH_INDIRECT_CALL: 0
BRANCH_RETURN: 0

cpu0->cpu0_STLB TOTAL        ACCESS:    1017120 HIT:      29127 MISS:     987993 MSHR_MERGE:          0
cpu0->cpu0_STLB LOAD         ACCESS:    1017120 HIT:      29127 MISS:     987993 MSHR_MERGE:          0
cpu0->cpu0_STLB RFO          ACCESS:          0 HIT:          0 MISS:          0 MSHR_MERGE:          0
cpu0->cpu0_STLB PREFETCH     ACCESS:          0 HIT:          0 MISS:          0 MSHR_MERGE:          0
cpu0->cpu0_STLB WRITE        ACCESS:          0 HIT:          0 MISS:          0 MSHR_MERGE:          0
cpu0->cpu0_STLB TRANSLATION  ACCESS:          0 HIT:          0 MISS:          0 MSHR_MERGE:          0
cpu0->cpu0_STLB PREFETCH REQUESTED:          0 ISSUED:          0 USEFUL:          0 USELESS:          0 LATE:          0 TOO_EARLY:          0
cpu0->cpu0_STLB AVERAGE MISS LATENCY: 133.4 cycles
cpu0->cpu0_L2C TOTAL        ACCESS:    4060649 HIT:    1749330 MISS:    2311319 MSHR_MERGE:     154514
cpu0->cpu0_L2C LOAD         ACCESS:    1228018 HIT:      60994 MISS:    1167024 MSHR_MERGE:       1581
cpu0->cpu0_L2C RFO          ACCESS:     238208 HIT:       2344 MISS:     235864 MSHR_MERGE:          7
cpu0->cpu0_L2C PREFETCH     ACCESS:    1484714 HIT:    1113369 MISS:     371345 MSHR_MERGE:     152926
cpu0->cpu0_L2C WRITE        ACCESS:     476217 HIT:     476127 MISS:         90 MSHR_MERGE:          0
cpu0->cpu0_L2C TRANSLATION  ACCESS:     633492 HIT:      96496 MISS:     536996 MSHR_MERGE:          0
cpu0->cpu0_L2C PREFETCH REQUESTED:     267288 ISSUED:     221924 USEFUL:      48789 USELESS:      24517 LATE:        546 TOO_EARLY:        339
cpu0->cpu0_L2C AVERAGE MISS LATENCY: 214.7 cycles
cpu0->cpu0_L1I TOTAL        ACCESS:    2143595 HIT:    2143595 MISS:          0 MSHR_MERGE:          0
cpu0->cpu0_L1I LOAD         ACCESS:    2143595 HIT:    2143595 MISS:          0 MSHR_MERGE:          0
cpu0->cpu0_L1I RFO          ACCESS:          0 HIT:          0 MISS:          0 MSHR_MERGE:          0
cpu0->cpu0_L1I PREFETCH     ACCESS:          0 HIT:          0 MISS:          0 MSHR_MERGE:          0
cpu0->cpu0_L1I WRITE        ACCESS:          0 HIT:          0 MISS:          0 MSHR_MERGE:          0
cpu0->cpu0_L1I TRANSLATION  ACCESS:          0 HIT:          0 MISS:          0 MSHR_MERGE:          0
cpu0->cpu0_L1I PREFETCH REQUESTED:          0 ISSUED:          0 USEFUL:          0 USELESS:          0 LATE:          0 TOO_EARLY:          0
cpu0->cpu0_L1I AVERAGE MISS LATENCY: - cycles
cpu0->cpu0_L1D TOTAL        ACCESS:   22184841 HIT:   17197546 MISS:    4987295 MSHR_MERGE:    1599135
cpu0->cpu0_L1D LOAD         ACCESS:   10398294 HIT:    7580752 MISS:    2817542 MSHR_MERGE:    1589523
cpu0->cpu0_L1D RFO          ACCESS:          0 HIT:          0 MISS:          0 MSHR_MERGE:          0
cpu0->cpu0_L1D PREFETCH     ACCESS:    9034507 HIT:    7741270 MISS:    1293237 MSHR_MERGE:       4797
cpu0->cpu0_L1D WRITE        ACCESS:     502587 HIT:     263999 MISS:     238588 MSHR_MERGE:        379
cpu0->cpu0_L1D TRANSLATION  ACCESS:    2249453 HIT:    1611525 MISS:     637928 MSHR_MERGE:       4436
cpu0->cpu0_L1D PREFETCH REQUESTED:   10698919 ISSUED:    9034515 USEFUL:      37126 USELESS:      11226 LATE:        279 TOO_EARLY:         19
cpu0->cpu0_L1D AVERAGE MISS LATENCY: 207.4 cycles
cpu0->cpu0_ITLB TOTAL        ACCESS:    2143573 HIT:    2143573 MISS:          0 MSHR_MERGE:          0
cpu0->cpu0_ITLB LOAD         ACCESS:    2143573 HIT:    2143573 MISS:          0 MSHR_MERGE:          0
cpu0->cpu0_ITLB RFO          ACCESS:          0 HIT:          0 MISS:          0 MSHR_MERGE:          0
cpu0->cpu0_ITLB PREFETCH     ACCESS:          0 HIT:          0 MISS:          0 MSHR_MERGE:          0
cpu0->cpu0_ITLB WRITE        ACCESS:          0 HIT:          0 MISS:          0 MSHR_MERGE:          0
cpu0->cpu0_ITLB TRANSLATION  ACCESS:          0 HIT:          0 MISS:          0 MSHR_MERGE:          0
cpu0->cpu0_ITLB PREFETCH REQUESTED:          0 ISSUED:          0 USEFUL:          0 USELESS:          0 LATE:          0 TOO_EARLY:          0
cpu0->cpu0_ITLB AVERAGE MISS LATENCY: - cycles
cpu0->cpu0_DTLB TOTAL        ACCESS:   15278014 HIT:   13212637 MISS:    2065377 MSHR_MERGE:    1048257
cpu0->cpu0_DTLB LOAD         ACCESS:   15278014 HIT:   13212637 MISS:    2065377 MSHR_MERGE:    1048257
cpu0->cpu0_DTLB RFO          ACCESS:          0 HIT:          0 MISS:          0 MSHR_MERGE:          0
cpu0->cpu0_DTLB PREFETCH     ACCESS:          0 HIT:          0 MISS:          0 MSHR_MERGE:          0
cpu0->cpu0_DTLB WRITE        ACCESS:          0 HIT:          0 MISS:          0 MSHR_MERGE:          0
cpu0->cpu0_DTLB TRANSLATION  ACCESS:          0 HIT:          0 MISS:          0 MSHR_MERGE:          0
cpu0->cpu0_DTLB PREFETCH REQUESTED:          0 ISSUED:          0 USEFUL:          0 USELESS:          0 LATE:          0 TOO_EARLY:          0
cpu0->cpu0_DTLB AVERAGE MISS LATENCY: 135.7 cycles
cpu0->LLC TOTAL        ACCESS:    2629190 HIT:     333519 MISS:    2295671 MSHR_MERGE:        742
cpu0->LLC LOAD         ACCESS:    1165443 HIT:       1003 MISS:    1164440 MSHR_MERGE:        104
cpu0->LLC RFO          ACCESS:     235857 HIT:        227 MISS:     235630 MSHR_MERGE:          0
cpu0->LLC PREFETCH     ACCESS:     218419 HIT:        265 MISS:     218154 MSHR_MERGE:        638
cpu0->LLC WRITE        ACCESS:     472475 HIT:     191873 MISS:     280602 MSHR_MERGE:          0
cpu0->LLC TRANSLATION  ACCESS:     536996 HIT:     140151 MISS:     396845 MSHR_MERGE:          0
cpu0->LLC PREFETCH REQUESTED:          0 ISSUED:          0 USEFUL:          0 USELESS:          0 LATE:          0 TOO_EARLY:          0
cpu0->LLC AVERAGE MISS LATENCY: 186.7 cycles

DRAM Statistics

Channel 0 RQ ROW_BUFFER_HIT:      20196
  ROW_BUFFER_MISS:    1994131
  AVG DBUS CONGESTED CYCLE: 9.679
Channel 0 WQ ROW_BUFFER_HIT:     145407
  ROW_BUFFER_MISS:     319724
  FULL:          0
Channel 0 REFRESHES ISSUED:      20523

[ROI Statistics]
[System Configuration]
num_cpus 1
cpu_freq 4000
fetch_width 6
decode_width 6
dispatch_width 6
execute_width 6
lq_width 2
sq_width 2
retire_width 6
scheduler_size 128
branch_mispredict_penalty 15
rob_size 352
lq_size 128
sq_size 72
ifetch_buffer_size 64
decode_buffer_size 32
dispatch_buffer_size 32
register_file_size 288
decode_latency 1
dispatch_latency 1
schedule_latency 1
execute_latency 1
page_size 4096
block_size 64
core_0_itlb_set 16
core_0_itlb_way 4
core_0_itlb_rq_size 16
core_0_itlb_wq_size 16
core_0_itlb_pq_size 0
core_0_itlb_mshr_size 8
core_0_itlb_hit_latency 1
core_0_itlb_fill_latency 1
core_0_itlb_max_tag_check 2
core_0_itlb_max_fill 2
core_0_dtlb_set 16
core_0_dtlb_way 4
core_0_dtlb_rq_size 16
core_0_dtlb_wq_size 16
core_0_dtlb_pq_size 0
core_0_dtlb_mshr_size 8
core_0_dtlb_hit_latency 1
core_0_dtlb_fill_latency 1
core_0_dtlb_max_tag_check 2
core_0_dtlb_max_fill 2
core_0_stlb_set 128
core_0_stlb_way 12
core_0_stlb_rq_size 32
core_0_stlb_wq_size 32
core_0_stlb_pq_size 0
core_0_stlb_mshr_size 16
core_0_stlb_hit_latency 4
core_0_stlb_fill_latency 4
core_0_stlb_max_tag_check 1
core_0_stlb_max_fill 1
core_0_l1i_set 64
core_0_l1i_way 8
core_0_l1i_rq_size 64
core_0_l1i_wq_size 64
core_0_l1i_pq_size 32
core_0_l1i_mshr_size 8
core_0_l1i_hit_latency 2
core_0_l1i_fill_latency 2
core_0_l1i_max_tag_check 2
core_0_l1i_max_fill 2
core_0_l1d_set 64
core_0_l1d_way 12
core_0_l1d_rq_size 64
core_0_l1d_wq_size 64
core_0_l1d_pq_size 8
core_0_l1d_mshr_size 16
core_0_l1d_hit_latency 2
core_0_l1d_fill_latency 3
core_0_l1d_max_tag_check 2
core_0_l1d_max_fill 2
core_0_l2c_set 1024
core_0_l2c_way 8
core_0_l2c_rq_size 32
core_0_l2c_wq_size 32
core_0_l2c_pq_size 16
core_0_l2c_mshr_size 32
core_0_l2c_hit_latency 5
core_0_l2c_fill_latency 5
core_0_l2c_max_tag_check 1
core_0_l2c_max_fill 1
llc_set 2048
llc_way 16
llc_rq_size 32
llc_wq_size 32
llc_pq_size 32
llc_mshr_size 64
llc_hit_latency 10
llc_fill_latency 10
llc_max_tag_check 1
llc_max_fill 1
dram_channels 1
dram_ranks 1
dram_bankgroups 8
dram_banks 4
dram_rows 65536
dram_columns 1024
dram_channel_width 8
dram_rq_size 64
dram_wq_size 64
dram_size 17179869184
core_0_itlb_prefetcher no
core_0_dtlb_prefetcher no
core_0_stlb_prefetcher no
core_0_l1i_prefetcher next_line
core_0_l1d_prefetcher vberti
core_0_l2c_prefetcher ip_stride
llc_prefetcher no
llc_replacement drrip

Core_0_instructions 100000002
Core_0_cycles 246268476
Core_0_IPC 0.406061
Core_0_branch_prediction_accuracy 97.6526
Core_0_branch_MPKI 4.12963
Core_0_average_ROB_occupancy_at_mispredict 141.081

Core_0_ITLB_total_access 2143573
Core_0_ITLB_total_hit 2143573
Core_0_ITLB_total_miss 0
Core_0_ITLB_total_MPKI 0
Core_0_ITLB_total_miss_rate 0
Core_0_ITLB_demand_access 2143573
Core_0_ITLB_demand_hit 2143573
Core_0_ITLB_demand_miss 0
Core_0_ITLB_demand_MPKI 0
Core_0_ITLB_demand_miss_rate 0
Core_0_ITLB_load_access 2143573
Core_0_ITLB_load_hit 2143573
Core_0_ITLB_load_miss 0
Core_0_ITLB_load_MPKI 0
Core_0_ITLB_load_miss_rate 0
Core_0_ITLB_rfo_access 0
Core_0_ITLB_rfo_hit 0
Core_0_ITLB_rfo_miss 0
Core_0_ITLB_rfo_MPKI 0
Core_0_ITLB_rfo_miss_rate 0
Core_0_ITLB_prefetch_access 0
Core_0_ITLB_prefetch_hit 0
Core_0_ITLB_prefetch_miss 0
Core_0_ITLB_prefetch_MPKI 0
Core_0_ITLB_prefetch_miss_rate 0
Core_0_ITLB_writeback_access 0
Core_0_ITLB_writeback_hit 0
Core_0_ITLB_writeback_miss 0
Core_0_ITLB_writeback_MPKI 0
Core_0_ITLB_writeback_miss_rate 0
Core_0_ITLB_prefetch_requested 0
Core_0_ITLB_prefetch_issued 0
Core_0_ITLB_prefetch_useful 0
Core_0_ITLB_prefetch_useless 0
Core_0_ITLB_prefetch_late 0
Core_0_ITLB_prefetch_fill 0
Core_0_ITLB_prefetch_too_early 0
Core_0_ITLB_prefetch_too_early_among_fill 0
Core_0_ITLB_prefetch_too_early_among_useless 0
Core_0_ITLB_prefetch_pollution_evict 0
Core_0_ITLB_prefetch_pollution_demand 0
Core_0_ITLB_prefetch_pollution_among_prefetch_fill 0
Core_0_ITLB_prefetch_accuracy 0
Core_0_ITLB_prefetch_coverage 0

Core_0_DTLB_total_access 15278014
Core_0_DTLB_total_hit 13212637
Core_0_DTLB_total_miss 2065377
Core_0_DTLB_total_MPKI 20.6538
Core_0_DTLB_total_miss_rate 0.135186
Core_0_DTLB_demand_access 15278014
Core_0_DTLB_demand_hit 13212637
Core_0_DTLB_demand_miss 2065377
Core_0_DTLB_demand_MPKI 20.6538
Core_0_DTLB_demand_miss_rate 0.135186
Core_0_DTLB_load_access 15278014
Core_0_DTLB_load_hit 13212637
Core_0_DTLB_load_miss 2065377
Core_0_DTLB_load_MPKI 20.6538
Core_0_DTLB_load_miss_rate 0.135186
Core_0_DTLB_rfo_access 0
Core_0_DTLB_rfo_hit 0
Core_0_DTLB_rfo_miss 0
Core_0_DTLB_rfo_MPKI 0
Core_0_DTLB_rfo_miss_rate 0
Core_0_DTLB_prefetch_access 0
Core_0_DTLB_prefetch_hit 0
Core_0_DTLB_prefetch_miss 0
Core_0_DTLB_prefetch_MPKI 0
Core_0_DTLB_prefetch_miss_rate 0
Core_0_DTLB_writeback_access 0
Core_0_DTLB_writeback_hit 0
Core_0_DTLB_writeback_miss 0
Core_0_DTLB_writeback_MPKI 0
Core_0_DTLB_writeback_miss_rate 0
Core_0_DTLB_prefetch_requested 0
Core_0_DTLB_prefetch_issued 0
Core_0_DTLB_prefetch_useful 0
Core_0_DTLB_prefetch_useless 0
Core_0_DTLB_prefetch_late 0
Core_0_DTLB_prefetch_fill 0
Core_0_DTLB_prefetch_too_early 0
Core_0_DTLB_prefetch_too_early_among_fill 0
Core_0_DTLB_prefetch_too_early_among_useless 0
Core_0_DTLB_prefetch_pollution_evict 0
Core_0_DTLB_prefetch_pollution_demand 0
Core_0_DTLB_prefetch_pollution_among_prefetch_fill 0
Core_0_DTLB_prefetch_accuracy 0
Core_0_DTLB_prefetch_coverage 0

Core_0_STLB_total_access 1017120
Core_0_STLB_total_hit 29127
Core_0_STLB_total_miss 987993
Core_0_STLB_total_MPKI 9.87993
Core_0_STLB_total_miss_rate 0.971363
Core_0_STLB_demand_access 1017120
Core_0_STLB_demand_hit 29127
Core_0_STLB_demand_miss 987993
Core_0_STLB_demand_MPKI 9.87993
Core_0_STLB_demand_miss_rate 0.971363
Core_0_STLB_load_access 1017120
Core_0_STLB_load_hit 29127
Core_0_STLB_load_miss 987993
Core_0_STLB_load_MPKI 9.87993
Core_0_STLB_load_miss_rate 0.971363
Core_0_STLB_rfo_access 0
Core_0_STLB_rfo_hit 0
Core_0_STLB_rfo_miss 0
Core_0_STLB_rfo_MPKI 0
Core_0_STLB_rfo_miss_rate 0
Core_0_STLB_prefetch_access 0
Core_0_STLB_prefetch_hit 0
Core_0_STLB_prefetch_miss 0
Core_0_STLB_prefetch_MPKI 0
Core_0_STLB_prefetch_miss_rate 0
Core_0_STLB_writeback_access 0
Core_0_STLB_writeback_hit 0
Core_0_STLB_writeback_miss 0
Core_0_STLB_writeback_MPKI 0
Core_0_STLB_writeback_miss_rate 0
Core_0_STLB_prefetch_requested 0
Core_0_STLB_prefetch_issued 0
Core_0_STLB_prefetch_useful 0
Core_0_STLB_prefetch_useless 0
Core_0_STLB_prefetch_late 0
Core_0_STLB_prefetch_fill 0
Core_0_STLB_prefetch_too_early 0
Core_0_STLB_prefetch_too_early_among_fill 0
Core_0_STLB_prefetch_too_early_among_useless 0
Core_0_STLB_prefetch_pollution_evict 0
Core_0_STLB_prefetch_pollution_demand 0
Core_0_STLB_prefetch_pollution_among_prefetch_fill 0
Core_0_STLB_prefetch_accuracy 0
Core_0_STLB_prefetch_coverage 0

Core_0_L1I_total_access 2143595
Core_0_L1I_total_hit 2143595
Core_0_L1I_total_miss 0
Core_0_L1I_total_MPKI 0
Core_0_L1I_total_miss_rate 0
Core_0_L1I_demand_access 2143595
Core_0_L1I_demand_hit 2143595
Core_0_L1I_demand_miss 0
Core_0_L1I_demand_MPKI 0
Core_0_L1I_demand_miss_rate 0
Core_0_L1I_load_access 2143595
Core_0_L1I_load_hit 2143595
Core_0_L1I_load_miss 0
Core_0_L1I_load_MPKI 0
Core_0_L1I_load_miss_rate 0
Core_0_L1I_rfo_access 0
Core_0_L1I_rfo_hit 0
Core_0_L1I_rfo_miss 0
Core_0_L1I_rfo_MPKI 0
Core_0_L1I_rfo_miss_rate 0
Core_0_L1I_prefetch_access 0
Core_0_L1I_prefetch_hit 0
Core_0_L1I_prefetch_miss 0
Core_0_L1I_prefetch_MPKI 0
Core_0_L1I_prefetch_miss_rate 0
Core_0_L1I_writeback_access 0
Core_0_L1I_writeback_hit 0
Core_0_L1I_writeback_miss 0
Core_0_L1I_writeback_MPKI 0
Core_0_L1I_writeback_miss_rate 0
Core_0_L1I_prefetch_requested 0
Core_0_L1I_prefetch_issued 0
Core_0_L1I_prefetch_useful 0
Core_0_L1I_prefetch_useless 0
Core_0_L1I_prefetch_late 0
Core_0_L1I_prefetch_fill 0
Core_0_L1I_prefetch_too_early 0
Core_0_L1I_prefetch_too_early_among_fill 0
Core_0_L1I_prefetch_too_early_among_useless 0
Core_0_L1I_prefetch_pollution_evict 0
Core_0_L1I_prefetch_pollution_demand 0
Core_0_L1I_prefetch_pollution_among_prefetch_fill 0
Core_0_L1I_prefetch_accuracy 0
Core_0_L1I_prefetch_coverage 0

Core_0_L1D_total_access 19935388
Core_0_L1D_total_hit 15586021
Core_0_L1D_total_miss 4349367
Core_0_L1D_total_MPKI 43.4937
Core_0_L1D_total_miss_rate 0.218173
Core_0_L1D_demand_access 10398294
Core_0_L1D_demand_hit 7580752
Core_0_L1D_demand_miss 2817542
Core_0_L1D_demand_MPKI 28.1754
Core_0_L1D_demand_miss_rate 0.270962
Core_0_L1D_load_access 10398294
Core_0_L1D_load_hit 7580752
Core_0_L1D_load_miss 2817542
Core_0_L1D_load_MPKI 28.1754
Core_0_L1D_load_miss_rate 0.270962
Core_0_L1D_rfo_access 0
Core_0_L1D_rfo_hit 0
Core_0_L1D_rfo_miss 0
Core_0_L1D_rfo_MPKI 0
Core_0_L1D_rfo_miss_rate 0
Core_0_L1D_prefetch_access 9034507
Core_0_L1D_prefetch_hit 7741270
Core_0_L1D_prefetch_miss 1293237
Core_0_L1D_prefetch_MPKI 12.9324
Core_0_L1D_prefetch_miss_rate 0.143144
Core_0_L1D_writeback_access 502587
Core_0_L1D_writeback_hit 263999
Core_0_L1D_writeback_miss 238588
Core_0_L1D_writeback_MPKI 2.38588
Core_0_L1D_writeback_miss_rate 0.47472
Core_0_L1D_prefetch_requested 10698919
Core_0_L1D_prefetch_issued 9034515
Core_0_L1D_prefetch_useful 37126
Core_0_L1D_prefetch_useless 11226
Core_0_L1D_prefetch_late 279
Core_0_L1D_prefetch_fill 48116
Core_0_L1D_prefetch_too_early 19
Core_0_L1D_prefetch_too_early_among_fill 0.000394879
Core_0_L1D_prefetch_too_early_among_useless 0.0016925
Core_0_L1D_prefetch_pollution_evict 146
Core_0_L1D_prefetch_pollution_demand 146
Core_0_L1D_prefetch_pollution_among_prefetch_fill 0.00303433
Core_0_L1D_prefetch_accuracy 0.00410935
Core_0_L1D_prefetch_coverage 0.0130054

Core_0_L2C_total_access 3427157
Core_0_L2C_total_hit 1652834
Core_0_L2C_total_miss 1774323
Core_0_L2C_total_MPKI 17.7432
Core_0_L2C_total_miss_rate 0.517724
Core_0_L2C_demand_access 1466226
Core_0_L2C_demand_hit 63338
Core_0_L2C_demand_miss 1402888
Core_0_L2C_demand_MPKI 14.0289
Core_0_L2C_demand_miss_rate 0.956802
Core_0_L2C_load_access 1228018
Core_0_L2C_load_hit 60994
Core_0_L2C_load_miss 1167024
Core_0_L2C_load_MPKI 11.6702
Core_0_L2C_load_miss_rate 0.950331
Core_0_L2C_rfo_access 238208
Core_0_L2C_rfo_hit 2344
Core_0_L2C_rfo_miss 235864
Core_0_L2C_rfo_MPKI 2.35864
Core_0_L2C_rfo_miss_rate 0.99016
Core_0_L2C_prefetch_access 1484714
Core_0_L2C_prefetch_hit 1113369
Core_0_L2C_prefetch_miss 371345
Core_0_L2C_prefetch_MPKI 3.71345
Core_0_L2C_prefetch_miss_rate 0.250112
Core_0_L2C_writeback_access 476217
Core_0_L2C_writeback_hit 476127
Core_0_L2C_writeback_miss 90
Core_0_L2C_writeback_MPKI 0.0009
Core_0_L2C_writeback_miss_rate 0.000188989
Core_0_L2C_prefetch_requested 267288
Core_0_L2C_prefetch_issued 221924
Core_0_L2C_prefetch_useful 48789
Core_0_L2C_prefetch_useless 24517
Core_0_L2C_prefetch_late 546
Core_0_L2C_prefetch_fill 215495
Core_0_L2C_prefetch_too_early 339
Core_0_L2C_prefetch_too_early_among_fill 0.00157312
Core_0_L2C_prefetch_too_early_among_useless 0.0138271
Core_0_L2C_prefetch_pollution_evict 441
Core_0_L2C_prefetch_pollution_demand 437
Core_0_L2C_prefetch_pollution_among_prefetch_fill 0.00204645
Core_0_L2C_prefetch_accuracy 0.219846
Core_0_L2C_prefetch_coverage 0.0336087

Core_0_LLC_total_access 2092194
Core_0_LLC_total_hit 193368
Core_0_LLC_total_miss 1898826
Core_0_LLC_total_MPKI 18.9883
Core_0_LLC_total_miss_rate 0.907576
Core_0_LLC_demand_access 1401300
Core_0_LLC_demand_hit 1230
Core_0_LLC_demand_miss 1400070
Core_0_LLC_demand_MPKI 14.0007
Core_0_LLC_demand_miss_rate 0.999122
Core_0_LLC_load_access 1165443
Core_0_LLC_load_hit 1003
Core_0_LLC_load_miss 1164440
Core_0_LLC_load_MPKI 11.6444
Core_0_LLC_load_miss_rate 0.999139
Core_0_LLC_rfo_access 235857
Core_0_LLC_rfo_hit 227
Core_0_LLC_rfo_miss 235630
Core_0_LLC_rfo_MPKI 2.3563
Core_0_LLC_rfo_miss_rate 0.999038
Core_0_LLC_prefetch_access 218419
Core_0_LLC_prefetch_hit 265
Core_0_LLC_prefetch_miss 218154
Core_0_LLC_prefetch_MPKI 2.18154
Core_0_LLC_prefetch_miss_rate 0.998787
Core_0_LLC_writeback_access 472475
Core_0_LLC_writeback_hit 191873
Core_0_LLC_writeback_miss 280602
Core_0_LLC_writeback_MPKI 2.80602
Core_0_LLC_writeback_miss_rate 0.593898
Core_0_LLC_prefetch_requested 0
Core_0_LLC_prefetch_issued 0
Core_0_LLC_prefetch_useful 0
Core_0_LLC_prefetch_useless 0
Core_0_LLC_prefetch_late 0
Core_0_LLC_prefetch_fill 217412
Core_0_LLC_prefetch_too_early 0
Core_0_LLC_prefetch_too_early_among_fill 0
Core_0_LLC_prefetch_too_early_among_useless 0
Core_0_LLC_prefetch_pollution_evict 1123
Core_0_LLC_prefetch_pollution_demand 1123
Core_0_LLC_prefetch_pollution_among_prefetch_fill 0.00516531
Core_0_LLC_prefetch_accuracy 0
Core_0_LLC_prefetch_coverage 0

[DRAM Statistics]
Channel_0_RQ_row_buffer_hit 20196
Channel_0_RQ_row_buffer_miss 1994131
Channel_0_WQ_row_buffer_hit 145407
Channel_0_WQ_row_buffer_miss 319724
Channel_0_WQ_full 0
Channel_0_dbus_congested 5977280
DRAM_total_RQ_row_buffer_hit 20196
DRAM_total_RQ_row_buffer_miss 1994131
DRAM_total_WQ_row_buffer_hit 145407
DRAM_total_WQ_row_buffer_miss 319724
DRAM_total_WQ_full 0
DRAM_total_dbus_congested 5977280
DRAM_avg_congested_cycle 9.67894

====== DRAM_RQ_TRAFFIC ========
DRAM_RQ_READ_TRAFFIC_BREAKDOWN:
data_demand_read.count = 1399966
data_demand_read.share = 69.50%

inst_demand_read.count = 0
inst_demand_read.share = 0.00%

cache_inst_prefetch.count = 0
cache_inst_prefetch.share = 0.00%

cache_data_prefetch.count = 217516
cache_data_prefetch.share = 10.80%

stlb_data_demand.count = 396134
stlb_data_demand.share = 19.67%

stlb_inst_demand.count = 0
stlb_inst_demand.share = 0.00%

stlb_l1i_pref.count = 0
stlb_l1i_pref.share = 0.00%

stlb_l1d_pref.count = 711
stlb_l1d_pref.share = 0.04%

DRAM_RQ_READ_TRAFFIC_SUMMARY:
cache_demand.count = 1399966
cache_demand.share = 69.50%

cache_prefetch.count = 217516
cache_prefetch.share = 10.80%

stlb_demand.count = 396134
stlb_demand.share = 19.67%

stlb_prefetch.count = 711
stlb_prefetch.share = 0.04%

DRAM_RQ_READ_TRAFFIC_DEBUG:
total_classified_read.count = 2014327
unclassified_read.count = 0
total_read_with_other.count = 2014327

classified_plus_unclassified_check.count = 2014327
dram_rq_read_total_observed.count = 2014327
dram_rq_read_total_observed.per_1K_instructions = 20.1433

STLB_MISS_PTW_DRAM_TOUCH_BREAKDOWN:
stlb_miss_total.count = 987993

stlb_miss_touch_dram.count = 392279
stlb_miss_touch_dram.share = 39.70%

stlb_miss_no_dram_touch.count = 595714
stlb_miss_no_dram_touch.share = 60.30%

STLB_MISS_PTW_DRAM_TOUCH_DEBUG:
stlb_miss_touch_plus_no_touch.count = 987993
stlb_miss_total_check.count = 987993

======STLB miss causes ========
Core_0_STLB_miss_cause_breakdown
Core_0_STLB_cause_Demand_Data_miss 982658
Core_0_STLB_cause_Demand_Data_miss_rate 0.966118
Core_0_STLB_cause_Demand_Instruction_miss 0
Core_0_STLB_cause_Demand_Instruction_miss_rate 0
Core_0_STLB_cause_L1D_Prefetch_miss 5335
Core_0_STLB_cause_L1D_Prefetch_miss_rate 0.0052452
Core_0_STLB_cause_L1D_Prefetch_Same_Page_miss 0
Core_0_STLB_cause_L1D_Prefetch_Same_Page_miss_rate 0
Core_0_STLB_cause_L1D_Prefetch_Cross_Page_miss 5335
Core_0_STLB_cause_L1D_Prefetch_Cross_Page_miss_rate 0.0052452
Core_0_STLB_cause_L1I_Prefetch_miss 0
Core_0_STLB_cause_L1I_Prefetch_miss_rate 0
Core_0_STLB_cause_Other_miss 0
Core_0_STLB_cause_Other_miss_rate 0
Core_0_STLB_Demand_miss 982658
Core_0_STLB_Demand_miss_rate 0.966118
Core_0_STLB_L1D_Prefetch_miss 5335
Core_0_STLB_L1D_Prefetch_miss_rate 0.0052452
Core_0_STLB_Other_miss 0
Core_0_STLB_Other_miss_rate 0

========== vBerti-TLB Cross-page Flow Stats ==========

Core_0_vBerti_Requested 10698919
Core_0_vBerti_Cross_page_prefetch_in_Requested 618887
Core_0_vBerti_Same_page_prefetch_in_Requested 10080032
Core_0_vBerti_Cross_page_prefetch_of_Requested 0.0578458
Core_0_vBerti_Issued 9034515
Core_0_vBerti_InPQ_Same_page_prefetch 8606098
Core_0_vBerti_InPQ_Cross_page_prefetch 428417
Core_0_vBerti_PQ_Drop_Rate 0.155567
Core_0_vBerti_InPQ_Cross_page_prefetch_of_Requested 0.040043
Core_0_vBerti_Cross_page_PQ_Drop_rate 0.307762
Core_0_vBerti_Cross_page_prefetch_of_Issued 0.04742
Core_0_CP_PF_PQFULL_drop 190470
Core_0_CP_PF_PQFULL_TLB_rescue_enqueued 155189
Core_0_CP_PF_PQFULL_TLB_rescue_issued 155189
Core_0_CP_PF_PQFULL_TLB_rescue_translated 155189

========= DTLB_vBerti Prefetch Stats =========
Core_0_DTLB_demand_access 10863561
Core_0_DTLB_demand_hit 8816581
Core_0_DTLB_demand_miss 2046980
Core_0_DTLB_demand_mshr_merge 1035289
Core_0_DTLB_demand_fill 1011733
Core_0_DTLB_demand_miss_rate 0.188426
Core_0_DTLB_demand_mpki 20.4698
Core_0_DTLB_vberti_prefetch_access 4414453
Core_0_DTLB_vberti_prefetch_hit 4396056
Core_0_DTLB_vberti_prefetch_miss 18397
Core_0_DTLB_vberti_prefetch_mshr_merge 12968
Core_0_DTLB_vberti_prefetch_fill 5387
Core_0_DTLB_vberti_prefetch_miss_rate 0.00416745
Core_0_DTLB_vberti_prefetch_mpki 0.18397

=== DTLB_vBerti Same/Cross-page Prefetch Stats ===
Core_0_DTLB_vberti_same_page_prefetch 4022547
Core_0_DTLB_vberti_same_page_prefetch_hit 4022547
Core_0_DTLB_vberti_same_page_prefetch_miss 0
Core_0_DTLB_vberti_same_page_prefetch_mshr_merge 0
Core_0_DTLB_vberti_same_page_prefetch_fill 0
Core_0_DTLB_vberti_same_page_prefetch_miss_rate 0
Core_0_DTLB_vberti_same_page_prefetch_mpki 0
Core_0_DTLB_vberti_cross_page_prefetch 391906
Core_0_DTLB_vberti_cross_page_prefetch_hit 373509
Core_0_DTLB_vberti_cross_page_prefetch_miss 18397
Core_0_DTLB_vberti_cross_page_prefetch_mshr_merge 12968
Core_0_DTLB_vberti_cross_page_prefetch_fill 5387
Core_0_DTLB_vberti_cross_page_prefetch_miss_rate 0.0469424
Core_0_DTLB_vberti_cross_page_prefetch_mpki 0.18397
Core_0_DTLB_same_page_prefetch_miss_rate 0
Core_0_DTLB_same_page_prefetch_mpki 0
Core_0_DTLB_cross_page_prefetch_miss_rate 0.0469424
Core_0_DTLB_cross_page_prefetch_mpki 0.18397
Core_0_DTLB_cross_page_prefetch_issued 391906
Core_0_DTLB_cross_page_prefetch_lookups 391906
Core_0_DTLB_cross_page_prefetch_useful 5067
Core_0_DTLB_cross_page_prefetch_useless 362
Core_0_DTLB_cross_page_prefetch_late 42
Core_0_DTLB_cross_page_prefetch_too_early 56
Core_0_DTLB_cross_page_prefetch_too_early_among_fill 0.0103954
Core_0_DTLB_cross_page_prefetch_too_early_among_useless 0.154696
Core_0_DTLB_cross_page_prefetch_pollution_evict 225
Core_0_DTLB_cross_page_prefetch_pollution_demand 223
Core_0_DTLB_cross_page_prefetch_pollution_among_prefetch_fill 0.0417672
Core_0_DTLB_cross_page_prefetch_accuracy 0.0129291
Core_0_DTLB_cross_page_prefetch_coverage 0.00246924

========= STLB_vBerti Prefetch Stats =========
Core_0_STLB_demand_access 1011691
Core_0_STLB_demand_hit 29033
Core_0_STLB_demand_miss 982658
Core_0_STLB_demand_mshr_merge 0
Core_0_STLB_demand_fill 982658
Core_0_STLB_demand_miss_rate 0.971303
Core_0_STLB_demand_mpki 9.82658
Core_0_STLB_vberti_prefetch_access 5429
Core_0_STLB_vberti_prefetch_hit 94
Core_0_STLB_vberti_prefetch_miss 5335
Core_0_STLB_vberti_prefetch_mshr_merge 0
Core_0_STLB_vberti_prefetch_fill 5335
Core_0_STLB_vberti_prefetch_miss_rate 0.982686
Core_0_STLB_vberti_prefetch_mpki 0.05335

=== STLB_vBerti Same/Cross-page Prefetch Stats ===
Core_0_STLB_vberti_same_page_prefetch 0
Core_0_STLB_vberti_same_page_prefetch_hit 0
Core_0_STLB_vberti_same_page_prefetch_miss 0
Core_0_STLB_vberti_same_page_prefetch_mshr_merge 0
Core_0_STLB_vberti_same_page_prefetch_fill 0
Core_0_STLB_vberti_same_page_prefetch_miss_rate 0
Core_0_STLB_vberti_same_page_prefetch_mpki 0
Core_0_STLB_vberti_cross_page_prefetch 5429
Core_0_STLB_vberti_cross_page_prefetch_hit 94
Core_0_STLB_vberti_cross_page_prefetch_miss 5335
Core_0_STLB_vberti_cross_page_prefetch_mshr_merge 0
Core_0_STLB_vberti_cross_page_prefetch_fill 5335
Core_0_STLB_vberti_cross_page_prefetch_miss_rate 0.982686
Core_0_STLB_vberti_cross_page_prefetch_mpki 0.05335
Core_0_STLB_same_page_prefetch_miss_rate 0
Core_0_STLB_same_page_prefetch_mpki 0
Core_0_STLB_cross_page_prefetch_miss_rate 0.982686
Core_0_STLB_cross_page_prefetch_mpki 0.05335
Core_0_STLB_cross_page_prefetch_issued 5429
Core_0_STLB_cross_page_prefetch_lookups 5429
Core_0_STLB_cross_page_prefetch_useful 91
Core_0_STLB_cross_page_prefetch_useless 5244
Core_0_STLB_cross_page_prefetch_late 0
Core_0_STLB_cross_page_prefetch_too_early 928
Core_0_STLB_cross_page_prefetch_too_early_among_fill 0.173946
Core_0_STLB_cross_page_prefetch_too_early_among_useless 0.176964
Core_0_STLB_cross_page_prefetch_pollution_evict 2645
Core_0_STLB_cross_page_prefetch_pollution_demand 2636
Core_0_STLB_cross_page_prefetch_pollution_among_prefetch_fill 0.495783
Core_0_STLB_cross_page_prefetch_accuracy 0.0167618
Core_0_STLB_cross_page_prefetch_coverage 9.25974e-05

========= STLB Cross-page Prefetch Buffer Stats =========
Core_0_STLB_raw_demand_miss 982658
Core_0_CP_PB_insert 0
Core_0_CP_PB_demand_hit 0
Core_0_STLB_PB_demand_miss 982658
Core_0_CP_PB_coverage 0
Core_0_STLB_raw_demand_mpki 9.82658
Core_0_STLB_PB_demand_mpki 9.82658
Core_0_CP_PB_demand_hit_mpki 0

Core_0_TLB_demand_miss_rate 0.0904545
Core_0_TLB_demand_mpki 9.82658
Core_0_TLB_same_page_prefetch_miss_rate 0
Core_0_TLB_same_page_prefetch_mpki 0
Core_0_TLB_cross_page_prefetch_miss_rate 0.013613
Core_0_TLB_cross_page_prefetch_mpki 0.05335
Core_0_TLB_cross_page_prefetch_issued 391906
Core_0_TLB_cross_page_prefetch_lookups 391906
Core_0_TLB_cross_page_prefetch_useful 5063
Core_0_TLB_cross_page_prefetch_useless 366
Core_0_TLB_cross_page_prefetch_late 42
Core_0_TLB_cross_page_prefetch_too_early 56
Core_0_TLB_cross_page_prefetch_too_early_among_fill 0.00522291
Core_0_TLB_cross_page_prefetch_too_early_among_useless 0.153005
Core_0_TLB_cross_page_prefetch_accuracy 0.0129189
Core_0_TLB_cross_page_prefetch_coverage 0.00512594
BERTI TO_L1: 12370710 TO_L2: 3610637 TO_L2_BC_MSHR: 9099
BERTI AVG_LAT: 142.058 NUM_TRACK_LATENCY: 2454428 NUM_CANT_TRACK_LATENCY: 0
BERTI CROSS_PAGE 1015227 NO_CROSS_PAGE: 14966120
BERTI FOUND_BERTI: 14477633 NO_FOUND_BERTI: 1131204
BERTI AVERAGE_ISSUED: 1.68285
