[VMEM] WARNING: physical memory size is smaller than virtual memory size.

*** ChampSim Multicore Out-of-Order Simulator ***
Warmup Instructions: 50000000
Simulation Instructions: 100000000
Number of CPUs: 1
Page size: 4096
Core 0: /data2/zcq/champsim_traces_gap/bfs.kron-542B.champsimtrace.xz
VBerti Prefetcher
BERTI HASH ENTANGLING
BERTI IP MASK ffff
Off-chip DRAM Size: 16 GiB Channels: 1 Width: 64-bit Data Rate: 3205 MT/s
Warmup halting CPU 0 at instruction 50000001 cycle 14653665 for remainder of phase
Warmup finished CPU 0 instructions: 50000001 cycles: 14653665 cumulative IPC: 3.412 (Simulation time: 00 hr 04 min 37 sec)
Warmup complete CPU 0 instructions: 50000001 cycles: 14653665 cumulative IPC: 3.412 (Simulation time: 00 hr 04 min 37 sec)
Simulation finished CPU 0 instructions: 100000001 cycles: 493052705 cumulative IPC: 0.2028 (Simulation time: 00 hr 48 min 13 sec)
Simulation complete CPU 0 instructions: 100000001 cycles: 493052705 cumulative IPC: 0.2028 (Simulation time: 00 hr 48 min 13 sec)

ChampSim completed all CPUs

=== Simulation ===
CPU 0 runs /data2/zcq/champsim_traces_gap/bfs.kron-542B.champsimtrace.xz

Region of Interest Statistics

CPU 0 cumulative IPC: 0.2028 instructions: 100000001 cycles: 493052705
CPU 0 Branch Prediction Accuracy: 84.98% MPKI: 24.28 Average ROB Occupancy at Mispredict: 16.62
Branch type MPKI
BRANCH_DIRECT_JUMP: 0.00068
BRANCH_INDIRECT: 9e-05
BRANCH_CONDITIONAL: 24.27
BRANCH_DIRECT_CALL: 0.00051
BRANCH_INDIRECT_CALL: 0.00014
BRANCH_RETURN: 0.00059

cpu0->cpu0_STLB TOTAL        ACCESS:    3540928 HIT:    1777190 MISS:    1763738 MSHR_MERGE:          0
cpu0->cpu0_STLB LOAD         ACCESS:    3540928 HIT:    1777190 MISS:    1763738 MSHR_MERGE:          0
cpu0->cpu0_STLB RFO          ACCESS:          0 HIT:          0 MISS:          0 MSHR_MERGE:          0
cpu0->cpu0_STLB PREFETCH     ACCESS:          0 HIT:          0 MISS:          0 MSHR_MERGE:          0
cpu0->cpu0_STLB WRITE        ACCESS:          0 HIT:          0 MISS:          0 MSHR_MERGE:          0
cpu0->cpu0_STLB TRANSLATION  ACCESS:          0 HIT:          0 MISS:          0 MSHR_MERGE:          0
cpu0->cpu0_STLB PREFETCH REQUESTED:          0 ISSUED:          0 USEFUL:          0 USELESS:          0 LATE:          0 TOO_EARLY:          0
cpu0->cpu0_STLB AVERAGE MISS LATENCY: 32.34 cycles
cpu0->cpu0_L2C TOTAL        ACCESS:   15306503 HIT:    8504575 MISS:    6801928 MSHR_MERGE:    1316157
cpu0->cpu0_L2C LOAD         ACCESS:    4122835 HIT:     518256 MISS:    3604579 MSHR_MERGE:      11550
cpu0->cpu0_L2C RFO          ACCESS:       2365 HIT:       2292 MISS:         73 MSHR_MERGE:          0
cpu0->cpu0_L2C PREFETCH     ACCESS:    9520712 HIT:    6377522 MISS:    3143190 MSHR_MERGE:    1304607
cpu0->cpu0_L2C WRITE        ACCESS:     481861 HIT:     481527 MISS:        334 MSHR_MERGE:          0
cpu0->cpu0_L2C TRANSLATION  ACCESS:    1178730 HIT:    1124978 MISS:      53752 MSHR_MERGE:          0
cpu0->cpu0_L2C PREFETCH REQUESTED:    1917883 ISSUED:    1917764 USEFUL:     415122 USELESS:      94842 LATE:        735 TOO_EARLY:        103
cpu0->cpu0_L2C AVERAGE MISS LATENCY: 175 cycles
cpu0->cpu0_L1I TOTAL        ACCESS:   16778715 HIT:   16778328 MISS:        387 MSHR_MERGE:         42
cpu0->cpu0_L1I LOAD         ACCESS:   16778715 HIT:   16778328 MISS:        387 MSHR_MERGE:         42
cpu0->cpu0_L1I RFO          ACCESS:          0 HIT:          0 MISS:          0 MSHR_MERGE:          0
cpu0->cpu0_L1I PREFETCH     ACCESS:          0 HIT:          0 MISS:          0 MSHR_MERGE:          0
cpu0->cpu0_L1I WRITE        ACCESS:          0 HIT:          0 MISS:          0 MSHR_MERGE:          0
cpu0->cpu0_L1I TRANSLATION  ACCESS:          0 HIT:          0 MISS:          0 MSHR_MERGE:          0
cpu0->cpu0_L1I PREFETCH REQUESTED:          0 ISSUED:          0 USEFUL:          0 USELESS:          0 LATE:          0 TOO_EARLY:          0
cpu0->cpu0_L1I AVERAGE MISS LATENCY: 209.4 cycles
cpu0->cpu0_L1D TOTAL        ACCESS:  101447903 HIT:   87477141 MISS:   13970762 MSHR_MERGE:     870874
cpu0->cpu0_L1D LOAD         ACCESS:   19520348 HIT:   14628723 MISS:    4891625 MSHR_MERGE:     769135
cpu0->cpu0_L1D RFO          ACCESS:          0 HIT:          0 MISS:          0 MSHR_MERGE:          0
cpu0->cpu0_L1D PREFETCH     ACCESS:   59220806 HIT:   51337218 MISS:    7883588 MSHR_MERGE:      87285
cpu0->cpu0_L1D WRITE        ACCESS:   19190368 HIT:   19178747 MISS:      11621 MSHR_MERGE:       9256
cpu0->cpu0_L1D TRANSLATION  ACCESS:    3516381 HIT:    2332453 MISS:    1183928 MSHR_MERGE:       5198
cpu0->cpu0_L1D PREFETCH REQUESTED:  301756031 ISSUED:   59220802 USEFUL:     956674 USELESS:      59337 LATE:       2846 TOO_EARLY:        586
cpu0->cpu0_L1D AVERAGE MISS LATENCY: 129.5 cycles
cpu0->cpu0_ITLB TOTAL        ACCESS:   16778637 HIT:   16778584 MISS:         53 MSHR_MERGE:         12
cpu0->cpu0_ITLB LOAD         ACCESS:   16778637 HIT:   16778584 MISS:         53 MSHR_MERGE:         12
cpu0->cpu0_ITLB RFO          ACCESS:          0 HIT:          0 MISS:          0 MSHR_MERGE:          0
cpu0->cpu0_ITLB PREFETCH     ACCESS:          0 HIT:          0 MISS:          0 MSHR_MERGE:          0
cpu0->cpu0_ITLB WRITE        ACCESS:          0 HIT:          0 MISS:          0 MSHR_MERGE:          0
cpu0->cpu0_ITLB TRANSLATION  ACCESS:          0 HIT:          0 MISS:          0 MSHR_MERGE:          0
cpu0->cpu0_ITLB PREFETCH REQUESTED:          0 ISSUED:          0 USEFUL:          0 USELESS:          0 LATE:          0 TOO_EARLY:          0
cpu0->cpu0_ITLB AVERAGE MISS LATENCY: 361.3 cycles
cpu0->cpu0_DTLB TOTAL        ACCESS:   75628676 HIT:   71854017 MISS:    3774659 MSHR_MERGE:     233773
cpu0->cpu0_DTLB LOAD         ACCESS:   75628676 HIT:   71854017 MISS:    3774659 MSHR_MERGE:     233773
cpu0->cpu0_DTLB RFO          ACCESS:          0 HIT:          0 MISS:          0 MSHR_MERGE:          0
cpu0->cpu0_DTLB PREFETCH     ACCESS:          0 HIT:          0 MISS:          0 MSHR_MERGE:          0
cpu0->cpu0_DTLB WRITE        ACCESS:          0 HIT:          0 MISS:          0 MSHR_MERGE:          0
cpu0->cpu0_DTLB TRANSLATION  ACCESS:          0 HIT:          0 MISS:          0 MSHR_MERGE:          0
cpu0->cpu0_DTLB PREFETCH REQUESTED:          0 ISSUED:          0 USEFUL:          0 USELESS:          0 LATE:          0 TOO_EARLY:          0
cpu0->cpu0_DTLB AVERAGE MISS LATENCY: 21.67 cycles
cpu0->LLC TOTAL        ACCESS:    5964236 HIT:    1152140 MISS:    4812096 MSHR_MERGE:        232
cpu0->LLC LOAD         ACCESS:    3593029 HIT:     946620 MISS:    2646409 MSHR_MERGE:          0
cpu0->LLC RFO          ACCESS:         73 HIT:         11 MISS:         62 MSHR_MERGE:          0
cpu0->LLC PREFETCH     ACCESS:    1838583 HIT:      18525 MISS:    1820058 MSHR_MERGE:        232
cpu0->LLC WRITE        ACCESS:     478799 HIT:     158884 MISS:     319915 MSHR_MERGE:          0
cpu0->LLC TRANSLATION  ACCESS:      53752 HIT:      28100 MISS:      25652 MSHR_MERGE:          0
cpu0->LLC PREFETCH REQUESTED:          0 ISSUED:          0 USEFUL:          0 USELESS:          0 LATE:          0 TOO_EARLY:          0
cpu0->LLC AVERAGE MISS LATENCY: 195.1 cycles

DRAM Statistics

Channel 0 RQ ROW_BUFFER_HIT:      67718
  ROW_BUFFER_MISS:    4424232
  AVG DBUS CONGESTED CYCLE: 12.93
Channel 0 WQ ROW_BUFFER_HIT:      69633
  ROW_BUFFER_MISS:     408091
  FULL:          0
Channel 0 REFRESHES ISSUED:      41087

[ROI Statistics]
[System Configuration]
num_cpus 1
cpu_freq 4000
fetch_width 6
decode_width 6
dispatch_width 6
execute_width 6
lq_width 2
sq_width 2
retire_width 6
scheduler_size 128
branch_mispredict_penalty 15
rob_size 352
lq_size 128
sq_size 72
ifetch_buffer_size 64
decode_buffer_size 32
dispatch_buffer_size 32
register_file_size 288
decode_latency 1
dispatch_latency 1
schedule_latency 1
execute_latency 1
page_size 4096
block_size 64
core_0_itlb_set 16
core_0_itlb_way 4
core_0_itlb_rq_size 16
core_0_itlb_wq_size 16
core_0_itlb_pq_size 0
core_0_itlb_mshr_size 8
core_0_itlb_hit_latency 1
core_0_itlb_fill_latency 1
core_0_itlb_max_tag_check 2
core_0_itlb_max_fill 2
core_0_dtlb_set 16
core_0_dtlb_way 4
core_0_dtlb_rq_size 16
core_0_dtlb_wq_size 16
core_0_dtlb_pq_size 0
core_0_dtlb_mshr_size 8
core_0_dtlb_hit_latency 1
core_0_dtlb_fill_latency 1
core_0_dtlb_max_tag_check 2
core_0_dtlb_max_fill 2
core_0_stlb_set 128
core_0_stlb_way 12
core_0_stlb_rq_size 32
core_0_stlb_wq_size 32
core_0_stlb_pq_size 0
core_0_stlb_mshr_size 16
core_0_stlb_hit_latency 4
core_0_stlb_fill_latency 4
core_0_stlb_max_tag_check 1
core_0_stlb_max_fill 1
core_0_l1i_set 64
core_0_l1i_way 8
core_0_l1i_rq_size 64
core_0_l1i_wq_size 64
core_0_l1i_pq_size 32
core_0_l1i_mshr_size 8
core_0_l1i_hit_latency 2
core_0_l1i_fill_latency 2
core_0_l1i_max_tag_check 2
core_0_l1i_max_fill 2
core_0_l1d_set 64
core_0_l1d_way 12
core_0_l1d_rq_size 64
core_0_l1d_wq_size 64
core_0_l1d_pq_size 8
core_0_l1d_mshr_size 16
core_0_l1d_hit_latency 2
core_0_l1d_fill_latency 3
core_0_l1d_max_tag_check 2
core_0_l1d_max_fill 2
core_0_l2c_set 1024
core_0_l2c_way 8
core_0_l2c_rq_size 32
core_0_l2c_wq_size 32
core_0_l2c_pq_size 16
core_0_l2c_mshr_size 32
core_0_l2c_hit_latency 5
core_0_l2c_fill_latency 5
core_0_l2c_max_tag_check 1
core_0_l2c_max_fill 1
llc_set 2048
llc_way 16
llc_rq_size 32
llc_wq_size 32
llc_pq_size 32
llc_mshr_size 64
llc_hit_latency 10
llc_fill_latency 10
llc_max_tag_check 1
llc_max_fill 1
dram_channels 1
dram_ranks 1
dram_bankgroups 8
dram_banks 4
dram_rows 65536
dram_columns 1024
dram_channel_width 8
dram_rq_size 64
dram_wq_size 64
dram_size 17179869184
core_0_itlb_prefetcher no
core_0_dtlb_prefetcher no
core_0_stlb_prefetcher no
core_0_l1i_prefetcher next_line
core_0_l1d_prefetcher vberti
core_0_l2c_prefetcher ip_stride
llc_prefetcher no
llc_replacement drrip

Core_0_instructions 100000001
Core_0_cycles 493052705
Core_0_IPC 0.202818
Core_0_branch_prediction_accuracy 84.98
Core_0_branch_MPKI 24.2762
Core_0_average_ROB_occupancy_at_mispredict 16.617

Core_0_ITLB_total_access 16778637
Core_0_ITLB_total_hit 16778584
Core_0_ITLB_total_miss 53
Core_0_ITLB_total_MPKI 0.00053
Core_0_ITLB_total_miss_rate 3.15878e-06
Core_0_ITLB_demand_access 16778637
Core_0_ITLB_demand_hit 16778584
Core_0_ITLB_demand_miss 53
Core_0_ITLB_demand_MPKI 0.00053
Core_0_ITLB_demand_miss_rate 3.15878e-06
Core_0_ITLB_load_access 16778637
Core_0_ITLB_load_hit 16778584
Core_0_ITLB_load_miss 53
Core_0_ITLB_load_MPKI 0.00053
Core_0_ITLB_load_miss_rate 3.15878e-06
Core_0_ITLB_rfo_access 0
Core_0_ITLB_rfo_hit 0
Core_0_ITLB_rfo_miss 0
Core_0_ITLB_rfo_MPKI 0
Core_0_ITLB_rfo_miss_rate 0
Core_0_ITLB_prefetch_access 0
Core_0_ITLB_prefetch_hit 0
Core_0_ITLB_prefetch_miss 0
Core_0_ITLB_prefetch_MPKI 0
Core_0_ITLB_prefetch_miss_rate 0
Core_0_ITLB_writeback_access 0
Core_0_ITLB_writeback_hit 0
Core_0_ITLB_writeback_miss 0
Core_0_ITLB_writeback_MPKI 0
Core_0_ITLB_writeback_miss_rate 0
Core_0_ITLB_prefetch_requested 0
Core_0_ITLB_prefetch_issued 0
Core_0_ITLB_prefetch_useful 0
Core_0_ITLB_prefetch_useless 0
Core_0_ITLB_prefetch_late 0
Core_0_ITLB_prefetch_fill 0
Core_0_ITLB_prefetch_too_early 0
Core_0_ITLB_prefetch_too_early_among_fill 0
Core_0_ITLB_prefetch_too_early_among_useless 0
Core_0_ITLB_prefetch_pollution_evict 0
Core_0_ITLB_prefetch_pollution_demand 0
Core_0_ITLB_prefetch_pollution_among_prefetch_fill 0
Core_0_ITLB_prefetch_accuracy 0
Core_0_ITLB_prefetch_coverage 0

Core_0_DTLB_total_access 75628676
Core_0_DTLB_total_hit 71854017
Core_0_DTLB_total_miss 3774659
Core_0_DTLB_total_MPKI 37.7466
Core_0_DTLB_total_miss_rate 0.0499104
Core_0_DTLB_demand_access 75628676
Core_0_DTLB_demand_hit 71854017
Core_0_DTLB_demand_miss 3774659
Core_0_DTLB_demand_MPKI 37.7466
Core_0_DTLB_demand_miss_rate 0.0499104
Core_0_DTLB_load_access 75628676
Core_0_DTLB_load_hit 71854017
Core_0_DTLB_load_miss 3774659
Core_0_DTLB_load_MPKI 37.7466
Core_0_DTLB_load_miss_rate 0.0499104
Core_0_DTLB_rfo_access 0
Core_0_DTLB_rfo_hit 0
Core_0_DTLB_rfo_miss 0
Core_0_DTLB_rfo_MPKI 0
Core_0_DTLB_rfo_miss_rate 0
Core_0_DTLB_prefetch_access 0
Core_0_DTLB_prefetch_hit 0
Core_0_DTLB_prefetch_miss 0
Core_0_DTLB_prefetch_MPKI 0
Core_0_DTLB_prefetch_miss_rate 0
Core_0_DTLB_writeback_access 0
Core_0_DTLB_writeback_hit 0
Core_0_DTLB_writeback_miss 0
Core_0_DTLB_writeback_MPKI 0
Core_0_DTLB_writeback_miss_rate 0
Core_0_DTLB_prefetch_requested 0
Core_0_DTLB_prefetch_issued 0
Core_0_DTLB_prefetch_useful 0
Core_0_DTLB_prefetch_useless 0
Core_0_DTLB_prefetch_late 0
Core_0_DTLB_prefetch_fill 0
Core_0_DTLB_prefetch_too_early 0
Core_0_DTLB_prefetch_too_early_among_fill 0
Core_0_DTLB_prefetch_too_early_among_useless 0
Core_0_DTLB_prefetch_pollution_evict 0
Core_0_DTLB_prefetch_pollution_demand 0
Core_0_DTLB_prefetch_pollution_among_prefetch_fill 0
Core_0_DTLB_prefetch_accuracy 0
Core_0_DTLB_prefetch_coverage 0

Core_0_STLB_total_access 3540928
Core_0_STLB_total_hit 1777190
Core_0_STLB_total_miss 1763738
Core_0_STLB_total_MPKI 17.6374
Core_0_STLB_total_miss_rate 0.4981
Core_0_STLB_demand_access 3540928
Core_0_STLB_demand_hit 1777190
Core_0_STLB_demand_miss 1763738
Core_0_STLB_demand_MPKI 17.6374
Core_0_STLB_demand_miss_rate 0.4981
Core_0_STLB_load_access 3540928
Core_0_STLB_load_hit 1777190
Core_0_STLB_load_miss 1763738
Core_0_STLB_load_MPKI 17.6374
Core_0_STLB_load_miss_rate 0.4981
Core_0_STLB_rfo_access 0
Core_0_STLB_rfo_hit 0
Core_0_STLB_rfo_miss 0
Core_0_STLB_rfo_MPKI 0
Core_0_STLB_rfo_miss_rate 0
Core_0_STLB_prefetch_access 0
Core_0_STLB_prefetch_hit 0
Core_0_STLB_prefetch_miss 0
Core_0_STLB_prefetch_MPKI 0
Core_0_STLB_prefetch_miss_rate 0
Core_0_STLB_writeback_access 0
Core_0_STLB_writeback_hit 0
Core_0_STLB_writeback_miss 0
Core_0_STLB_writeback_MPKI 0
Core_0_STLB_writeback_miss_rate 0
Core_0_STLB_prefetch_requested 0
Core_0_STLB_prefetch_issued 0
Core_0_STLB_prefetch_useful 0
Core_0_STLB_prefetch_useless 0
Core_0_STLB_prefetch_late 0
Core_0_STLB_prefetch_fill 0
Core_0_STLB_prefetch_too_early 0
Core_0_STLB_prefetch_too_early_among_fill 0
Core_0_STLB_prefetch_too_early_among_useless 0
Core_0_STLB_prefetch_pollution_evict 0
Core_0_STLB_prefetch_pollution_demand 0
Core_0_STLB_prefetch_pollution_among_prefetch_fill 0
Core_0_STLB_prefetch_accuracy 0
Core_0_STLB_prefetch_coverage 0

Core_0_L1I_total_access 16778715
Core_0_L1I_total_hit 16778328
Core_0_L1I_total_miss 387
Core_0_L1I_total_MPKI 0.00387
Core_0_L1I_total_miss_rate 2.30649e-05
Core_0_L1I_demand_access 16778715
Core_0_L1I_demand_hit 16778328
Core_0_L1I_demand_miss 387
Core_0_L1I_demand_MPKI 0.00387
Core_0_L1I_demand_miss_rate 2.30649e-05
Core_0_L1I_load_access 16778715
Core_0_L1I_load_hit 16778328
Core_0_L1I_load_miss 387
Core_0_L1I_load_MPKI 0.00387
Core_0_L1I_load_miss_rate 2.30649e-05
Core_0_L1I_rfo_access 0
Core_0_L1I_rfo_hit 0
Core_0_L1I_rfo_miss 0
Core_0_L1I_rfo_MPKI 0
Core_0_L1I_rfo_miss_rate 0
Core_0_L1I_prefetch_access 0
Core_0_L1I_prefetch_hit 0
Core_0_L1I_prefetch_miss 0
Core_0_L1I_prefetch_MPKI 0
Core_0_L1I_prefetch_miss_rate 0
Core_0_L1I_writeback_access 0
Core_0_L1I_writeback_hit 0
Core_0_L1I_writeback_miss 0
Core_0_L1I_writeback_MPKI 0
Core_0_L1I_writeback_miss_rate 0
Core_0_L1I_prefetch_requested 0
Core_0_L1I_prefetch_issued 0
Core_0_L1I_prefetch_useful 0
Core_0_L1I_prefetch_useless 0
Core_0_L1I_prefetch_late 0
Core_0_L1I_prefetch_fill 0
Core_0_L1I_prefetch_too_early 0
Core_0_L1I_prefetch_too_early_among_fill 0
Core_0_L1I_prefetch_too_early_among_useless 0
Core_0_L1I_prefetch_pollution_evict 0
Core_0_L1I_prefetch_pollution_demand 0
Core_0_L1I_prefetch_pollution_among_prefetch_fill 0
Core_0_L1I_prefetch_accuracy 0
Core_0_L1I_prefetch_coverage 0

Core_0_L1D_total_access 97931522
Core_0_L1D_total_hit 85144688
Core_0_L1D_total_miss 12786834
Core_0_L1D_total_MPKI 127.868
Core_0_L1D_total_miss_rate 0.130569
Core_0_L1D_demand_access 19520348
Core_0_L1D_demand_hit 14628723
Core_0_L1D_demand_miss 4891625
Core_0_L1D_demand_MPKI 48.9162
Core_0_L1D_demand_miss_rate 0.250591
Core_0_L1D_load_access 19520348
Core_0_L1D_load_hit 14628723
Core_0_L1D_load_miss 4891625
Core_0_L1D_load_MPKI 48.9162
Core_0_L1D_load_miss_rate 0.250591
Core_0_L1D_rfo_access 0
Core_0_L1D_rfo_hit 0
Core_0_L1D_rfo_miss 0
Core_0_L1D_rfo_MPKI 0
Core_0_L1D_rfo_miss_rate 0
Core_0_L1D_prefetch_access 59220806
Core_0_L1D_prefetch_hit 51337218
Core_0_L1D_prefetch_miss 7883588
Core_0_L1D_prefetch_MPKI 78.8359
Core_0_L1D_prefetch_miss_rate 0.133122
Core_0_L1D_writeback_access 19190368
Core_0_L1D_writeback_hit 19178747
Core_0_L1D_writeback_miss 11621
Core_0_L1D_writeback_MPKI 0.11621
Core_0_L1D_writeback_miss_rate 0.000605564
Core_0_L1D_prefetch_requested 301756031
Core_0_L1D_prefetch_issued 59220802
Core_0_L1D_prefetch_useful 956674
Core_0_L1D_prefetch_useless 59337
Core_0_L1D_prefetch_late 2846
Core_0_L1D_prefetch_fill 1013179
Core_0_L1D_prefetch_too_early 586
Core_0_L1D_prefetch_too_early_among_fill 0.000578378
Core_0_L1D_prefetch_too_early_among_useless 0.00987579
Core_0_L1D_prefetch_pollution_evict 24916
Core_0_L1D_prefetch_pollution_demand 24854
Core_0_L1D_prefetch_pollution_among_prefetch_fill 0.0245919
Core_0_L1D_prefetch_accuracy 0.0161544
Core_0_L1D_prefetch_coverage 0.163582

Core_0_L2C_total_access 14127773
Core_0_L2C_total_hit 7379597
Core_0_L2C_total_miss 6748176
Core_0_L2C_total_MPKI 67.4818
Core_0_L2C_total_miss_rate 0.477653
Core_0_L2C_demand_access 4125200
Core_0_L2C_demand_hit 520548
Core_0_L2C_demand_miss 3604652
Core_0_L2C_demand_MPKI 36.0465
Core_0_L2C_demand_miss_rate 0.873813
Core_0_L2C_load_access 4122835
Core_0_L2C_load_hit 518256
Core_0_L2C_load_miss 3604579
Core_0_L2C_load_MPKI 36.0458
Core_0_L2C_load_miss_rate 0.874296
Core_0_L2C_rfo_access 2365
Core_0_L2C_rfo_hit 2292
Core_0_L2C_rfo_miss 73
Core_0_L2C_rfo_MPKI 0.00073
Core_0_L2C_rfo_miss_rate 0.0308668
Core_0_L2C_prefetch_access 9520712
Core_0_L2C_prefetch_hit 6377522
Core_0_L2C_prefetch_miss 3143190
Core_0_L2C_prefetch_MPKI 31.4319
Core_0_L2C_prefetch_miss_rate 0.330142
Core_0_L2C_writeback_access 481861
Core_0_L2C_writeback_hit 481527
Core_0_L2C_writeback_miss 334
Core_0_L2C_writeback_MPKI 0.00334
Core_0_L2C_writeback_miss_rate 0.000693146
Core_0_L2C_prefetch_requested 1917883
Core_0_L2C_prefetch_issued 1917764
Core_0_L2C_prefetch_useful 415122
Core_0_L2C_prefetch_useless 94842
Core_0_L2C_prefetch_late 735
Core_0_L2C_prefetch_fill 1824404
Core_0_L2C_prefetch_too_early 103
Core_0_L2C_prefetch_too_early_among_fill 5.64568e-05
Core_0_L2C_prefetch_too_early_among_useless 0.00108602
Core_0_L2C_prefetch_pollution_evict 160524
Core_0_L2C_prefetch_pollution_demand 160507
Core_0_L2C_prefetch_pollution_among_prefetch_fill 0.0879871
Core_0_L2C_prefetch_accuracy 0.216461
Core_0_L2C_prefetch_coverage 0.10327

Core_0_LLC_total_access 5910484
Core_0_LLC_total_hit 1124040
Core_0_LLC_total_miss 4786444
Core_0_LLC_total_MPKI 47.8644
Core_0_LLC_total_miss_rate 0.809823
Core_0_LLC_demand_access 3593102
Core_0_LLC_demand_hit 946631
Core_0_LLC_demand_miss 2646471
Core_0_LLC_demand_MPKI 26.4647
Core_0_LLC_demand_miss_rate 0.736542
Core_0_LLC_load_access 3593029
Core_0_LLC_load_hit 946620
Core_0_LLC_load_miss 2646409
Core_0_LLC_load_MPKI 26.4641
Core_0_LLC_load_miss_rate 0.73654
Core_0_LLC_rfo_access 73
Core_0_LLC_rfo_hit 11
Core_0_LLC_rfo_miss 62
Core_0_LLC_rfo_MPKI 0.00062
Core_0_LLC_rfo_miss_rate 0.849315
Core_0_LLC_prefetch_access 1838583
Core_0_LLC_prefetch_hit 18525
Core_0_LLC_prefetch_miss 1820058
Core_0_LLC_prefetch_MPKI 18.2006
Core_0_LLC_prefetch_miss_rate 0.989924
Core_0_LLC_writeback_access 478799
Core_0_LLC_writeback_hit 158884
Core_0_LLC_writeback_miss 319915
Core_0_LLC_writeback_MPKI 3.19915
Core_0_LLC_writeback_miss_rate 0.668161
Core_0_LLC_prefetch_requested 0
Core_0_LLC_prefetch_issued 0
Core_0_LLC_prefetch_useful 0
Core_0_LLC_prefetch_useless 0
Core_0_LLC_prefetch_late 0
Core_0_LLC_prefetch_fill 1819826
Core_0_LLC_prefetch_too_early 0
Core_0_LLC_prefetch_too_early_among_fill 0
Core_0_LLC_prefetch_too_early_among_useless 0
Core_0_LLC_prefetch_pollution_evict 230450
Core_0_LLC_prefetch_pollution_demand 230450
Core_0_LLC_prefetch_pollution_among_prefetch_fill 0.126633
Core_0_LLC_prefetch_accuracy 0
Core_0_LLC_prefetch_coverage 0

[DRAM Statistics]
Channel_0_RQ_row_buffer_hit 67718
Channel_0_RQ_row_buffer_miss 4424232
Channel_0_WQ_row_buffer_hit 69633
Channel_0_WQ_row_buffer_miss 408091
Channel_0_WQ_full 0
Channel_0_dbus_congested 10634755
DRAM_total_RQ_row_buffer_hit 67718
DRAM_total_RQ_row_buffer_miss 4424232
DRAM_total_WQ_row_buffer_hit 69633
DRAM_total_WQ_row_buffer_miss 408091
DRAM_total_WQ_full 0
DRAM_total_dbus_congested 10634755
DRAM_avg_congested_cycle 12.9288

====== DRAM_RQ_TRAFFIC ========
DRAM_RQ_READ_TRAFFIC_BREAKDOWN:
data_demand_read.count = 2646127
data_demand_read.share = 58.91%

inst_demand_read.count = 345
inst_demand_read.share = 0.01%

cache_inst_prefetch.count = 0
cache_inst_prefetch.share = 0.00%

cache_data_prefetch.count = 1819826
cache_data_prefetch.share = 40.51%

stlb_data_demand.count = 21107
stlb_data_demand.share = 0.47%

stlb_inst_demand.count = 26
stlb_inst_demand.share = 0.00%

stlb_l1i_pref.count = 0
stlb_l1i_pref.share = 0.00%

stlb_l1d_pref.count = 4519
stlb_l1d_pref.share = 0.10%

DRAM_RQ_READ_TRAFFIC_SUMMARY:
cache_demand.count = 2646472
cache_demand.share = 58.92%

cache_prefetch.count = 1819826
cache_prefetch.share = 40.51%

stlb_demand.count = 21133
stlb_demand.share = 0.47%

stlb_prefetch.count = 4519
stlb_prefetch.share = 0.10%

DRAM_RQ_READ_TRAFFIC_DEBUG:
total_classified_read.count = 4491950
unclassified_read.count = 0
total_read_with_other.count = 4491950

classified_plus_unclassified_check.count = 4491950
dram_rq_read_total_observed.count = 4491950
dram_rq_read_total_observed.per_1K_instructions = 44.9195

STLB_MISS_PTW_DRAM_TOUCH_BREAKDOWN:
stlb_miss_total.count = 1763738

stlb_miss_touch_dram.count = 25504
stlb_miss_touch_dram.share = 1.45%

stlb_miss_no_dram_touch.count = 1738234
stlb_miss_no_dram_touch.share = 98.55%

STLB_MISS_PTW_DRAM_TOUCH_DEBUG:
stlb_miss_touch_plus_no_touch.count = 1763738
stlb_miss_total_check.count = 1763738

======STLB miss causes ========
Core_0_STLB_miss_cause_breakdown
Core_0_STLB_cause_Demand_Data_miss 1727105
Core_0_STLB_cause_Demand_Data_miss_rate 0.487755
Core_0_STLB_cause_Demand_Instruction_miss 41
Core_0_STLB_cause_Demand_Instruction_miss_rate 1.15789e-05
Core_0_STLB_cause_L1D_Prefetch_miss 36592
Core_0_STLB_cause_L1D_Prefetch_miss_rate 0.010334
Core_0_STLB_cause_L1D_Prefetch_Same_Page_miss 0
Core_0_STLB_cause_L1D_Prefetch_Same_Page_miss_rate 0
Core_0_STLB_cause_L1D_Prefetch_Cross_Page_miss 36592
Core_0_STLB_cause_L1D_Prefetch_Cross_Page_miss_rate 0.010334
Core_0_STLB_cause_L1I_Prefetch_miss 0
Core_0_STLB_cause_L1I_Prefetch_miss_rate 0
Core_0_STLB_cause_Other_miss 0
Core_0_STLB_cause_Other_miss_rate 0
Core_0_STLB_Demand_miss 1727146
Core_0_STLB_Demand_miss_rate 0.487766
Core_0_STLB_L1D_Prefetch_miss 36592
Core_0_STLB_L1D_Prefetch_miss_rate 0.010334
Core_0_STLB_Other_miss 0
Core_0_STLB_Other_miss_rate 0

========== vBerti-TLB Cross-page Flow Stats ==========

Core_0_vBerti_Requested 301756031
Core_0_vBerti_Cross_page_prefetch_in_Requested 36458502
Core_0_vBerti_Same_page_prefetch_in_Requested 265297529
Core_0_vBerti_Cross_page_prefetch_of_Requested 0.120821
Core_0_vBerti_Issued 59220802
Core_0_vBerti_InPQ_Same_page_prefetch 55883432
Core_0_vBerti_InPQ_Cross_page_prefetch 3337370
Core_0_vBerti_PQ_Drop_Rate 0.803746
Core_0_vBerti_InPQ_Cross_page_prefetch_of_Requested 0.0110598
Core_0_vBerti_Cross_page_PQ_Drop_rate 0.908461
Core_0_vBerti_Cross_page_prefetch_of_Issued 0.0563547
Core_0_CP_PF_PQFULL_drop 33121132
Core_0_CP_PF_PQFULL_TLB_rescue_enqueued 10671091
Core_0_CP_PF_PQFULL_TLB_rescue_issued 10671091
Core_0_CP_PF_PQFULL_TLB_rescue_translated 10671091

========= DTLB_vBerti Prefetch Stats =========
Core_0_DTLB_demand_access 38030246
Core_0_DTLB_demand_hit 34449646
Core_0_DTLB_demand_miss 3580600
Core_0_DTLB_demand_mshr_merge 81784
Core_0_DTLB_demand_fill 3499269
Core_0_DTLB_demand_miss_rate 0.0941514
Core_0_DTLB_demand_mpki 35.806
Core_0_DTLB_vberti_prefetch_access 37598430
Core_0_DTLB_vberti_prefetch_hit 37404371
Core_0_DTLB_vberti_prefetch_miss 194059
Core_0_DTLB_vberti_prefetch_mshr_merge 151989
Core_0_DTLB_vberti_prefetch_fill 41618
Core_0_DTLB_vberti_prefetch_miss_rate 0.00516136
Core_0_DTLB_vberti_prefetch_mpki 1.94059

=== DTLB_vBerti Same/Cross-page Prefetch Stats ===
Core_0_DTLB_vberti_same_page_prefetch 29984105
Core_0_DTLB_vberti_same_page_prefetch_hit 29984100
Core_0_DTLB_vberti_same_page_prefetch_miss 5
Core_0_DTLB_vberti_same_page_prefetch_mshr_merge 2
Core_0_DTLB_vberti_same_page_prefetch_fill 3
Core_0_DTLB_vberti_same_page_prefetch_miss_rate 1.66755e-07
Core_0_DTLB_vberti_same_page_prefetch_mpki 5e-05
Core_0_DTLB_vberti_cross_page_prefetch 7614325
Core_0_DTLB_vberti_cross_page_prefetch_hit 7420271
Core_0_DTLB_vberti_cross_page_prefetch_miss 194054
Core_0_DTLB_vberti_cross_page_prefetch_mshr_merge 151987
Core_0_DTLB_vberti_cross_page_prefetch_fill 41615
Core_0_DTLB_vberti_cross_page_prefetch_miss_rate 0.0254854
Core_0_DTLB_vberti_cross_page_prefetch_mpki 1.94054
Core_0_DTLB_same_page_prefetch_miss_rate 1.66755e-07
Core_0_DTLB_same_page_prefetch_mpki 5e-05
Core_0_DTLB_cross_page_prefetch_miss_rate 0.0254854
Core_0_DTLB_cross_page_prefetch_mpki 1.94054
Core_0_DTLB_cross_page_prefetch_issued 7614325
Core_0_DTLB_cross_page_prefetch_lookups 7614325
Core_0_DTLB_cross_page_prefetch_useful 31594
Core_0_DTLB_cross_page_prefetch_useless 10473
Core_0_DTLB_cross_page_prefetch_late 452
Core_0_DTLB_cross_page_prefetch_too_early 5923
Core_0_DTLB_cross_page_prefetch_too_early_among_fill 0.142328
Core_0_DTLB_cross_page_prefetch_too_early_among_useless 0.56555
Core_0_DTLB_cross_page_prefetch_pollution_evict 27813
Core_0_DTLB_cross_page_prefetch_pollution_demand 27285
Core_0_DTLB_cross_page_prefetch_pollution_among_prefetch_fill 0.668341
Core_0_DTLB_cross_page_prefetch_accuracy 0.00414928
Core_0_DTLB_cross_page_prefetch_coverage 0.00874648

========= STLB_vBerti Prefetch Stats =========
Core_0_STLB_demand_access 3498858
Core_0_STLB_demand_hit 1771712
Core_0_STLB_demand_miss 1727146
Core_0_STLB_demand_mshr_merge 0
Core_0_STLB_demand_fill 1727146
Core_0_STLB_demand_miss_rate 0.493631
Core_0_STLB_demand_mpki 17.2715
Core_0_STLB_vberti_prefetch_access 42070
Core_0_STLB_vberti_prefetch_hit 5478
Core_0_STLB_vberti_prefetch_miss 36592
Core_0_STLB_vberti_prefetch_mshr_merge 0
Core_0_STLB_vberti_prefetch_fill 36592
Core_0_STLB_vberti_prefetch_miss_rate 0.869788
Core_0_STLB_vberti_prefetch_mpki 0.36592

=== STLB_vBerti Same/Cross-page Prefetch Stats ===
Core_0_STLB_vberti_same_page_prefetch 3
Core_0_STLB_vberti_same_page_prefetch_hit 3
Core_0_STLB_vberti_same_page_prefetch_miss 0
Core_0_STLB_vberti_same_page_prefetch_mshr_merge 0
Core_0_STLB_vberti_same_page_prefetch_fill 0
Core_0_STLB_vberti_same_page_prefetch_miss_rate 0
Core_0_STLB_vberti_same_page_prefetch_mpki 0
Core_0_STLB_vberti_cross_page_prefetch 42067
Core_0_STLB_vberti_cross_page_prefetch_hit 5475
Core_0_STLB_vberti_cross_page_prefetch_miss 36592
Core_0_STLB_vberti_cross_page_prefetch_mshr_merge 0
Core_0_STLB_vberti_cross_page_prefetch_fill 36592
Core_0_STLB_vberti_cross_page_prefetch_miss_rate 0.86985
Core_0_STLB_vberti_cross_page_prefetch_mpki 0.36592
Core_0_STLB_same_page_prefetch_miss_rate 0
Core_0_STLB_same_page_prefetch_mpki 0
Core_0_STLB_cross_page_prefetch_miss_rate 0.86985
Core_0_STLB_cross_page_prefetch_mpki 0.36592
Core_0_STLB_cross_page_prefetch_issued 42067
Core_0_STLB_cross_page_prefetch_lookups 42067
Core_0_STLB_cross_page_prefetch_useful 5129
Core_0_STLB_cross_page_prefetch_useless 31463
Core_0_STLB_cross_page_prefetch_late 0
Core_0_STLB_cross_page_prefetch_too_early 2077
Core_0_STLB_cross_page_prefetch_too_early_among_fill 0.056761
Core_0_STLB_cross_page_prefetch_too_early_among_useless 0.066014
Core_0_STLB_cross_page_prefetch_pollution_evict 31694
Core_0_STLB_cross_page_prefetch_pollution_demand 31653
Core_0_STLB_cross_page_prefetch_pollution_among_prefetch_fill 0.866146
Core_0_STLB_cross_page_prefetch_accuracy 0.121925
Core_0_STLB_cross_page_prefetch_coverage 0.00296085

========= STLB Cross-page Prefetch Buffer Stats =========
Core_0_STLB_raw_demand_miss 1727105
Core_0_CP_PB_insert 0
Core_0_CP_PB_demand_hit 0
Core_0_STLB_PB_demand_miss 1727105
Core_0_CP_PB_coverage 0
Core_0_STLB_raw_demand_mpki 17.271
Core_0_STLB_PB_demand_mpki 17.271
Core_0_CP_PB_demand_hit_mpki 0

Core_0_TLB_demand_miss_rate 0.0454151
Core_0_TLB_demand_mpki 17.2715
Core_0_TLB_same_page_prefetch_miss_rate 0
Core_0_TLB_same_page_prefetch_mpki 0
Core_0_TLB_cross_page_prefetch_miss_rate 0.00480568
Core_0_TLB_cross_page_prefetch_mpki 0.36592
Core_0_TLB_cross_page_prefetch_issued 7614325
Core_0_TLB_cross_page_prefetch_lookups 7614325
Core_0_TLB_cross_page_prefetch_useful 31459
Core_0_TLB_cross_page_prefetch_useless 10348
Core_0_TLB_cross_page_prefetch_late 452
Core_0_TLB_cross_page_prefetch_too_early 5836
Core_0_TLB_cross_page_prefetch_too_early_among_fill 0.0746225
Core_0_TLB_cross_page_prefetch_too_early_among_useless 0.563974
Core_0_TLB_cross_page_prefetch_accuracy 0.00413155
Core_0_TLB_cross_page_prefetch_coverage 0.0178886
BERTI TO_L1: 274792938 TO_L2: 34664694 TO_L2_BC_MSHR: 431504
BERTI AVG_LAT: 98.4695 NUM_TRACK_LATENCY: 8599048 NUM_CANT_TRACK_LATENCY: 0
BERTI CROSS_PAGE 37011982 NO_CROSS_PAGE: 272445650
BERTI FOUND_BERTI: 38108418 NO_FOUND_BERTI: 9456793
BERTI AVERAGE_ISSUED: 2.29474
