[VMEM] WARNING: physical memory size is smaller than virtual memory size.

*** ChampSim Multicore Out-of-Order Simulator ***
Warmup Instructions: 50000000
Simulation Instructions: 100000000
Number of CPUs: 1
Page size: 4096
Core 0: /data2/zcq/champsim_traces_gap/cc.kron-99B.champsimtrace.xz
VBerti Prefetcher
BERTI HASH ENTANGLING
BERTI IP MASK ffff
Off-chip DRAM Size: 16 GiB Channels: 1 Width: 64-bit Data Rate: 3205 MT/s
Warmup halting CPU 0 at instruction 50000005 cycle 20555974 for remainder of phase
Warmup finished CPU 0 instructions: 50000005 cycles: 20555974 cumulative IPC: 2.432 (Simulation time: 00 hr 04 min 28 sec)
Warmup complete CPU 0 instructions: 50000005 cycles: 20555974 cumulative IPC: 2.432 (Simulation time: 00 hr 04 min 28 sec)
Simulation finished CPU 0 instructions: 100000001 cycles: 516907451 cumulative IPC: 0.1935 (Simulation time: 00 hr 46 min 21 sec)
Simulation complete CPU 0 instructions: 100000001 cycles: 516907451 cumulative IPC: 0.1935 (Simulation time: 00 hr 46 min 21 sec)

ChampSim completed all CPUs

=== Simulation ===
CPU 0 runs /data2/zcq/champsim_traces_gap/cc.kron-99B.champsimtrace.xz

Region of Interest Statistics

CPU 0 cumulative IPC: 0.1935 instructions: 100000001 cycles: 516907451
CPU 0 Branch Prediction Accuracy: 88.42% MPKI: 19.23 Average ROB Occupancy at Mispredict: 25.48
Branch type MPKI
BRANCH_DIRECT_JUMP: 0
BRANCH_INDIRECT: 0
BRANCH_CONDITIONAL: 19.23
BRANCH_DIRECT_CALL: 0
BRANCH_INDIRECT_CALL: 0
BRANCH_RETURN: 0

cpu0->cpu0_STLB TOTAL        ACCESS:    1717003 HIT:     532998 MISS:    1184005 MSHR_MERGE:          0
cpu0->cpu0_STLB LOAD         ACCESS:    1717003 HIT:     532998 MISS:    1184005 MSHR_MERGE:          0
cpu0->cpu0_STLB RFO          ACCESS:          0 HIT:          0 MISS:          0 MSHR_MERGE:          0
cpu0->cpu0_STLB PREFETCH     ACCESS:          0 HIT:          0 MISS:          0 MSHR_MERGE:          0
cpu0->cpu0_STLB WRITE        ACCESS:          0 HIT:          0 MISS:          0 MSHR_MERGE:          0
cpu0->cpu0_STLB TRANSLATION  ACCESS:          0 HIT:          0 MISS:          0 MSHR_MERGE:          0
cpu0->cpu0_STLB PREFETCH REQUESTED:          0 ISSUED:          0 USEFUL:          0 USELESS:          0 LATE:          0 TOO_EARLY:          0
cpu0->cpu0_STLB AVERAGE MISS LATENCY: 79.49 cycles
cpu0->cpu0_L2C TOTAL        ACCESS:    9955164 HIT:    5466870 MISS:    4488294 MSHR_MERGE:     119789
cpu0->cpu0_L2C LOAD         ACCESS:    2682474 HIT:     982789 MISS:    1699685 MSHR_MERGE:       2633
cpu0->cpu0_L2C RFO          ACCESS:          0 HIT:          0 MISS:          0 MSHR_MERGE:          0
cpu0->cpu0_L2C PREFETCH     ACCESS:    6115702 HIT:    4203963 MISS:    1911739 MSHR_MERGE:     117156
cpu0->cpu0_L2C WRITE        ACCESS:       3849 HIT:       3849 MISS:          0 MSHR_MERGE:          0
cpu0->cpu0_L2C TRANSLATION  ACCESS:    1153139 HIT:     276269 MISS:     876870 MSHR_MERGE:          0
cpu0->cpu0_L2C PREFETCH REQUESTED:    1402703 ISSUED:    1402703 USEFUL:     369212 USELESS:     126643 LATE:        408 TOO_EARLY:         12
cpu0->cpu0_L2C AVERAGE MISS LATENCY: 126.2 cycles
cpu0->cpu0_L1I TOTAL        ACCESS:      39724 HIT:      39724 MISS:          0 MSHR_MERGE:          0
cpu0->cpu0_L1I LOAD         ACCESS:      39724 HIT:      39724 MISS:          0 MSHR_MERGE:          0
cpu0->cpu0_L1I RFO          ACCESS:          0 HIT:          0 MISS:          0 MSHR_MERGE:          0
cpu0->cpu0_L1I PREFETCH     ACCESS:          0 HIT:          0 MISS:          0 MSHR_MERGE:          0
cpu0->cpu0_L1I WRITE        ACCESS:          0 HIT:          0 MISS:          0 MSHR_MERGE:          0
cpu0->cpu0_L1I TRANSLATION  ACCESS:          0 HIT:          0 MISS:          0 MSHR_MERGE:          0
cpu0->cpu0_L1I PREFETCH REQUESTED:          0 ISSUED:          0 USEFUL:          0 USELESS:          0 LATE:          0 TOO_EARLY:          0
cpu0->cpu0_L1I AVERAGE MISS LATENCY: - cycles
cpu0->cpu0_L1D TOTAL        ACCESS:   50539597 HIT:   41986076 MISS:    8553521 MSHR_MERGE:       4421
cpu0->cpu0_L1D LOAD         ACCESS:   21229859 HIT:   18544110 MISS:    2685749 MSHR_MERGE:       3277
cpu0->cpu0_L1D RFO          ACCESS:          0 HIT:          0 MISS:          0 MSHR_MERGE:          0
cpu0->cpu0_L1D PREFETCH     ACCESS:   26093847 HIT:   21379233 MISS:    4714614 MSHR_MERGE:       1125
cpu0->cpu0_L1D WRITE        ACCESS:       3850 HIT:       3850 MISS:          0 MSHR_MERGE:          0
cpu0->cpu0_L1D TRANSLATION  ACCESS:    3212041 HIT:    2058883 MISS:    1153158 MSHR_MERGE:         19
cpu0->cpu0_L1D PREFETCH REQUESTED:   57995698 ISSUED:   26093847 USEFUL:     637104 USELESS:      68448 LATE:        219 TOO_EARLY:          3
cpu0->cpu0_L1D AVERAGE MISS LATENCY: 93.44 cycles
cpu0->cpu0_ITLB TOTAL        ACCESS:      39724 HIT:      39724 MISS:          0 MSHR_MERGE:          0
cpu0->cpu0_ITLB LOAD         ACCESS:      39724 HIT:      39724 MISS:          0 MSHR_MERGE:          0
cpu0->cpu0_ITLB RFO          ACCESS:          0 HIT:          0 MISS:          0 MSHR_MERGE:          0
cpu0->cpu0_ITLB PREFETCH     ACCESS:          0 HIT:          0 MISS:          0 MSHR_MERGE:          0
cpu0->cpu0_ITLB WRITE        ACCESS:          0 HIT:          0 MISS:          0 MSHR_MERGE:          0
cpu0->cpu0_ITLB TRANSLATION  ACCESS:          0 HIT:          0 MISS:          0 MSHR_MERGE:          0
cpu0->cpu0_ITLB PREFETCH REQUESTED:          0 ISSUED:          0 USEFUL:          0 USELESS:          0 LATE:          0 TOO_EARLY:          0
cpu0->cpu0_ITLB AVERAGE MISS LATENCY: - cycles
cpu0->cpu0_DTLB TOTAL        ACCESS:   38608927 HIT:   36859149 MISS:    1749778 MSHR_MERGE:      32775
cpu0->cpu0_DTLB LOAD         ACCESS:   38608927 HIT:   36859149 MISS:    1749778 MSHR_MERGE:      32775
cpu0->cpu0_DTLB RFO          ACCESS:          0 HIT:          0 MISS:          0 MSHR_MERGE:          0
cpu0->cpu0_DTLB PREFETCH     ACCESS:          0 HIT:          0 MISS:          0 MSHR_MERGE:          0
cpu0->cpu0_DTLB WRITE        ACCESS:          0 HIT:          0 MISS:          0 MSHR_MERGE:          0
cpu0->cpu0_DTLB TRANSLATION  ACCESS:          0 HIT:          0 MISS:          0 MSHR_MERGE:          0
cpu0->cpu0_DTLB PREFETCH REQUESTED:          0 ISSUED:          0 USEFUL:          0 USELESS:          0 LATE:          0 TOO_EARLY:          0
cpu0->cpu0_DTLB AVERAGE MISS LATENCY: 60.51 cycles
cpu0->LLC TOTAL        ACCESS:    4372356 HIT:    1082622 MISS:    3289734 MSHR_MERGE:          5
cpu0->LLC LOAD         ACCESS:    1697052 HIT:     390099 MISS:    1306953 MSHR_MERGE:          0
cpu0->LLC RFO          ACCESS:          0 HIT:          0 MISS:          0 MSHR_MERGE:          0
cpu0->LLC PREFETCH     ACCESS:    1794583 HIT:        242 MISS:    1794341 MSHR_MERGE:          5
cpu0->LLC WRITE        ACCESS:       3851 HIT:        748 MISS:       3103 MSHR_MERGE:          0
cpu0->LLC TRANSLATION  ACCESS:     876870 HIT:     691533 MISS:     185337 MSHR_MERGE:          0
cpu0->LLC PREFETCH REQUESTED:          0 ISSUED:          0 USEFUL:          0 USELESS:          0 LATE:          0 TOO_EARLY:          0
cpu0->LLC AVERAGE MISS LATENCY: 190.5 cycles

DRAM Statistics

Channel 0 RQ ROW_BUFFER_HIT:      76791
  ROW_BUFFER_MISS:    3209836
  AVG DBUS CONGESTED CYCLE: 3.573
Channel 0 WQ ROW_BUFFER_HIT:       1427
  ROW_BUFFER_MISS:       2633
  FULL:          0
Channel 0 REFRESHES ISSUED:      43076

[ROI Statistics]
[System Configuration]
num_cpus 1
cpu_freq 4000
fetch_width 6
decode_width 6
dispatch_width 6
execute_width 6
lq_width 2
sq_width 2
retire_width 6
scheduler_size 128
branch_mispredict_penalty 15
rob_size 352
lq_size 128
sq_size 72
ifetch_buffer_size 64
decode_buffer_size 32
dispatch_buffer_size 32
register_file_size 288
decode_latency 1
dispatch_latency 1
schedule_latency 1
execute_latency 1
page_size 4096
block_size 64
core_0_itlb_set 16
core_0_itlb_way 4
core_0_itlb_rq_size 16
core_0_itlb_wq_size 16
core_0_itlb_pq_size 0
core_0_itlb_mshr_size 8
core_0_itlb_hit_latency 1
core_0_itlb_fill_latency 1
core_0_itlb_max_tag_check 2
core_0_itlb_max_fill 2
core_0_dtlb_set 16
core_0_dtlb_way 4
core_0_dtlb_rq_size 16
core_0_dtlb_wq_size 16
core_0_dtlb_pq_size 0
core_0_dtlb_mshr_size 8
core_0_dtlb_hit_latency 1
core_0_dtlb_fill_latency 1
core_0_dtlb_max_tag_check 2
core_0_dtlb_max_fill 2
core_0_stlb_set 128
core_0_stlb_way 12
core_0_stlb_rq_size 32
core_0_stlb_wq_size 32
core_0_stlb_pq_size 0
core_0_stlb_mshr_size 16
core_0_stlb_hit_latency 4
core_0_stlb_fill_latency 4
core_0_stlb_max_tag_check 1
core_0_stlb_max_fill 1
core_0_l1i_set 64
core_0_l1i_way 8
core_0_l1i_rq_size 64
core_0_l1i_wq_size 64
core_0_l1i_pq_size 32
core_0_l1i_mshr_size 8
core_0_l1i_hit_latency 2
core_0_l1i_fill_latency 2
core_0_l1i_max_tag_check 2
core_0_l1i_max_fill 2
core_0_l1d_set 64
core_0_l1d_way 12
core_0_l1d_rq_size 64
core_0_l1d_wq_size 64
core_0_l1d_pq_size 8
core_0_l1d_mshr_size 16
core_0_l1d_hit_latency 2
core_0_l1d_fill_latency 3
core_0_l1d_max_tag_check 2
core_0_l1d_max_fill 2
core_0_l2c_set 1024
core_0_l2c_way 8
core_0_l2c_rq_size 32
core_0_l2c_wq_size 32
core_0_l2c_pq_size 16
core_0_l2c_mshr_size 32
core_0_l2c_hit_latency 5
core_0_l2c_fill_latency 5
core_0_l2c_max_tag_check 1
core_0_l2c_max_fill 1
llc_set 2048
llc_way 16
llc_rq_size 32
llc_wq_size 32
llc_pq_size 32
llc_mshr_size 64
llc_hit_latency 10
llc_fill_latency 10
llc_max_tag_check 1
llc_max_fill 1
dram_channels 1
dram_ranks 1
dram_bankgroups 8
dram_banks 4
dram_rows 65536
dram_columns 1024
dram_channel_width 8
dram_rq_size 64
dram_wq_size 64
dram_size 17179869184
core_0_itlb_prefetcher no
core_0_dtlb_prefetcher no
core_0_stlb_prefetcher no
core_0_l1i_prefetcher next_line
core_0_l1d_prefetcher vberti
core_0_l2c_prefetcher ip_stride
llc_prefetcher no
llc_replacement drrip

Core_0_instructions 100000001
Core_0_cycles 516907451
Core_0_IPC 0.193458
Core_0_branch_prediction_accuracy 88.4167
Core_0_branch_MPKI 19.2282
Core_0_average_ROB_occupancy_at_mispredict 25.482

Core_0_ITLB_total_access 39724
Core_0_ITLB_total_hit 39724
Core_0_ITLB_total_miss 0
Core_0_ITLB_total_MPKI 0
Core_0_ITLB_total_miss_rate 0
Core_0_ITLB_demand_access 39724
Core_0_ITLB_demand_hit 39724
Core_0_ITLB_demand_miss 0
Core_0_ITLB_demand_MPKI 0
Core_0_ITLB_demand_miss_rate 0
Core_0_ITLB_load_access 39724
Core_0_ITLB_load_hit 39724
Core_0_ITLB_load_miss 0
Core_0_ITLB_load_MPKI 0
Core_0_ITLB_load_miss_rate 0
Core_0_ITLB_rfo_access 0
Core_0_ITLB_rfo_hit 0
Core_0_ITLB_rfo_miss 0
Core_0_ITLB_rfo_MPKI 0
Core_0_ITLB_rfo_miss_rate 0
Core_0_ITLB_prefetch_access 0
Core_0_ITLB_prefetch_hit 0
Core_0_ITLB_prefetch_miss 0
Core_0_ITLB_prefetch_MPKI 0
Core_0_ITLB_prefetch_miss_rate 0
Core_0_ITLB_writeback_access 0
Core_0_ITLB_writeback_hit 0
Core_0_ITLB_writeback_miss 0
Core_0_ITLB_writeback_MPKI 0
Core_0_ITLB_writeback_miss_rate 0
Core_0_ITLB_prefetch_requested 0
Core_0_ITLB_prefetch_issued 0
Core_0_ITLB_prefetch_useful 0
Core_0_ITLB_prefetch_useless 0
Core_0_ITLB_prefetch_late 0
Core_0_ITLB_prefetch_fill 0
Core_0_ITLB_prefetch_too_early 0
Core_0_ITLB_prefetch_too_early_among_fill 0
Core_0_ITLB_prefetch_too_early_among_useless 0
Core_0_ITLB_prefetch_pollution_evict 0
Core_0_ITLB_prefetch_pollution_demand 0
Core_0_ITLB_prefetch_pollution_among_prefetch_fill 0
Core_0_ITLB_prefetch_accuracy 0
Core_0_ITLB_prefetch_coverage 0

Core_0_DTLB_total_access 38608927
Core_0_DTLB_total_hit 36859149
Core_0_DTLB_total_miss 1749778
Core_0_DTLB_total_MPKI 17.4978
Core_0_DTLB_total_miss_rate 0.0453206
Core_0_DTLB_demand_access 38608927
Core_0_DTLB_demand_hit 36859149
Core_0_DTLB_demand_miss 1749778
Core_0_DTLB_demand_MPKI 17.4978
Core_0_DTLB_demand_miss_rate 0.0453206
Core_0_DTLB_load_access 38608927
Core_0_DTLB_load_hit 36859149
Core_0_DTLB_load_miss 1749778
Core_0_DTLB_load_MPKI 17.4978
Core_0_DTLB_load_miss_rate 0.0453206
Core_0_DTLB_rfo_access 0
Core_0_DTLB_rfo_hit 0
Core_0_DTLB_rfo_miss 0
Core_0_DTLB_rfo_MPKI 0
Core_0_DTLB_rfo_miss_rate 0
Core_0_DTLB_prefetch_access 0
Core_0_DTLB_prefetch_hit 0
Core_0_DTLB_prefetch_miss 0
Core_0_DTLB_prefetch_MPKI 0
Core_0_DTLB_prefetch_miss_rate 0
Core_0_DTLB_writeback_access 0
Core_0_DTLB_writeback_hit 0
Core_0_DTLB_writeback_miss 0
Core_0_DTLB_writeback_MPKI 0
Core_0_DTLB_writeback_miss_rate 0
Core_0_DTLB_prefetch_requested 0
Core_0_DTLB_prefetch_issued 0
Core_0_DTLB_prefetch_useful 0
Core_0_DTLB_prefetch_useless 0
Core_0_DTLB_prefetch_late 0
Core_0_DTLB_prefetch_fill 0
Core_0_DTLB_prefetch_too_early 0
Core_0_DTLB_prefetch_too_early_among_fill 0
Core_0_DTLB_prefetch_too_early_among_useless 0
Core_0_DTLB_prefetch_pollution_evict 0
Core_0_DTLB_prefetch_pollution_demand 0
Core_0_DTLB_prefetch_pollution_among_prefetch_fill 0
Core_0_DTLB_prefetch_accuracy 0
Core_0_DTLB_prefetch_coverage 0

Core_0_STLB_total_access 1717003
Core_0_STLB_total_hit 532998
Core_0_STLB_total_miss 1184005
Core_0_STLB_total_MPKI 11.84
Core_0_STLB_total_miss_rate 0.689577
Core_0_STLB_demand_access 1717003
Core_0_STLB_demand_hit 532998
Core_0_STLB_demand_miss 1184005
Core_0_STLB_demand_MPKI 11.84
Core_0_STLB_demand_miss_rate 0.689577
Core_0_STLB_load_access 1717003
Core_0_STLB_load_hit 532998
Core_0_STLB_load_miss 1184005
Core_0_STLB_load_MPKI 11.84
Core_0_STLB_load_miss_rate 0.689577
Core_0_STLB_rfo_access 0
Core_0_STLB_rfo_hit 0
Core_0_STLB_rfo_miss 0
Core_0_STLB_rfo_MPKI 0
Core_0_STLB_rfo_miss_rate 0
Core_0_STLB_prefetch_access 0
Core_0_STLB_prefetch_hit 0
Core_0_STLB_prefetch_miss 0
Core_0_STLB_prefetch_MPKI 0
Core_0_STLB_prefetch_miss_rate 0
Core_0_STLB_writeback_access 0
Core_0_STLB_writeback_hit 0
Core_0_STLB_writeback_miss 0
Core_0_STLB_writeback_MPKI 0
Core_0_STLB_writeback_miss_rate 0
Core_0_STLB_prefetch_requested 0
Core_0_STLB_prefetch_issued 0
Core_0_STLB_prefetch_useful 0
Core_0_STLB_prefetch_useless 0
Core_0_STLB_prefetch_late 0
Core_0_STLB_prefetch_fill 0
Core_0_STLB_prefetch_too_early 0
Core_0_STLB_prefetch_too_early_among_fill 0
Core_0_STLB_prefetch_too_early_among_useless 0
Core_0_STLB_prefetch_pollution_evict 0
Core_0_STLB_prefetch_pollution_demand 0
Core_0_STLB_prefetch_pollution_among_prefetch_fill 0
Core_0_STLB_prefetch_accuracy 0
Core_0_STLB_prefetch_coverage 0

Core_0_L1I_total_access 39724
Core_0_L1I_total_hit 39724
Core_0_L1I_total_miss 0
Core_0_L1I_total_MPKI 0
Core_0_L1I_total_miss_rate 0
Core_0_L1I_demand_access 39724
Core_0_L1I_demand_hit 39724
Core_0_L1I_demand_miss 0
Core_0_L1I_demand_MPKI 0
Core_0_L1I_demand_miss_rate 0
Core_0_L1I_load_access 39724
Core_0_L1I_load_hit 39724
Core_0_L1I_load_miss 0
Core_0_L1I_load_MPKI 0
Core_0_L1I_load_miss_rate 0
Core_0_L1I_rfo_access 0
Core_0_L1I_rfo_hit 0
Core_0_L1I_rfo_miss 0
Core_0_L1I_rfo_MPKI 0
Core_0_L1I_rfo_miss_rate 0
Core_0_L1I_prefetch_access 0
Core_0_L1I_prefetch_hit 0
Core_0_L1I_prefetch_miss 0
Core_0_L1I_prefetch_MPKI 0
Core_0_L1I_prefetch_miss_rate 0
Core_0_L1I_writeback_access 0
Core_0_L1I_writeback_hit 0
Core_0_L1I_writeback_miss 0
Core_0_L1I_writeback_MPKI 0
Core_0_L1I_writeback_miss_rate 0
Core_0_L1I_prefetch_requested 0
Core_0_L1I_prefetch_issued 0
Core_0_L1I_prefetch_useful 0
Core_0_L1I_prefetch_useless 0
Core_0_L1I_prefetch_late 0
Core_0_L1I_prefetch_fill 0
Core_0_L1I_prefetch_too_early 0
Core_0_L1I_prefetch_too_early_among_fill 0
Core_0_L1I_prefetch_too_early_among_useless 0
Core_0_L1I_prefetch_pollution_evict 0
Core_0_L1I_prefetch_pollution_demand 0
Core_0_L1I_prefetch_pollution_among_prefetch_fill 0
Core_0_L1I_prefetch_accuracy 0
Core_0_L1I_prefetch_coverage 0

Core_0_L1D_total_access 47327556
Core_0_L1D_total_hit 39927193
Core_0_L1D_total_miss 7400363
Core_0_L1D_total_MPKI 74.0036
Core_0_L1D_total_miss_rate 0.156365
Core_0_L1D_demand_access 21229859
Core_0_L1D_demand_hit 18544110
Core_0_L1D_demand_miss 2685749
Core_0_L1D_demand_MPKI 26.8575
Core_0_L1D_demand_miss_rate 0.126508
Core_0_L1D_load_access 21229859
Core_0_L1D_load_hit 18544110
Core_0_L1D_load_miss 2685749
Core_0_L1D_load_MPKI 26.8575
Core_0_L1D_load_miss_rate 0.126508
Core_0_L1D_rfo_access 0
Core_0_L1D_rfo_hit 0
Core_0_L1D_rfo_miss 0
Core_0_L1D_rfo_MPKI 0
Core_0_L1D_rfo_miss_rate 0
Core_0_L1D_prefetch_access 26093847
Core_0_L1D_prefetch_hit 21379233
Core_0_L1D_prefetch_miss 4714614
Core_0_L1D_prefetch_MPKI 47.1461
Core_0_L1D_prefetch_miss_rate 0.180679
Core_0_L1D_writeback_access 3850
Core_0_L1D_writeback_hit 3850
Core_0_L1D_writeback_miss 0
Core_0_L1D_writeback_MPKI 0
Core_0_L1D_writeback_miss_rate 0
Core_0_L1D_prefetch_requested 57995698
Core_0_L1D_prefetch_issued 26093847
Core_0_L1D_prefetch_useful 637104
Core_0_L1D_prefetch_useless 68448
Core_0_L1D_prefetch_late 219
Core_0_L1D_prefetch_fill 705322
Core_0_L1D_prefetch_too_early 3
Core_0_L1D_prefetch_too_early_among_fill 4.25338e-06
Core_0_L1D_prefetch_too_early_among_useless 4.38289e-05
Core_0_L1D_prefetch_pollution_evict 88980
Core_0_L1D_prefetch_pollution_demand 88980
Core_0_L1D_prefetch_pollution_among_prefetch_fill 0.126155
Core_0_L1D_prefetch_accuracy 0.0244159
Core_0_L1D_prefetch_coverage 0.191734

Core_0_L2C_total_access 8802025
Core_0_L2C_total_hit 5190601
Core_0_L2C_total_miss 3611424
Core_0_L2C_total_MPKI 36.1142
Core_0_L2C_total_miss_rate 0.410295
Core_0_L2C_demand_access 2682474
Core_0_L2C_demand_hit 982789
Core_0_L2C_demand_miss 1699685
Core_0_L2C_demand_MPKI 16.9968
Core_0_L2C_demand_miss_rate 0.633626
Core_0_L2C_load_access 2682474
Core_0_L2C_load_hit 982789
Core_0_L2C_load_miss 1699685
Core_0_L2C_load_MPKI 16.9968
Core_0_L2C_load_miss_rate 0.633626
Core_0_L2C_rfo_access 0
Core_0_L2C_rfo_hit 0
Core_0_L2C_rfo_miss 0
Core_0_L2C_rfo_MPKI 0
Core_0_L2C_rfo_miss_rate 0
Core_0_L2C_prefetch_access 6115702
Core_0_L2C_prefetch_hit 4203963
Core_0_L2C_prefetch_miss 1911739
Core_0_L2C_prefetch_MPKI 19.1174
Core_0_L2C_prefetch_miss_rate 0.312595
Core_0_L2C_writeback_access 3849
Core_0_L2C_writeback_hit 3849
Core_0_L2C_writeback_miss 0
Core_0_L2C_writeback_MPKI 0
Core_0_L2C_writeback_miss_rate 0
Core_0_L2C_prefetch_requested 1402703
Core_0_L2C_prefetch_issued 1402703
Core_0_L2C_prefetch_useful 369212
Core_0_L2C_prefetch_useless 126643
Core_0_L2C_prefetch_late 408
Core_0_L2C_prefetch_fill 1791829
Core_0_L2C_prefetch_too_early 12
Core_0_L2C_prefetch_too_early_among_fill 6.69707e-06
Core_0_L2C_prefetch_too_early_among_useless 9.47545e-05
Core_0_L2C_prefetch_pollution_evict 91686
Core_0_L2C_prefetch_pollution_demand 91685
Core_0_L2C_prefetch_pollution_among_prefetch_fill 0.0511689
Core_0_L2C_prefetch_accuracy 0.263215
Core_0_L2C_prefetch_coverage 0.178458

Core_0_LLC_total_access 3495486
Core_0_LLC_total_hit 391089
Core_0_LLC_total_miss 3104397
Core_0_LLC_total_MPKI 31.044
Core_0_LLC_total_miss_rate 0.888116
Core_0_LLC_demand_access 1697052
Core_0_LLC_demand_hit 390099
Core_0_LLC_demand_miss 1306953
Core_0_LLC_demand_MPKI 13.0695
Core_0_LLC_demand_miss_rate 0.770131
Core_0_LLC_load_access 1697052
Core_0_LLC_load_hit 390099
Core_0_LLC_load_miss 1306953
Core_0_LLC_load_MPKI 13.0695
Core_0_LLC_load_miss_rate 0.770131
Core_0_LLC_rfo_access 0
Core_0_LLC_rfo_hit 0
Core_0_LLC_rfo_miss 0
Core_0_LLC_rfo_MPKI 0
Core_0_LLC_rfo_miss_rate 0
Core_0_LLC_prefetch_access 1794583
Core_0_LLC_prefetch_hit 242
Core_0_LLC_prefetch_miss 1794341
Core_0_LLC_prefetch_MPKI 17.9434
Core_0_LLC_prefetch_miss_rate 0.999865
Core_0_LLC_writeback_access 3851
Core_0_LLC_writeback_hit 748
Core_0_LLC_writeback_miss 3103
Core_0_LLC_writeback_MPKI 0.03103
Core_0_LLC_writeback_miss_rate 0.805765
Core_0_LLC_prefetch_requested 0
Core_0_LLC_prefetch_issued 0
Core_0_LLC_prefetch_useful 0
Core_0_LLC_prefetch_useless 0
Core_0_LLC_prefetch_late 0
Core_0_LLC_prefetch_fill 1794336
Core_0_LLC_prefetch_too_early 0
Core_0_LLC_prefetch_too_early_among_fill 0
Core_0_LLC_prefetch_too_early_among_useless 0
Core_0_LLC_prefetch_pollution_evict 38925
Core_0_LLC_prefetch_pollution_demand 38925
Core_0_LLC_prefetch_pollution_among_prefetch_fill 0.0216933
Core_0_LLC_prefetch_accuracy 0
Core_0_LLC_prefetch_coverage 0

[DRAM Statistics]
Channel_0_RQ_row_buffer_hit 76791
Channel_0_RQ_row_buffer_miss 3209836
Channel_0_WQ_row_buffer_hit 1427
Channel_0_WQ_row_buffer_miss 2633
Channel_0_WQ_full 0
Channel_0_dbus_congested 2331657
DRAM_total_RQ_row_buffer_hit 76791
DRAM_total_RQ_row_buffer_miss 3209836
DRAM_total_WQ_row_buffer_hit 1427
DRAM_total_WQ_row_buffer_miss 2633
DRAM_total_WQ_full 0
DRAM_total_dbus_congested 2331657
DRAM_avg_congested_cycle 3.57261

====== DRAM_RQ_TRAFFIC ========
DRAM_RQ_READ_TRAFFIC_BREAKDOWN:
data_demand_read.count = 1306954
data_demand_read.share = 39.77%

inst_demand_read.count = 0
inst_demand_read.share = 0.00%

cache_inst_prefetch.count = 0
cache_inst_prefetch.share = 0.00%

cache_data_prefetch.count = 1794336
cache_data_prefetch.share = 54.60%

stlb_data_demand.count = 181191
stlb_data_demand.share = 5.51%

stlb_inst_demand.count = 0
stlb_inst_demand.share = 0.00%

stlb_l1i_pref.count = 0
stlb_l1i_pref.share = 0.00%

stlb_l1d_pref.count = 4146
stlb_l1d_pref.share = 0.13%

DRAM_RQ_READ_TRAFFIC_SUMMARY:
cache_demand.count = 1306954
cache_demand.share = 39.77%

cache_prefetch.count = 1794336
cache_prefetch.share = 54.60%

stlb_demand.count = 181191
stlb_demand.share = 5.51%

stlb_prefetch.count = 4146
stlb_prefetch.share = 0.13%

DRAM_RQ_READ_TRAFFIC_DEBUG:
total_classified_read.count = 3286627
unclassified_read.count = 0
total_read_with_other.count = 3286627

classified_plus_unclassified_check.count = 3286627
dram_rq_read_total_observed.count = 3286627
dram_rq_read_total_observed.per_1K_instructions = 32.8663

STLB_MISS_PTW_DRAM_TOUCH_BREAKDOWN:
stlb_miss_total.count = 1184005

stlb_miss_touch_dram.count = 185216
stlb_miss_touch_dram.share = 15.64%

stlb_miss_no_dram_touch.count = 998789
stlb_miss_no_dram_touch.share = 84.36%

STLB_MISS_PTW_DRAM_TOUCH_DEBUG:
stlb_miss_touch_plus_no_touch.count = 1184005
stlb_miss_total_check.count = 1184005

======STLB miss causes ========
Core_0_STLB_miss_cause_breakdown
Core_0_STLB_cause_Demand_Data_miss 1149221
Core_0_STLB_cause_Demand_Data_miss_rate 0.669318
Core_0_STLB_cause_Demand_Instruction_miss 0
Core_0_STLB_cause_Demand_Instruction_miss_rate 0
Core_0_STLB_cause_L1D_Prefetch_miss 34784
Core_0_STLB_cause_L1D_Prefetch_miss_rate 0.0202586
Core_0_STLB_cause_L1D_Prefetch_Same_Page_miss 0
Core_0_STLB_cause_L1D_Prefetch_Same_Page_miss_rate 0
Core_0_STLB_cause_L1D_Prefetch_Cross_Page_miss 34784
Core_0_STLB_cause_L1D_Prefetch_Cross_Page_miss_rate 0.0202586
Core_0_STLB_cause_L1I_Prefetch_miss 0
Core_0_STLB_cause_L1I_Prefetch_miss_rate 0
Core_0_STLB_cause_Other_miss 0
Core_0_STLB_cause_Other_miss_rate 0
Core_0_STLB_Demand_miss 1149221
Core_0_STLB_Demand_miss_rate 0.669318
Core_0_STLB_L1D_Prefetch_miss 34784
Core_0_STLB_L1D_Prefetch_miss_rate 0.0202586
Core_0_STLB_Other_miss 0
Core_0_STLB_Other_miss_rate 0

========== vBerti-TLB Cross-page Flow Stats ==========

Core_0_vBerti_Requested 57995698
Core_0_vBerti_Cross_page_prefetch_in_Requested 6755872
Core_0_vBerti_Same_page_prefetch_in_Requested 51239826
Core_0_vBerti_Cross_page_prefetch_of_Requested 0.116489
Core_0_vBerti_Issued 26093847
Core_0_vBerti_InPQ_Same_page_prefetch 24282928
Core_0_vBerti_InPQ_Cross_page_prefetch 1810919
Core_0_vBerti_PQ_Drop_Rate 0.550073
Core_0_vBerti_InPQ_Cross_page_prefetch_of_Requested 0.0312251
Core_0_vBerti_Cross_page_PQ_Drop_rate 0.731949
Core_0_vBerti_Cross_page_prefetch_of_Issued 0.0694002
Core_0_CP_PF_PQFULL_drop 4944953
Core_0_CP_PF_PQFULL_TLB_rescue_enqueued 3751921
Core_0_CP_PF_PQFULL_TLB_rescue_issued 3751921
Core_0_CP_PF_PQFULL_TLB_rescue_translated 3751921

========= DTLB_vBerti Prefetch Stats =========
Core_0_DTLB_demand_access 20976902
Core_0_DTLB_demand_hit 19289985
Core_0_DTLB_demand_miss 1686917
Core_0_DTLB_demand_mshr_merge 5505
Core_0_DTLB_demand_fill 1681679
Core_0_DTLB_demand_miss_rate 0.0804178
Core_0_DTLB_demand_mpki 16.8692
Core_0_DTLB_vberti_prefetch_access 17632025
Core_0_DTLB_vberti_prefetch_hit 17569164
Core_0_DTLB_vberti_prefetch_miss 62861
Core_0_DTLB_vberti_prefetch_mshr_merge 27270
Core_0_DTLB_vberti_prefetch_fill 35324
Core_0_DTLB_vberti_prefetch_miss_rate 0.00356516
Core_0_DTLB_vberti_prefetch_mpki 0.62861

=== DTLB_vBerti Same/Cross-page Prefetch Stats ===
Core_0_DTLB_vberti_same_page_prefetch 13818476
Core_0_DTLB_vberti_same_page_prefetch_hit 13818476
Core_0_DTLB_vberti_same_page_prefetch_miss 0
Core_0_DTLB_vberti_same_page_prefetch_mshr_merge 0
Core_0_DTLB_vberti_same_page_prefetch_fill 0
Core_0_DTLB_vberti_same_page_prefetch_miss_rate 0
Core_0_DTLB_vberti_same_page_prefetch_mpki 0
Core_0_DTLB_vberti_cross_page_prefetch 3813549
Core_0_DTLB_vberti_cross_page_prefetch_hit 3750688
Core_0_DTLB_vberti_cross_page_prefetch_miss 62861
Core_0_DTLB_vberti_cross_page_prefetch_mshr_merge 27270
Core_0_DTLB_vberti_cross_page_prefetch_fill 35324
Core_0_DTLB_vberti_cross_page_prefetch_miss_rate 0.0164836
Core_0_DTLB_vberti_cross_page_prefetch_mpki 0.62861
Core_0_DTLB_same_page_prefetch_miss_rate 0
Core_0_DTLB_same_page_prefetch_mpki 0
Core_0_DTLB_cross_page_prefetch_miss_rate 0.0164836
Core_0_DTLB_cross_page_prefetch_mpki 0.62861
Core_0_DTLB_cross_page_prefetch_issued 3813549
Core_0_DTLB_cross_page_prefetch_lookups 3813549
Core_0_DTLB_cross_page_prefetch_useful 32258
Core_0_DTLB_cross_page_prefetch_useless 3333
Core_0_DTLB_cross_page_prefetch_late 267
Core_0_DTLB_cross_page_prefetch_too_early 404
Core_0_DTLB_cross_page_prefetch_too_early_among_fill 0.011437
Core_0_DTLB_cross_page_prefetch_too_early_among_useless 0.121212
Core_0_DTLB_cross_page_prefetch_pollution_evict 12316
Core_0_DTLB_cross_page_prefetch_pollution_demand 12269
Core_0_DTLB_cross_page_prefetch_pollution_among_prefetch_fill 0.348658
Core_0_DTLB_cross_page_prefetch_accuracy 0.00845879
Core_0_DTLB_cross_page_prefetch_coverage 0.0187637

========= STLB_vBerti Prefetch Stats =========
Core_0_STLB_demand_access 1681412
Core_0_STLB_demand_hit 532191
Core_0_STLB_demand_miss 1149221
Core_0_STLB_demand_mshr_merge 0
Core_0_STLB_demand_fill 1149221
Core_0_STLB_demand_miss_rate 0.683486
Core_0_STLB_demand_mpki 11.4922
Core_0_STLB_vberti_prefetch_access 35591
Core_0_STLB_vberti_prefetch_hit 807
Core_0_STLB_vberti_prefetch_miss 34784
Core_0_STLB_vberti_prefetch_mshr_merge 0
Core_0_STLB_vberti_prefetch_fill 34784
Core_0_STLB_vberti_prefetch_miss_rate 0.977326
Core_0_STLB_vberti_prefetch_mpki 0.34784

=== STLB_vBerti Same/Cross-page Prefetch Stats ===
Core_0_STLB_vberti_same_page_prefetch 0
Core_0_STLB_vberti_same_page_prefetch_hit 0
Core_0_STLB_vberti_same_page_prefetch_miss 0
Core_0_STLB_vberti_same_page_prefetch_mshr_merge 0
Core_0_STLB_vberti_same_page_prefetch_fill 0
Core_0_STLB_vberti_same_page_prefetch_miss_rate 0
Core_0_STLB_vberti_same_page_prefetch_mpki 0
Core_0_STLB_vberti_cross_page_prefetch 35591
Core_0_STLB_vberti_cross_page_prefetch_hit 807
Core_0_STLB_vberti_cross_page_prefetch_miss 34784
Core_0_STLB_vberti_cross_page_prefetch_mshr_merge 0
Core_0_STLB_vberti_cross_page_prefetch_fill 34784
Core_0_STLB_vberti_cross_page_prefetch_miss_rate 0.977326
Core_0_STLB_vberti_cross_page_prefetch_mpki 0.34784
Core_0_STLB_same_page_prefetch_miss_rate 0
Core_0_STLB_same_page_prefetch_mpki 0
Core_0_STLB_cross_page_prefetch_miss_rate 0.977326
Core_0_STLB_cross_page_prefetch_mpki 0.34784
Core_0_STLB_cross_page_prefetch_issued 35591
Core_0_STLB_cross_page_prefetch_lookups 35591
Core_0_STLB_cross_page_prefetch_useful 1293
Core_0_STLB_cross_page_prefetch_useless 33491
Core_0_STLB_cross_page_prefetch_late 0
Core_0_STLB_cross_page_prefetch_too_early 675
Core_0_STLB_cross_page_prefetch_too_early_among_fill 0.0194055
Core_0_STLB_cross_page_prefetch_too_early_among_useless 0.0201547
Core_0_STLB_cross_page_prefetch_pollution_evict 16782
Core_0_STLB_cross_page_prefetch_pollution_demand 16755
Core_0_STLB_cross_page_prefetch_pollution_among_prefetch_fill 0.482463
Core_0_STLB_cross_page_prefetch_accuracy 0.0363294
Core_0_STLB_cross_page_prefetch_coverage 0.00112385

========= STLB Cross-page Prefetch Buffer Stats =========
Core_0_STLB_raw_demand_miss 1149221
Core_0_CP_PB_insert 0
Core_0_CP_PB_demand_hit 0
Core_0_STLB_PB_demand_miss 1149221
Core_0_CP_PB_coverage 0
Core_0_STLB_raw_demand_mpki 11.4922
Core_0_STLB_PB_demand_mpki 11.4922
Core_0_CP_PB_demand_hit_mpki 0

Core_0_TLB_demand_miss_rate 0.0547851
Core_0_TLB_demand_mpki 11.4922
Core_0_TLB_same_page_prefetch_miss_rate 0
Core_0_TLB_same_page_prefetch_mpki 0
Core_0_TLB_cross_page_prefetch_miss_rate 0.00912116
Core_0_TLB_cross_page_prefetch_mpki 0.34784
Core_0_TLB_cross_page_prefetch_issued 3813549
Core_0_TLB_cross_page_prefetch_lookups 3813549
Core_0_TLB_cross_page_prefetch_useful 32258
Core_0_TLB_cross_page_prefetch_useless 3333
Core_0_TLB_cross_page_prefetch_late 267
Core_0_TLB_cross_page_prefetch_too_early 404
Core_0_TLB_cross_page_prefetch_too_early_among_fill 0.00576254
Core_0_TLB_cross_page_prefetch_too_early_among_useless 0.121212
Core_0_TLB_cross_page_prefetch_accuracy 0.00845879
Core_0_TLB_cross_page_prefetch_coverage 0.0273031
BERTI TO_L1: 62428612 TO_L2: 15225383 TO_L2_BC_MSHR: 123
BERTI AVG_LAT: 81.0587 NUM_TRACK_LATENCY: 5039801 NUM_CANT_TRACK_LATENCY: 0
BERTI CROSS_PAGE 9315453 NO_CROSS_PAGE: 68338542
BERTI FOUND_BERTI: 17754891 NO_FOUND_BERTI: 10990321
BERTI AVERAGE_ISSUED: 4.85497
