[VMEM] WARNING: physical memory size is smaller than virtual memory size.

*** ChampSim Multicore Out-of-Order Simulator ***
Warmup Instructions: 50000000
Simulation Instructions: 100000000
Number of CPUs: 1
Page size: 4096
Core 0: /data2/zcq/champsim_traces_gap/cc.twitter-15B.champsimtrace.xz
VBerti Prefetcher
BERTI HASH ENTANGLING
BERTI IP MASK ffff
Off-chip DRAM Size: 16 GiB Channels: 1 Width: 64-bit Data Rate: 3205 MT/s
Warmup halting CPU 0 at instruction 50000000 cycle 17914429 for remainder of phase
Warmup finished CPU 0 instructions: 50000000 cycles: 17914429 cumulative IPC: 2.791 (Simulation time: 00 hr 04 min 21 sec)
Warmup complete CPU 0 instructions: 50000000 cycles: 17914429 cumulative IPC: 2.791 (Simulation time: 00 hr 04 min 21 sec)
Simulation finished CPU 0 instructions: 100000004 cycles: 246587392 cumulative IPC: 0.4055 (Simulation time: 00 hr 33 min 56 sec)
Simulation complete CPU 0 instructions: 100000004 cycles: 246587392 cumulative IPC: 0.4055 (Simulation time: 00 hr 33 min 56 sec)

ChampSim completed all CPUs

=== Simulation ===
CPU 0 runs /data2/zcq/champsim_traces_gap/cc.twitter-15B.champsimtrace.xz

Region of Interest Statistics

CPU 0 cumulative IPC: 0.4055 instructions: 100000004 cycles: 246587392
CPU 0 Branch Prediction Accuracy: 98.22% MPKI: 3.27 Average ROB Occupancy at Mispredict: 158.8
Branch type MPKI
BRANCH_DIRECT_JUMP: 0
BRANCH_INDIRECT: 0
BRANCH_CONDITIONAL: 3.27
BRANCH_DIRECT_CALL: 0
BRANCH_INDIRECT_CALL: 0
BRANCH_RETURN: 0

cpu0->cpu0_STLB TOTAL        ACCESS:    2080221 HIT:     413674 MISS:    1666547 MSHR_MERGE:          0
cpu0->cpu0_STLB LOAD         ACCESS:    2080221 HIT:     413674 MISS:    1666547 MSHR_MERGE:          0
cpu0->cpu0_STLB RFO          ACCESS:          0 HIT:          0 MISS:          0 MSHR_MERGE:          0
cpu0->cpu0_STLB PREFETCH     ACCESS:          0 HIT:          0 MISS:          0 MSHR_MERGE:          0
cpu0->cpu0_STLB WRITE        ACCESS:          0 HIT:          0 MISS:          0 MSHR_MERGE:          0
cpu0->cpu0_STLB TRANSLATION  ACCESS:          0 HIT:          0 MISS:          0 MSHR_MERGE:          0
cpu0->cpu0_STLB PREFETCH REQUESTED:          0 ISSUED:          0 USEFUL:          0 USELESS:          0 LATE:          0 TOO_EARLY:          0
cpu0->cpu0_STLB AVERAGE MISS LATENCY: 55.26 cycles
cpu0->cpu0_L2C TOTAL        ACCESS:   12131868 HIT:    5126216 MISS:    7005652 MSHR_MERGE:    1258508
cpu0->cpu0_L2C LOAD         ACCESS:    2753874 HIT:     684371 MISS:    2069503 MSHR_MERGE:      67078
cpu0->cpu0_L2C RFO          ACCESS:          0 HIT:          0 MISS:          0 MSHR_MERGE:          0
cpu0->cpu0_L2C PREFETCH     ACCESS:    7292759 HIT:    3266312 MISS:    4026447 MSHR_MERGE:    1191430
cpu0->cpu0_L2C WRITE        ACCESS:     551368 HIT:     551248 MISS:        120 MSHR_MERGE:          0
cpu0->cpu0_L2C TRANSLATION  ACCESS:    1533867 HIT:     624285 MISS:     909582 MSHR_MERGE:          0
cpu0->cpu0_L2C PREFETCH REQUESTED:    2157808 ISSUED:    2157702 USEFUL:     503278 USELESS:     193432 LATE:      33121 TOO_EARLY:          0
cpu0->cpu0_L2C AVERAGE MISS LATENCY: 163.1 cycles
cpu0->cpu0_L1I TOTAL        ACCESS:    6273581 HIT:    6273581 MISS:          0 MSHR_MERGE:          0
cpu0->cpu0_L1I LOAD         ACCESS:    6273581 HIT:    6273581 MISS:          0 MSHR_MERGE:          0
cpu0->cpu0_L1I RFO          ACCESS:          0 HIT:          0 MISS:          0 MSHR_MERGE:          0
cpu0->cpu0_L1I PREFETCH     ACCESS:          0 HIT:          0 MISS:          0 MSHR_MERGE:          0
cpu0->cpu0_L1I WRITE        ACCESS:          0 HIT:          0 MISS:          0 MSHR_MERGE:          0
cpu0->cpu0_L1I TRANSLATION  ACCESS:          0 HIT:          0 MISS:          0 MSHR_MERGE:          0
cpu0->cpu0_L1I PREFETCH REQUESTED:          0 ISSUED:          0 USEFUL:          0 USELESS:          0 LATE:          0 TOO_EARLY:          0
cpu0->cpu0_L1I AVERAGE MISS LATENCY: - cycles
cpu0->cpu0_L1D TOTAL        ACCESS:   50826021 HIT:   41078815 MISS:    9747206 MSHR_MERGE:     293871
cpu0->cpu0_L1D LOAD         ACCESS:   23241926 HIT:   20254286 MISS:    2987640 MSHR_MERGE:     233766
cpu0->cpu0_L1D RFO          ACCESS:          0 HIT:          0 MISS:          0 MSHR_MERGE:          0
cpu0->cpu0_L1D PREFETCH     ACCESS:   21008412 HIT:   15783127 MISS:    5225285 MSHR_MERGE:      59691
cpu0->cpu0_L1D WRITE        ACCESS:    2476227 HIT:    2476227 MISS:          0 MSHR_MERGE:          0
cpu0->cpu0_L1D TRANSLATION  ACCESS:    4099456 HIT:    2565175 MISS:    1534281 MSHR_MERGE:        414
cpu0->cpu0_L1D PREFETCH REQUESTED:   89931424 ISSUED:   21008405 USEFUL:     927774 USELESS:     454626 LATE:      16082 TOO_EARLY:          5
cpu0->cpu0_L1D AVERAGE MISS LATENCY: 122.1 cycles
cpu0->cpu0_ITLB TOTAL        ACCESS:    5363345 HIT:    5363345 MISS:          0 MSHR_MERGE:          0
cpu0->cpu0_ITLB LOAD         ACCESS:    5363345 HIT:    5363345 MISS:          0 MSHR_MERGE:          0
cpu0->cpu0_ITLB RFO          ACCESS:          0 HIT:          0 MISS:          0 MSHR_MERGE:          0
cpu0->cpu0_ITLB PREFETCH     ACCESS:          0 HIT:          0 MISS:          0 MSHR_MERGE:          0
cpu0->cpu0_ITLB WRITE        ACCESS:          0 HIT:          0 MISS:          0 MSHR_MERGE:          0
cpu0->cpu0_ITLB TRANSLATION  ACCESS:          0 HIT:          0 MISS:          0 MSHR_MERGE:          0
cpu0->cpu0_ITLB PREFETCH REQUESTED:          0 ISSUED:          0 USEFUL:          0 USELESS:          0 LATE:          0 TOO_EARLY:          0
cpu0->cpu0_ITLB AVERAGE MISS LATENCY: - cycles
cpu0->cpu0_DTLB TOTAL        ACCESS:   42512940 HIT:   40194529 MISS:    2318411 MSHR_MERGE:     238190
cpu0->cpu0_DTLB LOAD         ACCESS:   42512940 HIT:   40194529 MISS:    2318411 MSHR_MERGE:     238190
cpu0->cpu0_DTLB RFO          ACCESS:          0 HIT:          0 MISS:          0 MSHR_MERGE:          0
cpu0->cpu0_DTLB PREFETCH     ACCESS:          0 HIT:          0 MISS:          0 MSHR_MERGE:          0
cpu0->cpu0_DTLB WRITE        ACCESS:          0 HIT:          0 MISS:          0 MSHR_MERGE:          0
cpu0->cpu0_DTLB TRANSLATION  ACCESS:          0 HIT:          0 MISS:          0 MSHR_MERGE:          0
cpu0->cpu0_DTLB PREFETCH REQUESTED:          0 ISSUED:          0 USEFUL:          0 USELESS:          0 LATE:          0 TOO_EARLY:          0
cpu0->cpu0_DTLB AVERAGE MISS LATENCY: 50.08 cycles
cpu0->LLC TOTAL        ACCESS:    6293197 HIT:    1142148 MISS:    5151049 MSHR_MERGE:      11194
cpu0->LLC LOAD         ACCESS:    2002425 HIT:     178916 MISS:    1823509 MSHR_MERGE:        159
cpu0->LLC RFO          ACCESS:          0 HIT:          0 MISS:          0 MSHR_MERGE:          0
cpu0->LLC PREFETCH     ACCESS:    2835015 HIT:      25945 MISS:    2809070 MSHR_MERGE:      11035
cpu0->LLC WRITE        ACCESS:     546175 HIT:     107891 MISS:     438284 MSHR_MERGE:          0
cpu0->LLC TRANSLATION  ACCESS:     909582 HIT:     829396 MISS:      80186 MSHR_MERGE:          0
cpu0->LLC PREFETCH REQUESTED:          0 ISSUED:          0 USEFUL:          0 USELESS:          0 LATE:          0 TOO_EARLY:          0
cpu0->LLC AVERAGE MISS LATENCY: 185.1 cycles

DRAM Statistics

Channel 0 RQ ROW_BUFFER_HIT:     180482
  ROW_BUFFER_MISS:    4521001
  AVG DBUS CONGESTED CYCLE: 8.633
Channel 0 WQ ROW_BUFFER_HIT:     168031
  ROW_BUFFER_MISS:     362485
  FULL:          0
Channel 0 REFRESHES ISSUED:      20549

[ROI Statistics]
[System Configuration]
num_cpus 1
cpu_freq 4000
fetch_width 6
decode_width 6
dispatch_width 6
execute_width 6
lq_width 2
sq_width 2
retire_width 6
scheduler_size 128
branch_mispredict_penalty 15
rob_size 352
lq_size 128
sq_size 72
ifetch_buffer_size 64
decode_buffer_size 32
dispatch_buffer_size 32
register_file_size 288
decode_latency 1
dispatch_latency 1
schedule_latency 1
execute_latency 1
page_size 4096
block_size 64
core_0_itlb_set 16
core_0_itlb_way 4
core_0_itlb_rq_size 16
core_0_itlb_wq_size 16
core_0_itlb_pq_size 0
core_0_itlb_mshr_size 8
core_0_itlb_hit_latency 1
core_0_itlb_fill_latency 1
core_0_itlb_max_tag_check 2
core_0_itlb_max_fill 2
core_0_dtlb_set 16
core_0_dtlb_way 4
core_0_dtlb_rq_size 16
core_0_dtlb_wq_size 16
core_0_dtlb_pq_size 0
core_0_dtlb_mshr_size 8
core_0_dtlb_hit_latency 1
core_0_dtlb_fill_latency 1
core_0_dtlb_max_tag_check 2
core_0_dtlb_max_fill 2
core_0_stlb_set 128
core_0_stlb_way 12
core_0_stlb_rq_size 32
core_0_stlb_wq_size 32
core_0_stlb_pq_size 0
core_0_stlb_mshr_size 16
core_0_stlb_hit_latency 4
core_0_stlb_fill_latency 4
core_0_stlb_max_tag_check 1
core_0_stlb_max_fill 1
core_0_l1i_set 64
core_0_l1i_way 8
core_0_l1i_rq_size 64
core_0_l1i_wq_size 64
core_0_l1i_pq_size 32
core_0_l1i_mshr_size 8
core_0_l1i_hit_latency 2
core_0_l1i_fill_latency 2
core_0_l1i_max_tag_check 2
core_0_l1i_max_fill 2
core_0_l1d_set 64
core_0_l1d_way 12
core_0_l1d_rq_size 64
core_0_l1d_wq_size 64
core_0_l1d_pq_size 8
core_0_l1d_mshr_size 16
core_0_l1d_hit_latency 2
core_0_l1d_fill_latency 3
core_0_l1d_max_tag_check 2
core_0_l1d_max_fill 2
core_0_l2c_set 1024
core_0_l2c_way 8
core_0_l2c_rq_size 32
core_0_l2c_wq_size 32
core_0_l2c_pq_size 16
core_0_l2c_mshr_size 32
core_0_l2c_hit_latency 5
core_0_l2c_fill_latency 5
core_0_l2c_max_tag_check 1
core_0_l2c_max_fill 1
llc_set 2048
llc_way 16
llc_rq_size 32
llc_wq_size 32
llc_pq_size 32
llc_mshr_size 64
llc_hit_latency 10
llc_fill_latency 10
llc_max_tag_check 1
llc_max_fill 1
dram_channels 1
dram_ranks 1
dram_bankgroups 8
dram_banks 4
dram_rows 65536
dram_columns 1024
dram_channel_width 8
dram_rq_size 64
dram_wq_size 64
dram_size 17179869184
core_0_itlb_prefetcher no
core_0_dtlb_prefetcher no
core_0_stlb_prefetcher no
core_0_l1i_prefetcher next_line
core_0_l1d_prefetcher vberti
core_0_l2c_prefetcher ip_stride
llc_prefetcher no
llc_replacement drrip

Core_0_instructions 100000004
Core_0_cycles 246587392
Core_0_IPC 0.405536
Core_0_branch_prediction_accuracy 98.2195
Core_0_branch_MPKI 3.27038
Core_0_average_ROB_occupancy_at_mispredict 158.796

Core_0_ITLB_total_access 5363345
Core_0_ITLB_total_hit 5363345
Core_0_ITLB_total_miss 0
Core_0_ITLB_total_MPKI 0
Core_0_ITLB_total_miss_rate 0
Core_0_ITLB_demand_access 5363345
Core_0_ITLB_demand_hit 5363345
Core_0_ITLB_demand_miss 0
Core_0_ITLB_demand_MPKI 0
Core_0_ITLB_demand_miss_rate 0
Core_0_ITLB_load_access 5363345
Core_0_ITLB_load_hit 5363345
Core_0_ITLB_load_miss 0
Core_0_ITLB_load_MPKI 0
Core_0_ITLB_load_miss_rate 0
Core_0_ITLB_rfo_access 0
Core_0_ITLB_rfo_hit 0
Core_0_ITLB_rfo_miss 0
Core_0_ITLB_rfo_MPKI 0
Core_0_ITLB_rfo_miss_rate 0
Core_0_ITLB_prefetch_access 0
Core_0_ITLB_prefetch_hit 0
Core_0_ITLB_prefetch_miss 0
Core_0_ITLB_prefetch_MPKI 0
Core_0_ITLB_prefetch_miss_rate 0
Core_0_ITLB_writeback_access 0
Core_0_ITLB_writeback_hit 0
Core_0_ITLB_writeback_miss 0
Core_0_ITLB_writeback_MPKI 0
Core_0_ITLB_writeback_miss_rate 0
Core_0_ITLB_prefetch_requested 0
Core_0_ITLB_prefetch_issued 0
Core_0_ITLB_prefetch_useful 0
Core_0_ITLB_prefetch_useless 0
Core_0_ITLB_prefetch_late 0
Core_0_ITLB_prefetch_fill 0
Core_0_ITLB_prefetch_too_early 0
Core_0_ITLB_prefetch_too_early_among_fill 0
Core_0_ITLB_prefetch_too_early_among_useless 0
Core_0_ITLB_prefetch_pollution_evict 0
Core_0_ITLB_prefetch_pollution_demand 0
Core_0_ITLB_prefetch_pollution_among_prefetch_fill 0
Core_0_ITLB_prefetch_accuracy 0
Core_0_ITLB_prefetch_coverage 0

Core_0_DTLB_total_access 42512940
Core_0_DTLB_total_hit 40194529
Core_0_DTLB_total_miss 2318411
Core_0_DTLB_total_MPKI 23.1841
Core_0_DTLB_total_miss_rate 0.0545342
Core_0_DTLB_demand_access 42512940
Core_0_DTLB_demand_hit 40194529
Core_0_DTLB_demand_miss 2318411
Core_0_DTLB_demand_MPKI 23.1841
Core_0_DTLB_demand_miss_rate 0.0545342
Core_0_DTLB_load_access 42512940
Core_0_DTLB_load_hit 40194529
Core_0_DTLB_load_miss 2318411
Core_0_DTLB_load_MPKI 23.1841
Core_0_DTLB_load_miss_rate 0.0545342
Core_0_DTLB_rfo_access 0
Core_0_DTLB_rfo_hit 0
Core_0_DTLB_rfo_miss 0
Core_0_DTLB_rfo_MPKI 0
Core_0_DTLB_rfo_miss_rate 0
Core_0_DTLB_prefetch_access 0
Core_0_DTLB_prefetch_hit 0
Core_0_DTLB_prefetch_miss 0
Core_0_DTLB_prefetch_MPKI 0
Core_0_DTLB_prefetch_miss_rate 0
Core_0_DTLB_writeback_access 0
Core_0_DTLB_writeback_hit 0
Core_0_DTLB_writeback_miss 0
Core_0_DTLB_writeback_MPKI 0
Core_0_DTLB_writeback_miss_rate 0
Core_0_DTLB_prefetch_requested 0
Core_0_DTLB_prefetch_issued 0
Core_0_DTLB_prefetch_useful 0
Core_0_DTLB_prefetch_useless 0
Core_0_DTLB_prefetch_late 0
Core_0_DTLB_prefetch_fill 0
Core_0_DTLB_prefetch_too_early 0
Core_0_DTLB_prefetch_too_early_among_fill 0
Core_0_DTLB_prefetch_too_early_among_useless 0
Core_0_DTLB_prefetch_pollution_evict 0
Core_0_DTLB_prefetch_pollution_demand 0
Core_0_DTLB_prefetch_pollution_among_prefetch_fill 0
Core_0_DTLB_prefetch_accuracy 0
Core_0_DTLB_prefetch_coverage 0

Core_0_STLB_total_access 2080221
Core_0_STLB_total_hit 413674
Core_0_STLB_total_miss 1666547
Core_0_STLB_total_MPKI 16.6655
Core_0_STLB_total_miss_rate 0.801139
Core_0_STLB_demand_access 2080221
Core_0_STLB_demand_hit 413674
Core_0_STLB_demand_miss 1666547
Core_0_STLB_demand_MPKI 16.6655
Core_0_STLB_demand_miss_rate 0.801139
Core_0_STLB_load_access 2080221
Core_0_STLB_load_hit 413674
Core_0_STLB_load_miss 1666547
Core_0_STLB_load_MPKI 16.6655
Core_0_STLB_load_miss_rate 0.801139
Core_0_STLB_rfo_access 0
Core_0_STLB_rfo_hit 0
Core_0_STLB_rfo_miss 0
Core_0_STLB_rfo_MPKI 0
Core_0_STLB_rfo_miss_rate 0
Core_0_STLB_prefetch_access 0
Core_0_STLB_prefetch_hit 0
Core_0_STLB_prefetch_miss 0
Core_0_STLB_prefetch_MPKI 0
Core_0_STLB_prefetch_miss_rate 0
Core_0_STLB_writeback_access 0
Core_0_STLB_writeback_hit 0
Core_0_STLB_writeback_miss 0
Core_0_STLB_writeback_MPKI 0
Core_0_STLB_writeback_miss_rate 0
Core_0_STLB_prefetch_requested 0
Core_0_STLB_prefetch_issued 0
Core_0_STLB_prefetch_useful 0
Core_0_STLB_prefetch_useless 0
Core_0_STLB_prefetch_late 0
Core_0_STLB_prefetch_fill 0
Core_0_STLB_prefetch_too_early 0
Core_0_STLB_prefetch_too_early_among_fill 0
Core_0_STLB_prefetch_too_early_among_useless 0
Core_0_STLB_prefetch_pollution_evict 0
Core_0_STLB_prefetch_pollution_demand 0
Core_0_STLB_prefetch_pollution_among_prefetch_fill 0
Core_0_STLB_prefetch_accuracy 0
Core_0_STLB_prefetch_coverage 0

Core_0_L1I_total_access 6273581
Core_0_L1I_total_hit 6273581
Core_0_L1I_total_miss 0
Core_0_L1I_total_MPKI 0
Core_0_L1I_total_miss_rate 0
Core_0_L1I_demand_access 6273581
Core_0_L1I_demand_hit 6273581
Core_0_L1I_demand_miss 0
Core_0_L1I_demand_MPKI 0
Core_0_L1I_demand_miss_rate 0
Core_0_L1I_load_access 6273581
Core_0_L1I_load_hit 6273581
Core_0_L1I_load_miss 0
Core_0_L1I_load_MPKI 0
Core_0_L1I_load_miss_rate 0
Core_0_L1I_rfo_access 0
Core_0_L1I_rfo_hit 0
Core_0_L1I_rfo_miss 0
Core_0_L1I_rfo_MPKI 0
Core_0_L1I_rfo_miss_rate 0
Core_0_L1I_prefetch_access 0
Core_0_L1I_prefetch_hit 0
Core_0_L1I_prefetch_miss 0
Core_0_L1I_prefetch_MPKI 0
Core_0_L1I_prefetch_miss_rate 0
Core_0_L1I_writeback_access 0
Core_0_L1I_writeback_hit 0
Core_0_L1I_writeback_miss 0
Core_0_L1I_writeback_MPKI 0
Core_0_L1I_writeback_miss_rate 0
Core_0_L1I_prefetch_requested 0
Core_0_L1I_prefetch_issued 0
Core_0_L1I_prefetch_useful 0
Core_0_L1I_prefetch_useless 0
Core_0_L1I_prefetch_late 0
Core_0_L1I_prefetch_fill 0
Core_0_L1I_prefetch_too_early 0
Core_0_L1I_prefetch_too_early_among_fill 0
Core_0_L1I_prefetch_too_early_among_useless 0
Core_0_L1I_prefetch_pollution_evict 0
Core_0_L1I_prefetch_pollution_demand 0
Core_0_L1I_prefetch_pollution_among_prefetch_fill 0
Core_0_L1I_prefetch_accuracy 0
Core_0_L1I_prefetch_coverage 0

Core_0_L1D_total_access 46726565
Core_0_L1D_total_hit 38513640
Core_0_L1D_total_miss 8212925
Core_0_L1D_total_MPKI 82.1292
Core_0_L1D_total_miss_rate 0.175766
Core_0_L1D_demand_access 23241926
Core_0_L1D_demand_hit 20254286
Core_0_L1D_demand_miss 2987640
Core_0_L1D_demand_MPKI 29.8764
Core_0_L1D_demand_miss_rate 0.128545
Core_0_L1D_load_access 23241926
Core_0_L1D_load_hit 20254286
Core_0_L1D_load_miss 2987640
Core_0_L1D_load_MPKI 29.8764
Core_0_L1D_load_miss_rate 0.128545
Core_0_L1D_rfo_access 0
Core_0_L1D_rfo_hit 0
Core_0_L1D_rfo_miss 0
Core_0_L1D_rfo_MPKI 0
Core_0_L1D_rfo_miss_rate 0
Core_0_L1D_prefetch_access 21008412
Core_0_L1D_prefetch_hit 15783127
Core_0_L1D_prefetch_miss 5225285
Core_0_L1D_prefetch_MPKI 52.2528
Core_0_L1D_prefetch_miss_rate 0.248723
Core_0_L1D_writeback_access 2476227
Core_0_L1D_writeback_hit 2476227
Core_0_L1D_writeback_miss 0
Core_0_L1D_writeback_MPKI 0
Core_0_L1D_writeback_miss_rate 0
Core_0_L1D_prefetch_requested 89931424
Core_0_L1D_prefetch_issued 21008405
Core_0_L1D_prefetch_useful 927774
Core_0_L1D_prefetch_useless 454626
Core_0_L1D_prefetch_late 16082
Core_0_L1D_prefetch_fill 1366401
Core_0_L1D_prefetch_too_early 5
Core_0_L1D_prefetch_too_early_among_fill 3.65925e-06
Core_0_L1D_prefetch_too_early_among_useless 1.09981e-05
Core_0_L1D_prefetch_pollution_evict 19958
Core_0_L1D_prefetch_pollution_demand 19957
Core_0_L1D_prefetch_pollution_among_prefetch_fill 0.0146063
Core_0_L1D_prefetch_accuracy 0.044162
Core_0_L1D_prefetch_coverage 0.236954

Core_0_L2C_total_access 10598001
Core_0_L2C_total_hit 4501931
Core_0_L2C_total_miss 6096070
Core_0_L2C_total_MPKI 60.9607
Core_0_L2C_total_miss_rate 0.575209
Core_0_L2C_demand_access 2753874
Core_0_L2C_demand_hit 684371
Core_0_L2C_demand_miss 2069503
Core_0_L2C_demand_MPKI 20.695
Core_0_L2C_demand_miss_rate 0.751488
Core_0_L2C_load_access 2753874
Core_0_L2C_load_hit 684371
Core_0_L2C_load_miss 2069503
Core_0_L2C_load_MPKI 20.695
Core_0_L2C_load_miss_rate 0.751488
Core_0_L2C_rfo_access 0
Core_0_L2C_rfo_hit 0
Core_0_L2C_rfo_miss 0
Core_0_L2C_rfo_MPKI 0
Core_0_L2C_rfo_miss_rate 0
Core_0_L2C_prefetch_access 7292759
Core_0_L2C_prefetch_hit 3266312
Core_0_L2C_prefetch_miss 4026447
Core_0_L2C_prefetch_MPKI 40.2645
Core_0_L2C_prefetch_miss_rate 0.552116
Core_0_L2C_writeback_access 551368
Core_0_L2C_writeback_hit 551248
Core_0_L2C_writeback_miss 120
Core_0_L2C_writeback_MPKI 0.0012
Core_0_L2C_writeback_miss_rate 0.00021764
Core_0_L2C_prefetch_requested 2157808
Core_0_L2C_prefetch_issued 2157702
Core_0_L2C_prefetch_useful 503278
Core_0_L2C_prefetch_useless 193432
Core_0_L2C_prefetch_late 33121
Core_0_L2C_prefetch_fill 2736066
Core_0_L2C_prefetch_too_early 0
Core_0_L2C_prefetch_too_early_among_fill 0
Core_0_L2C_prefetch_too_early_among_useless 0
Core_0_L2C_prefetch_pollution_evict 42047
Core_0_L2C_prefetch_pollution_demand 42047
Core_0_L2C_prefetch_pollution_among_prefetch_fill 0.0153677
Core_0_L2C_prefetch_accuracy 0.233247
Core_0_L2C_prefetch_coverage 0.195616

Core_0_LLC_total_access 5383615
Core_0_LLC_total_hit 312752
Core_0_LLC_total_miss 5070863
Core_0_LLC_total_MPKI 50.7086
Core_0_LLC_total_miss_rate 0.941907
Core_0_LLC_demand_access 2002425
Core_0_LLC_demand_hit 178916
Core_0_LLC_demand_miss 1823509
Core_0_LLC_demand_MPKI 18.2351
Core_0_LLC_demand_miss_rate 0.91065
Core_0_LLC_load_access 2002425
Core_0_LLC_load_hit 178916
Core_0_LLC_load_miss 1823509
Core_0_LLC_load_MPKI 18.2351
Core_0_LLC_load_miss_rate 0.91065
Core_0_LLC_rfo_access 0
Core_0_LLC_rfo_hit 0
Core_0_LLC_rfo_miss 0
Core_0_LLC_rfo_MPKI 0
Core_0_LLC_rfo_miss_rate 0
Core_0_LLC_prefetch_access 2835015
Core_0_LLC_prefetch_hit 25945
Core_0_LLC_prefetch_miss 2809070
Core_0_LLC_prefetch_MPKI 28.0907
Core_0_LLC_prefetch_miss_rate 0.990848
Core_0_LLC_writeback_access 546175
Core_0_LLC_writeback_hit 107891
Core_0_LLC_writeback_miss 438284
Core_0_LLC_writeback_MPKI 4.38284
Core_0_LLC_writeback_miss_rate 0.802461
Core_0_LLC_prefetch_requested 0
Core_0_LLC_prefetch_issued 0
Core_0_LLC_prefetch_useful 0
Core_0_LLC_prefetch_useless 0
Core_0_LLC_prefetch_late 0
Core_0_LLC_prefetch_fill 2797876
Core_0_LLC_prefetch_too_early 0
Core_0_LLC_prefetch_too_early_among_fill 0
Core_0_LLC_prefetch_too_early_among_useless 0
Core_0_LLC_prefetch_pollution_evict 49067
Core_0_LLC_prefetch_pollution_demand 49067
Core_0_LLC_prefetch_pollution_among_prefetch_fill 0.0175372
Core_0_LLC_prefetch_accuracy 0
Core_0_LLC_prefetch_coverage 0

[DRAM Statistics]
Channel_0_RQ_row_buffer_hit 180482
Channel_0_RQ_row_buffer_miss 4521001
Channel_0_WQ_row_buffer_hit 168031
Channel_0_WQ_row_buffer_miss 362485
Channel_0_WQ_full 0
Channel_0_dbus_congested 12248995
DRAM_total_RQ_row_buffer_hit 180482
DRAM_total_RQ_row_buffer_miss 4521001
DRAM_total_WQ_row_buffer_hit 168031
DRAM_total_WQ_row_buffer_miss 362485
DRAM_total_WQ_full 0
DRAM_total_dbus_congested 12248995
DRAM_avg_congested_cycle 8.63307

====== DRAM_RQ_TRAFFIC ========
DRAM_RQ_READ_TRAFFIC_BREAKDOWN:
data_demand_read.count = 1823350
data_demand_read.share = 38.78%

inst_demand_read.count = 0
inst_demand_read.share = 0.00%

cache_inst_prefetch.count = 0
cache_inst_prefetch.share = 0.00%

cache_data_prefetch.count = 2798035
cache_data_prefetch.share = 59.51%

stlb_data_demand.count = 73868
stlb_data_demand.share = 1.57%

stlb_inst_demand.count = 0
stlb_inst_demand.share = 0.00%

stlb_l1i_pref.count = 0
stlb_l1i_pref.share = 0.00%

stlb_l1d_pref.count = 6318
stlb_l1d_pref.share = 0.13%

DRAM_RQ_READ_TRAFFIC_SUMMARY:
cache_demand.count = 1823350
cache_demand.share = 38.78%

cache_prefetch.count = 2798035
cache_prefetch.share = 59.51%

stlb_demand.count = 73868
stlb_demand.share = 1.57%

stlb_prefetch.count = 6318
stlb_prefetch.share = 0.13%

DRAM_RQ_READ_TRAFFIC_DEBUG:
total_classified_read.count = 4701571
unclassified_read.count = 0
total_read_with_other.count = 4701571

classified_plus_unclassified_check.count = 4701571
dram_rq_read_total_observed.count = 4701571
dram_rq_read_total_observed.per_1K_instructions = 47.0157

STLB_MISS_PTW_DRAM_TOUCH_BREAKDOWN:
stlb_miss_total.count = 1666547

stlb_miss_touch_dram.count = 80146
stlb_miss_touch_dram.share = 4.81%

stlb_miss_no_dram_touch.count = 1586401
stlb_miss_no_dram_touch.share = 95.19%

STLB_MISS_PTW_DRAM_TOUCH_DEBUG:
stlb_miss_touch_plus_no_touch.count = 1666547
stlb_miss_total_check.count = 1666547

======STLB miss causes ========
Core_0_STLB_miss_cause_breakdown
Core_0_STLB_cause_Demand_Data_miss 1616290
Core_0_STLB_cause_Demand_Data_miss_rate 0.77698
Core_0_STLB_cause_Demand_Instruction_miss 0
Core_0_STLB_cause_Demand_Instruction_miss_rate 0
Core_0_STLB_cause_L1D_Prefetch_miss 50257
Core_0_STLB_cause_L1D_Prefetch_miss_rate 0.0241595
Core_0_STLB_cause_L1D_Prefetch_Same_Page_miss 0
Core_0_STLB_cause_L1D_Prefetch_Same_Page_miss_rate 0
Core_0_STLB_cause_L1D_Prefetch_Cross_Page_miss 50257
Core_0_STLB_cause_L1D_Prefetch_Cross_Page_miss_rate 0.0241595
Core_0_STLB_cause_L1I_Prefetch_miss 0
Core_0_STLB_cause_L1I_Prefetch_miss_rate 0
Core_0_STLB_cause_Other_miss 0
Core_0_STLB_cause_Other_miss_rate 0
Core_0_STLB_Demand_miss 1616290
Core_0_STLB_Demand_miss_rate 0.77698
Core_0_STLB_L1D_Prefetch_miss 50257
Core_0_STLB_L1D_Prefetch_miss_rate 0.0241595
Core_0_STLB_Other_miss 0
Core_0_STLB_Other_miss_rate 0

========== vBerti-TLB Cross-page Flow Stats ==========

Core_0_vBerti_Requested 89931424
Core_0_vBerti_Cross_page_prefetch_in_Requested 12114324
Core_0_vBerti_Same_page_prefetch_in_Requested 77817100
Core_0_vBerti_Cross_page_prefetch_of_Requested 0.134706
Core_0_vBerti_Issued 21008405
Core_0_vBerti_InPQ_Same_page_prefetch 19333277
Core_0_vBerti_InPQ_Cross_page_prefetch 1675128
Core_0_vBerti_PQ_Drop_Rate 0.766395
Core_0_vBerti_InPQ_Cross_page_prefetch_of_Requested 0.0186267
Core_0_vBerti_Cross_page_PQ_Drop_rate 0.861723
Core_0_vBerti_Cross_page_prefetch_of_Issued 0.0797361
Core_0_CP_PF_PQFULL_drop 10439196
Core_0_CP_PF_PQFULL_TLB_rescue_enqueued 6039476
Core_0_CP_PF_PQFULL_TLB_rescue_issued 6039476
Core_0_CP_PF_PQFULL_TLB_rescue_translated 6039476

========= DTLB_vBerti Prefetch Stats =========
Core_0_DTLB_demand_access 24432313
Core_0_DTLB_demand_hit 22362066
Core_0_DTLB_demand_miss 2070247
Core_0_DTLB_demand_mshr_merge 42652
Core_0_DTLB_demand_fill 2029528
Core_0_DTLB_demand_miss_rate 0.084734
Core_0_DTLB_demand_mpki 20.7025
Core_0_DTLB_vberti_prefetch_access 18080627
Core_0_DTLB_vberti_prefetch_hit 17832463
Core_0_DTLB_vberti_prefetch_miss 248164
Core_0_DTLB_vberti_prefetch_mshr_merge 195538
Core_0_DTLB_vberti_prefetch_fill 50693
Core_0_DTLB_vberti_prefetch_miss_rate 0.0137254
Core_0_DTLB_vberti_prefetch_mpki 2.48164

=== DTLB_vBerti Same/Cross-page Prefetch Stats ===
Core_0_DTLB_vberti_same_page_prefetch 13831928
Core_0_DTLB_vberti_same_page_prefetch_hit 13831919
Core_0_DTLB_vberti_same_page_prefetch_miss 9
Core_0_DTLB_vberti_same_page_prefetch_mshr_merge 3
Core_0_DTLB_vberti_same_page_prefetch_fill 5
Core_0_DTLB_vberti_same_page_prefetch_miss_rate 6.50669e-07
Core_0_DTLB_vberti_same_page_prefetch_mpki 9e-05
Core_0_DTLB_vberti_cross_page_prefetch 4248699
Core_0_DTLB_vberti_cross_page_prefetch_hit 4000544
Core_0_DTLB_vberti_cross_page_prefetch_miss 248155
Core_0_DTLB_vberti_cross_page_prefetch_mshr_merge 195535
Core_0_DTLB_vberti_cross_page_prefetch_fill 50688
Core_0_DTLB_vberti_cross_page_prefetch_miss_rate 0.0584073
Core_0_DTLB_vberti_cross_page_prefetch_mpki 2.48155
Core_0_DTLB_same_page_prefetch_miss_rate 6.50669e-07
Core_0_DTLB_same_page_prefetch_mpki 9e-05
Core_0_DTLB_cross_page_prefetch_miss_rate 0.0584073
Core_0_DTLB_cross_page_prefetch_mpki 2.48155
Core_0_DTLB_cross_page_prefetch_issued 4248699
Core_0_DTLB_cross_page_prefetch_lookups 4248699
Core_0_DTLB_cross_page_prefetch_useful 49387
Core_0_DTLB_cross_page_prefetch_useless 3233
Core_0_DTLB_cross_page_prefetch_late 1932
Core_0_DTLB_cross_page_prefetch_too_early 178
Core_0_DTLB_cross_page_prefetch_too_early_among_fill 0.00351168
Core_0_DTLB_cross_page_prefetch_too_early_among_useless 0.0550572
Core_0_DTLB_cross_page_prefetch_pollution_evict 11898
Core_0_DTLB_cross_page_prefetch_pollution_demand 11838
Core_0_DTLB_cross_page_prefetch_pollution_among_prefetch_fill 0.23473
Core_0_DTLB_cross_page_prefetch_accuracy 0.011624
Core_0_DTLB_cross_page_prefetch_coverage 0.0232998

========= STLB_vBerti Prefetch Stats =========
Core_0_STLB_demand_access 2027595
Core_0_STLB_demand_hit 411305
Core_0_STLB_demand_miss 1616290
Core_0_STLB_demand_mshr_merge 0
Core_0_STLB_demand_fill 1616290
Core_0_STLB_demand_miss_rate 0.797146
Core_0_STLB_demand_mpki 16.1629
Core_0_STLB_vberti_prefetch_access 52626
Core_0_STLB_vberti_prefetch_hit 2369
Core_0_STLB_vberti_prefetch_miss 50257
Core_0_STLB_vberti_prefetch_mshr_merge 0
Core_0_STLB_vberti_prefetch_fill 50257
Core_0_STLB_vberti_prefetch_miss_rate 0.954984
Core_0_STLB_vberti_prefetch_mpki 0.50257

=== STLB_vBerti Same/Cross-page Prefetch Stats ===
Core_0_STLB_vberti_same_page_prefetch 6
Core_0_STLB_vberti_same_page_prefetch_hit 6
Core_0_STLB_vberti_same_page_prefetch_miss 0
Core_0_STLB_vberti_same_page_prefetch_mshr_merge 0
Core_0_STLB_vberti_same_page_prefetch_fill 0
Core_0_STLB_vberti_same_page_prefetch_miss_rate 0
Core_0_STLB_vberti_same_page_prefetch_mpki 0
Core_0_STLB_vberti_cross_page_prefetch 52620
Core_0_STLB_vberti_cross_page_prefetch_hit 2363
Core_0_STLB_vberti_cross_page_prefetch_miss 50257
Core_0_STLB_vberti_cross_page_prefetch_mshr_merge 0
Core_0_STLB_vberti_cross_page_prefetch_fill 50257
Core_0_STLB_vberti_cross_page_prefetch_miss_rate 0.955093
Core_0_STLB_vberti_cross_page_prefetch_mpki 0.50257
Core_0_STLB_same_page_prefetch_miss_rate 0
Core_0_STLB_same_page_prefetch_mpki 0
Core_0_STLB_cross_page_prefetch_miss_rate 0.955093
Core_0_STLB_cross_page_prefetch_mpki 0.50257
Core_0_STLB_cross_page_prefetch_issued 52620
Core_0_STLB_cross_page_prefetch_lookups 52620
Core_0_STLB_cross_page_prefetch_useful 1213
Core_0_STLB_cross_page_prefetch_useless 49044
Core_0_STLB_cross_page_prefetch_late 0
Core_0_STLB_cross_page_prefetch_too_early 301
Core_0_STLB_cross_page_prefetch_too_early_among_fill 0.00598922
Core_0_STLB_cross_page_prefetch_too_early_among_useless 0.00613735
Core_0_STLB_cross_page_prefetch_pollution_evict 37524
Core_0_STLB_cross_page_prefetch_pollution_demand 37486
Core_0_STLB_cross_page_prefetch_pollution_among_prefetch_fill 0.746642
Core_0_STLB_cross_page_prefetch_accuracy 0.0230521
Core_0_STLB_cross_page_prefetch_coverage 0.000749921

========= STLB Cross-page Prefetch Buffer Stats =========
Core_0_STLB_raw_demand_miss 1616290
Core_0_CP_PB_insert 0
Core_0_CP_PB_demand_hit 0
Core_0_STLB_PB_demand_miss 1616290
Core_0_CP_PB_coverage 0
Core_0_STLB_raw_demand_mpki 16.1629
Core_0_STLB_PB_demand_mpki 16.1629
Core_0_CP_PB_demand_hit_mpki 0

Core_0_TLB_demand_miss_rate 0.0661538
Core_0_TLB_demand_mpki 16.1629
Core_0_TLB_same_page_prefetch_miss_rate 0
Core_0_TLB_same_page_prefetch_mpki 0
Core_0_TLB_cross_page_prefetch_miss_rate 0.0118288
Core_0_TLB_cross_page_prefetch_mpki 0.50257
Core_0_TLB_cross_page_prefetch_issued 4248699
Core_0_TLB_cross_page_prefetch_lookups 4248699
Core_0_TLB_cross_page_prefetch_useful 49384
Core_0_TLB_cross_page_prefetch_useless 3232
Core_0_TLB_cross_page_prefetch_late 1932
Core_0_TLB_cross_page_prefetch_too_early 177
Core_0_TLB_cross_page_prefetch_too_early_among_fill 0.00175343
Core_0_TLB_cross_page_prefetch_too_early_among_useless 0.0547649
Core_0_TLB_cross_page_prefetch_accuracy 0.0116233
Core_0_TLB_cross_page_prefetch_coverage 0.0296481
BERTI TO_L1: 90449224 TO_L2: 25986245 TO_L2_BC_MSHR: 417656
BERTI AVG_LAT: 123.74 NUM_TRACK_LATENCY: 6090823 NUM_CANT_TRACK_LATENCY: 0
BERTI CROSS_PAGE 15894216 NO_CROSS_PAGE: 100541253
BERTI FOUND_BERTI: 20214707 NO_FOUND_BERTI: 13217808
BERTI AVERAGE_ISSUED: 3.28692
