[VMEM] WARNING: physical memory size is smaller than virtual memory size.

*** ChampSim Multicore Out-of-Order Simulator ***
Warmup Instructions: 50000000
Simulation Instructions: 100000000
Number of CPUs: 1
Page size: 4096
Core 0: /data2/zcq/champsim_traces_gap/cc.twitter-17B.champsimtrace.xz
VBerti Prefetcher
BERTI HASH ENTANGLING
BERTI IP MASK ffff
Off-chip DRAM Size: 16 GiB Channels: 1 Width: 64-bit Data Rate: 3205 MT/s
Warmup halting CPU 0 at instruction 50000000 cycle 13721455 for remainder of phase
Warmup finished CPU 0 instructions: 50000000 cycles: 13721455 cumulative IPC: 3.644 (Simulation time: 00 hr 03 min 16 sec)
Warmup complete CPU 0 instructions: 50000000 cycles: 13721455 cumulative IPC: 3.644 (Simulation time: 00 hr 03 min 16 sec)
Simulation finished CPU 0 instructions: 100000000 cycles: 266671818 cumulative IPC: 0.375 (Simulation time: 00 hr 26 min 16 sec)
Simulation complete CPU 0 instructions: 100000000 cycles: 266671818 cumulative IPC: 0.375 (Simulation time: 00 hr 26 min 16 sec)

ChampSim completed all CPUs

=== Simulation ===
CPU 0 runs /data2/zcq/champsim_traces_gap/cc.twitter-17B.champsimtrace.xz

Region of Interest Statistics

CPU 0 cumulative IPC: 0.375 instructions: 100000000 cycles: 266671818
CPU 0 Branch Prediction Accuracy: 92.97% MPKI: 17.33 Average ROB Occupancy at Mispredict: 31.46
Branch type MPKI
BRANCH_DIRECT_JUMP: 0
BRANCH_INDIRECT: 0
BRANCH_CONDITIONAL: 17.33
BRANCH_DIRECT_CALL: 0
BRANCH_INDIRECT_CALL: 0
BRANCH_RETURN: 0

cpu0->cpu0_STLB TOTAL        ACCESS:    2361037 HIT:     933943 MISS:    1427094 MSHR_MERGE:          0
cpu0->cpu0_STLB LOAD         ACCESS:    2361037 HIT:     933943 MISS:    1427094 MSHR_MERGE:          0
cpu0->cpu0_STLB RFO          ACCESS:          0 HIT:          0 MISS:          0 MSHR_MERGE:          0
cpu0->cpu0_STLB PREFETCH     ACCESS:          0 HIT:          0 MISS:          0 MSHR_MERGE:          0
cpu0->cpu0_STLB WRITE        ACCESS:          0 HIT:          0 MISS:          0 MSHR_MERGE:          0
cpu0->cpu0_STLB TRANSLATION  ACCESS:          0 HIT:          0 MISS:          0 MSHR_MERGE:          0
cpu0->cpu0_STLB PREFETCH REQUESTED:          0 ISSUED:          0 USEFUL:          0 USELESS:          0 LATE:          0 TOO_EARLY:          0
cpu0->cpu0_STLB AVERAGE MISS LATENCY: 34.47 cycles
cpu0->cpu0_L2C TOTAL        ACCESS:    5841701 HIT:    3390671 MISS:    2451030 MSHR_MERGE:      64700
cpu0->cpu0_L2C LOAD         ACCESS:    2151160 HIT:     729550 MISS:    1421610 MSHR_MERGE:          0
cpu0->cpu0_L2C RFO          ACCESS:          0 HIT:          0 MISS:          0 MSHR_MERGE:          0
cpu0->cpu0_L2C PREFETCH     ACCESS:    1958121 HIT:    1480887 MISS:     477234 MSHR_MERGE:      64700
cpu0->cpu0_L2C WRITE        ACCESS:     412517 HIT:     412517 MISS:          0 MSHR_MERGE:          0
cpu0->cpu0_L2C TRANSLATION  ACCESS:    1319903 HIT:     767717 MISS:     552186 MSHR_MERGE:          0
cpu0->cpu0_L2C PREFETCH REQUESTED:    1126818 ISSUED:    1126818 USEFUL:     388214 USELESS:          4 LATE:          0 TOO_EARLY:          1
cpu0->cpu0_L2C AVERAGE MISS LATENCY: 105.6 cycles
cpu0->cpu0_L1I TOTAL        ACCESS:     731661 HIT:     731661 MISS:          0 MSHR_MERGE:          0
cpu0->cpu0_L1I LOAD         ACCESS:     731661 HIT:     731661 MISS:          0 MSHR_MERGE:          0
cpu0->cpu0_L1I RFO          ACCESS:          0 HIT:          0 MISS:          0 MSHR_MERGE:          0
cpu0->cpu0_L1I PREFETCH     ACCESS:          0 HIT:          0 MISS:          0 MSHR_MERGE:          0
cpu0->cpu0_L1I WRITE        ACCESS:          0 HIT:          0 MISS:          0 MSHR_MERGE:          0
cpu0->cpu0_L1I TRANSLATION  ACCESS:          0 HIT:          0 MISS:          0 MSHR_MERGE:          0
cpu0->cpu0_L1I PREFETCH REQUESTED:          0 ISSUED:          0 USEFUL:          0 USELESS:          0 LATE:          0 TOO_EARLY:          0
cpu0->cpu0_L1I AVERAGE MISS LATENCY: - cycles
cpu0->cpu0_L1D TOTAL        ACCESS:   50846002 HIT:   46397740 MISS:    4448262 MSHR_MERGE:     145897
cpu0->cpu0_L1D LOAD         ACCESS:   16997692 HIT:   14703978 MISS:    2293714 MSHR_MERGE:     142555
cpu0->cpu0_L1D RFO          ACCESS:          0 HIT:          0 MISS:          0 MSHR_MERGE:          0
cpu0->cpu0_L1D PREFETCH     ACCESS:   25425706 HIT:   24591212 MISS:     834494 MSHR_MERGE:       3191
cpu0->cpu0_L1D WRITE        ACCESS:    4852868 HIT:    4852868 MISS:          0 MSHR_MERGE:          0
cpu0->cpu0_L1D TRANSLATION  ACCESS:    3569736 HIT:    2249682 MISS:    1320054 MSHR_MERGE:        151
cpu0->cpu0_L1D PREFETCH REQUESTED:   94870848 ISSUED:   25425702 USEFUL:     412525 USELESS:          0 LATE:          0 TOO_EARLY:          0
cpu0->cpu0_L1D AVERAGE MISS LATENCY: 68.62 cycles
cpu0->cpu0_ITLB TOTAL        ACCESS:     731660 HIT:     731660 MISS:          0 MSHR_MERGE:          0
cpu0->cpu0_ITLB LOAD         ACCESS:     731660 HIT:     731660 MISS:          0 MSHR_MERGE:          0
cpu0->cpu0_ITLB RFO          ACCESS:          0 HIT:          0 MISS:          0 MSHR_MERGE:          0
cpu0->cpu0_ITLB PREFETCH     ACCESS:          0 HIT:          0 MISS:          0 MSHR_MERGE:          0
cpu0->cpu0_ITLB WRITE        ACCESS:          0 HIT:          0 MISS:          0 MSHR_MERGE:          0
cpu0->cpu0_ITLB TRANSLATION  ACCESS:          0 HIT:          0 MISS:          0 MSHR_MERGE:          0
cpu0->cpu0_ITLB PREFETCH REQUESTED:          0 ISSUED:          0 USEFUL:          0 USELESS:          0 LATE:          0 TOO_EARLY:          0
cpu0->cpu0_ITLB AVERAGE MISS LATENCY: - cycles
cpu0->cpu0_DTLB TOTAL        ACCESS:   38835351 HIT:   36355613 MISS:    2479738 MSHR_MERGE:     118701
cpu0->cpu0_DTLB LOAD         ACCESS:   38835351 HIT:   36355613 MISS:    2479738 MSHR_MERGE:     118701
cpu0->cpu0_DTLB RFO          ACCESS:          0 HIT:          0 MISS:          0 MSHR_MERGE:          0
cpu0->cpu0_DTLB PREFETCH     ACCESS:          0 HIT:          0 MISS:          0 MSHR_MERGE:          0
cpu0->cpu0_DTLB WRITE        ACCESS:          0 HIT:          0 MISS:          0 MSHR_MERGE:          0
cpu0->cpu0_DTLB TRANSLATION  ACCESS:          0 HIT:          0 MISS:          0 MSHR_MERGE:          0
cpu0->cpu0_DTLB PREFETCH REQUESTED:          0 ISSUED:          0 USEFUL:          0 USELESS:          0 LATE:          0 TOO_EARLY:          0
cpu0->cpu0_DTLB AVERAGE MISS LATENCY: 26.44 cycles
cpu0->LLC TOTAL        ACCESS:    2798810 HIT:    1427013 MISS:    1371797 MSHR_MERGE:          0
cpu0->LLC LOAD         ACCESS:    1421610 HIT:     549560 MISS:     872050 MSHR_MERGE:          0
cpu0->LLC RFO          ACCESS:          0 HIT:          0 MISS:          0 MSHR_MERGE:          0
cpu0->LLC PREFETCH     ACCESS:     412534 HIT:          1 MISS:     412533 MSHR_MERGE:          0
cpu0->LLC WRITE        ACCESS:     412480 HIT:     365214 MISS:      47266 MSHR_MERGE:          0
cpu0->LLC TRANSLATION  ACCESS:     552186 HIT:     512238 MISS:      39948 MSHR_MERGE:          0
cpu0->LLC PREFETCH REQUESTED:          0 ISSUED:          0 USEFUL:          0 USELESS:          0 LATE:          0 TOO_EARLY:          0
cpu0->LLC AVERAGE MISS LATENCY: 185.8 cycles

DRAM Statistics

Channel 0 RQ ROW_BUFFER_HIT:         79
  ROW_BUFFER_MISS:    1324451
  AVG DBUS CONGESTED CYCLE: 20.34
Channel 0 WQ ROW_BUFFER_HIT:      91486
  ROW_BUFFER_MISS:     320077
  FULL:          0
Channel 0 REFRESHES ISSUED:      22223

[ROI Statistics]
[System Configuration]
num_cpus 1
cpu_freq 4000
fetch_width 6
decode_width 6
dispatch_width 6
execute_width 6
lq_width 2
sq_width 2
retire_width 6
scheduler_size 128
branch_mispredict_penalty 15
rob_size 352
lq_size 128
sq_size 72
ifetch_buffer_size 64
decode_buffer_size 32
dispatch_buffer_size 32
register_file_size 288
decode_latency 1
dispatch_latency 1
schedule_latency 1
execute_latency 1
page_size 4096
block_size 64
core_0_itlb_set 16
core_0_itlb_way 4
core_0_itlb_rq_size 16
core_0_itlb_wq_size 16
core_0_itlb_pq_size 0
core_0_itlb_mshr_size 8
core_0_itlb_hit_latency 1
core_0_itlb_fill_latency 1
core_0_itlb_max_tag_check 2
core_0_itlb_max_fill 2
core_0_dtlb_set 16
core_0_dtlb_way 4
core_0_dtlb_rq_size 16
core_0_dtlb_wq_size 16
core_0_dtlb_pq_size 0
core_0_dtlb_mshr_size 8
core_0_dtlb_hit_latency 1
core_0_dtlb_fill_latency 1
core_0_dtlb_max_tag_check 2
core_0_dtlb_max_fill 2
core_0_stlb_set 128
core_0_stlb_way 12
core_0_stlb_rq_size 32
core_0_stlb_wq_size 32
core_0_stlb_pq_size 0
core_0_stlb_mshr_size 16
core_0_stlb_hit_latency 4
core_0_stlb_fill_latency 4
core_0_stlb_max_tag_check 1
core_0_stlb_max_fill 1
core_0_l1i_set 64
core_0_l1i_way 8
core_0_l1i_rq_size 64
core_0_l1i_wq_size 64
core_0_l1i_pq_size 32
core_0_l1i_mshr_size 8
core_0_l1i_hit_latency 2
core_0_l1i_fill_latency 2
core_0_l1i_max_tag_check 2
core_0_l1i_max_fill 2
core_0_l1d_set 64
core_0_l1d_way 12
core_0_l1d_rq_size 64
core_0_l1d_wq_size 64
core_0_l1d_pq_size 8
core_0_l1d_mshr_size 16
core_0_l1d_hit_latency 2
core_0_l1d_fill_latency 3
core_0_l1d_max_tag_check 2
core_0_l1d_max_fill 2
core_0_l2c_set 1024
core_0_l2c_way 8
core_0_l2c_rq_size 32
core_0_l2c_wq_size 32
core_0_l2c_pq_size 16
core_0_l2c_mshr_size 32
core_0_l2c_hit_latency 5
core_0_l2c_fill_latency 5
core_0_l2c_max_tag_check 1
core_0_l2c_max_fill 1
llc_set 2048
llc_way 16
llc_rq_size 32
llc_wq_size 32
llc_pq_size 32
llc_mshr_size 64
llc_hit_latency 10
llc_fill_latency 10
llc_max_tag_check 1
llc_max_fill 1
dram_channels 1
dram_ranks 1
dram_bankgroups 8
dram_banks 4
dram_rows 65536
dram_columns 1024
dram_channel_width 8
dram_rq_size 64
dram_wq_size 64
dram_size 17179869184
core_0_itlb_prefetcher no
core_0_dtlb_prefetcher no
core_0_stlb_prefetcher no
core_0_l1i_prefetcher next_line
core_0_l1d_prefetcher vberti
core_0_l2c_prefetcher ip_stride
llc_prefetcher no
llc_replacement drrip

Core_0_instructions 100000000
Core_0_cycles 266671818
Core_0_IPC 0.374993
Core_0_branch_prediction_accuracy 92.9725
Core_0_branch_MPKI 17.3257
Core_0_average_ROB_occupancy_at_mispredict 31.4585

Core_0_ITLB_total_access 731660
Core_0_ITLB_total_hit 731660
Core_0_ITLB_total_miss 0
Core_0_ITLB_total_MPKI 0
Core_0_ITLB_total_miss_rate 0
Core_0_ITLB_demand_access 731660
Core_0_ITLB_demand_hit 731660
Core_0_ITLB_demand_miss 0
Core_0_ITLB_demand_MPKI 0
Core_0_ITLB_demand_miss_rate 0
Core_0_ITLB_load_access 731660
Core_0_ITLB_load_hit 731660
Core_0_ITLB_load_miss 0
Core_0_ITLB_load_MPKI 0
Core_0_ITLB_load_miss_rate 0
Core_0_ITLB_rfo_access 0
Core_0_ITLB_rfo_hit 0
Core_0_ITLB_rfo_miss 0
Core_0_ITLB_rfo_MPKI 0
Core_0_ITLB_rfo_miss_rate 0
Core_0_ITLB_prefetch_access 0
Core_0_ITLB_prefetch_hit 0
Core_0_ITLB_prefetch_miss 0
Core_0_ITLB_prefetch_MPKI 0
Core_0_ITLB_prefetch_miss_rate 0
Core_0_ITLB_writeback_access 0
Core_0_ITLB_writeback_hit 0
Core_0_ITLB_writeback_miss 0
Core_0_ITLB_writeback_MPKI 0
Core_0_ITLB_writeback_miss_rate 0
Core_0_ITLB_prefetch_requested 0
Core_0_ITLB_prefetch_issued 0
Core_0_ITLB_prefetch_useful 0
Core_0_ITLB_prefetch_useless 0
Core_0_ITLB_prefetch_late 0
Core_0_ITLB_prefetch_fill 0
Core_0_ITLB_prefetch_too_early 0
Core_0_ITLB_prefetch_too_early_among_fill 0
Core_0_ITLB_prefetch_too_early_among_useless 0
Core_0_ITLB_prefetch_pollution_evict 0
Core_0_ITLB_prefetch_pollution_demand 0
Core_0_ITLB_prefetch_pollution_among_prefetch_fill 0
Core_0_ITLB_prefetch_accuracy 0
Core_0_ITLB_prefetch_coverage 0

Core_0_DTLB_total_access 38835351
Core_0_DTLB_total_hit 36355613
Core_0_DTLB_total_miss 2479738
Core_0_DTLB_total_MPKI 24.7974
Core_0_DTLB_total_miss_rate 0.0638526
Core_0_DTLB_demand_access 38835351
Core_0_DTLB_demand_hit 36355613
Core_0_DTLB_demand_miss 2479738
Core_0_DTLB_demand_MPKI 24.7974
Core_0_DTLB_demand_miss_rate 0.0638526
Core_0_DTLB_load_access 38835351
Core_0_DTLB_load_hit 36355613
Core_0_DTLB_load_miss 2479738
Core_0_DTLB_load_MPKI 24.7974
Core_0_DTLB_load_miss_rate 0.0638526
Core_0_DTLB_rfo_access 0
Core_0_DTLB_rfo_hit 0
Core_0_DTLB_rfo_miss 0
Core_0_DTLB_rfo_MPKI 0
Core_0_DTLB_rfo_miss_rate 0
Core_0_DTLB_prefetch_access 0
Core_0_DTLB_prefetch_hit 0
Core_0_DTLB_prefetch_miss 0
Core_0_DTLB_prefetch_MPKI 0
Core_0_DTLB_prefetch_miss_rate 0
Core_0_DTLB_writeback_access 0
Core_0_DTLB_writeback_hit 0
Core_0_DTLB_writeback_miss 0
Core_0_DTLB_writeback_MPKI 0
Core_0_DTLB_writeback_miss_rate 0
Core_0_DTLB_prefetch_requested 0
Core_0_DTLB_prefetch_issued 0
Core_0_DTLB_prefetch_useful 0
Core_0_DTLB_prefetch_useless 0
Core_0_DTLB_prefetch_late 0
Core_0_DTLB_prefetch_fill 0
Core_0_DTLB_prefetch_too_early 0
Core_0_DTLB_prefetch_too_early_among_fill 0
Core_0_DTLB_prefetch_too_early_among_useless 0
Core_0_DTLB_prefetch_pollution_evict 0
Core_0_DTLB_prefetch_pollution_demand 0
Core_0_DTLB_prefetch_pollution_among_prefetch_fill 0
Core_0_DTLB_prefetch_accuracy 0
Core_0_DTLB_prefetch_coverage 0

Core_0_STLB_total_access 2361037
Core_0_STLB_total_hit 933943
Core_0_STLB_total_miss 1427094
Core_0_STLB_total_MPKI 14.2709
Core_0_STLB_total_miss_rate 0.604435
Core_0_STLB_demand_access 2361037
Core_0_STLB_demand_hit 933943
Core_0_STLB_demand_miss 1427094
Core_0_STLB_demand_MPKI 14.2709
Core_0_STLB_demand_miss_rate 0.604435
Core_0_STLB_load_access 2361037
Core_0_STLB_load_hit 933943
Core_0_STLB_load_miss 1427094
Core_0_STLB_load_MPKI 14.2709
Core_0_STLB_load_miss_rate 0.604435
Core_0_STLB_rfo_access 0
Core_0_STLB_rfo_hit 0
Core_0_STLB_rfo_miss 0
Core_0_STLB_rfo_MPKI 0
Core_0_STLB_rfo_miss_rate 0
Core_0_STLB_prefetch_access 0
Core_0_STLB_prefetch_hit 0
Core_0_STLB_prefetch_miss 0
Core_0_STLB_prefetch_MPKI 0
Core_0_STLB_prefetch_miss_rate 0
Core_0_STLB_writeback_access 0
Core_0_STLB_writeback_hit 0
Core_0_STLB_writeback_miss 0
Core_0_STLB_writeback_MPKI 0
Core_0_STLB_writeback_miss_rate 0
Core_0_STLB_prefetch_requested 0
Core_0_STLB_prefetch_issued 0
Core_0_STLB_prefetch_useful 0
Core_0_STLB_prefetch_useless 0
Core_0_STLB_prefetch_late 0
Core_0_STLB_prefetch_fill 0
Core_0_STLB_prefetch_too_early 0
Core_0_STLB_prefetch_too_early_among_fill 0
Core_0_STLB_prefetch_too_early_among_useless 0
Core_0_STLB_prefetch_pollution_evict 0
Core_0_STLB_prefetch_pollution_demand 0
Core_0_STLB_prefetch_pollution_among_prefetch_fill 0
Core_0_STLB_prefetch_accuracy 0
Core_0_STLB_prefetch_coverage 0

Core_0_L1I_total_access 731661
Core_0_L1I_total_hit 731661
Core_0_L1I_total_miss 0
Core_0_L1I_total_MPKI 0
Core_0_L1I_total_miss_rate 0
Core_0_L1I_demand_access 731661
Core_0_L1I_demand_hit 731661
Core_0_L1I_demand_miss 0
Core_0_L1I_demand_MPKI 0
Core_0_L1I_demand_miss_rate 0
Core_0_L1I_load_access 731661
Core_0_L1I_load_hit 731661
Core_0_L1I_load_miss 0
Core_0_L1I_load_MPKI 0
Core_0_L1I_load_miss_rate 0
Core_0_L1I_rfo_access 0
Core_0_L1I_rfo_hit 0
Core_0_L1I_rfo_miss 0
Core_0_L1I_rfo_MPKI 0
Core_0_L1I_rfo_miss_rate 0
Core_0_L1I_prefetch_access 0
Core_0_L1I_prefetch_hit 0
Core_0_L1I_prefetch_miss 0
Core_0_L1I_prefetch_MPKI 0
Core_0_L1I_prefetch_miss_rate 0
Core_0_L1I_writeback_access 0
Core_0_L1I_writeback_hit 0
Core_0_L1I_writeback_miss 0
Core_0_L1I_writeback_MPKI 0
Core_0_L1I_writeback_miss_rate 0
Core_0_L1I_prefetch_requested 0
Core_0_L1I_prefetch_issued 0
Core_0_L1I_prefetch_useful 0
Core_0_L1I_prefetch_useless 0
Core_0_L1I_prefetch_late 0
Core_0_L1I_prefetch_fill 0
Core_0_L1I_prefetch_too_early 0
Core_0_L1I_prefetch_too_early_among_fill 0
Core_0_L1I_prefetch_too_early_among_useless 0
Core_0_L1I_prefetch_pollution_evict 0
Core_0_L1I_prefetch_pollution_demand 0
Core_0_L1I_prefetch_pollution_among_prefetch_fill 0
Core_0_L1I_prefetch_accuracy 0
Core_0_L1I_prefetch_coverage 0

Core_0_L1D_total_access 47276266
Core_0_L1D_total_hit 44148058
Core_0_L1D_total_miss 3128208
Core_0_L1D_total_MPKI 31.2821
Core_0_L1D_total_miss_rate 0.0661687
Core_0_L1D_demand_access 16997692
Core_0_L1D_demand_hit 14703978
Core_0_L1D_demand_miss 2293714
Core_0_L1D_demand_MPKI 22.9371
Core_0_L1D_demand_miss_rate 0.134943
Core_0_L1D_load_access 16997692
Core_0_L1D_load_hit 14703978
Core_0_L1D_load_miss 2293714
Core_0_L1D_load_MPKI 22.9371
Core_0_L1D_load_miss_rate 0.134943
Core_0_L1D_rfo_access 0
Core_0_L1D_rfo_hit 0
Core_0_L1D_rfo_miss 0
Core_0_L1D_rfo_MPKI 0
Core_0_L1D_rfo_miss_rate 0
Core_0_L1D_prefetch_access 25425706
Core_0_L1D_prefetch_hit 24591212
Core_0_L1D_prefetch_miss 834494
Core_0_L1D_prefetch_MPKI 8.34494
Core_0_L1D_prefetch_miss_rate 0.0328209
Core_0_L1D_writeback_access 4852868
Core_0_L1D_writeback_hit 4852868
Core_0_L1D_writeback_miss 0
Core_0_L1D_writeback_MPKI 0
Core_0_L1D_writeback_miss_rate 0
Core_0_L1D_prefetch_requested 94870848
Core_0_L1D_prefetch_issued 25425702
Core_0_L1D_prefetch_useful 412525
Core_0_L1D_prefetch_useless 0
Core_0_L1D_prefetch_late 0
Core_0_L1D_prefetch_fill 412531
Core_0_L1D_prefetch_too_early 0
Core_0_L1D_prefetch_too_early_among_fill 0
Core_0_L1D_prefetch_too_early_among_useless 0
Core_0_L1D_prefetch_pollution_evict 68718
Core_0_L1D_prefetch_pollution_demand 68718
Core_0_L1D_prefetch_pollution_among_prefetch_fill 0.166577
Core_0_L1D_prefetch_accuracy 0.0162247
Core_0_L1D_prefetch_coverage 0.152435

Core_0_L2C_total_access 4521798
Core_0_L2C_total_hit 2622954
Core_0_L2C_total_miss 1898844
Core_0_L2C_total_MPKI 18.9884
Core_0_L2C_total_miss_rate 0.419931
Core_0_L2C_demand_access 2151160
Core_0_L2C_demand_hit 729550
Core_0_L2C_demand_miss 1421610
Core_0_L2C_demand_MPKI 14.2161
Core_0_L2C_demand_miss_rate 0.660857
Core_0_L2C_load_access 2151160
Core_0_L2C_load_hit 729550
Core_0_L2C_load_miss 1421610
Core_0_L2C_load_MPKI 14.2161
Core_0_L2C_load_miss_rate 0.660857
Core_0_L2C_rfo_access 0
Core_0_L2C_rfo_hit 0
Core_0_L2C_rfo_miss 0
Core_0_L2C_rfo_MPKI 0
Core_0_L2C_rfo_miss_rate 0
Core_0_L2C_prefetch_access 1958121
Core_0_L2C_prefetch_hit 1480887
Core_0_L2C_prefetch_miss 477234
Core_0_L2C_prefetch_MPKI 4.77234
Core_0_L2C_prefetch_miss_rate 0.24372
Core_0_L2C_writeback_access 412517
Core_0_L2C_writeback_hit 412517
Core_0_L2C_writeback_miss 0
Core_0_L2C_writeback_MPKI 0
Core_0_L2C_writeback_miss_rate 0
Core_0_L2C_prefetch_requested 1126818
Core_0_L2C_prefetch_issued 1126818
Core_0_L2C_prefetch_useful 388214
Core_0_L2C_prefetch_useless 4
Core_0_L2C_prefetch_late 0
Core_0_L2C_prefetch_fill 412534
Core_0_L2C_prefetch_too_early 1
Core_0_L2C_prefetch_too_early_among_fill 2.42404e-06
Core_0_L2C_prefetch_too_early_among_useless 0.25
Core_0_L2C_prefetch_pollution_evict 99139
Core_0_L2C_prefetch_pollution_demand 99139
Core_0_L2C_prefetch_pollution_among_prefetch_fill 0.240317
Core_0_L2C_prefetch_accuracy 0.344522
Core_0_L2C_prefetch_coverage 0.214504

Core_0_LLC_total_access 2246624
Core_0_LLC_total_hit 914775
Core_0_LLC_total_miss 1331849
Core_0_LLC_total_MPKI 13.3185
Core_0_LLC_total_miss_rate 0.592822
Core_0_LLC_demand_access 1421610
Core_0_LLC_demand_hit 549560
Core_0_LLC_demand_miss 872050
Core_0_LLC_demand_MPKI 8.7205
Core_0_LLC_demand_miss_rate 0.613424
Core_0_LLC_load_access 1421610
Core_0_LLC_load_hit 549560
Core_0_LLC_load_miss 872050
Core_0_LLC_load_MPKI 8.7205
Core_0_LLC_load_miss_rate 0.613424
Core_0_LLC_rfo_access 0
Core_0_LLC_rfo_hit 0
Core_0_LLC_rfo_miss 0
Core_0_LLC_rfo_MPKI 0
Core_0_LLC_rfo_miss_rate 0
Core_0_LLC_prefetch_access 412534
Core_0_LLC_prefetch_hit 1
Core_0_LLC_prefetch_miss 412533
Core_0_LLC_prefetch_MPKI 4.12533
Core_0_LLC_prefetch_miss_rate 0.999998
Core_0_LLC_writeback_access 412480
Core_0_LLC_writeback_hit 365214
Core_0_LLC_writeback_miss 47266
Core_0_LLC_writeback_MPKI 0.47266
Core_0_LLC_writeback_miss_rate 0.11459
Core_0_LLC_prefetch_requested 0
Core_0_LLC_prefetch_issued 0
Core_0_LLC_prefetch_useful 0
Core_0_LLC_prefetch_useless 0
Core_0_LLC_prefetch_late 0
Core_0_LLC_prefetch_fill 412533
Core_0_LLC_prefetch_too_early 0
Core_0_LLC_prefetch_too_early_among_fill 0
Core_0_LLC_prefetch_too_early_among_useless 0
Core_0_LLC_prefetch_pollution_evict 99810
Core_0_LLC_prefetch_pollution_demand 99810
Core_0_LLC_prefetch_pollution_among_prefetch_fill 0.241944
Core_0_LLC_prefetch_accuracy 0
Core_0_LLC_prefetch_coverage 0

[DRAM Statistics]
Channel_0_RQ_row_buffer_hit 79
Channel_0_RQ_row_buffer_miss 1324451
Channel_0_WQ_row_buffer_hit 91486
Channel_0_WQ_row_buffer_miss 320077
Channel_0_WQ_full 0
Channel_0_dbus_congested 4802691
DRAM_total_RQ_row_buffer_hit 79
DRAM_total_RQ_row_buffer_miss 1324451
DRAM_total_WQ_row_buffer_hit 91486
DRAM_total_WQ_row_buffer_miss 320077
DRAM_total_WQ_full 0
DRAM_total_dbus_congested 4802691
DRAM_avg_congested_cycle 20.341

====== DRAM_RQ_TRAFFIC ========
DRAM_RQ_READ_TRAFFIC_BREAKDOWN:
data_demand_read.count = 872050
data_demand_read.share = 65.84%

inst_demand_read.count = 0
inst_demand_read.share = 0.00%

cache_inst_prefetch.count = 0
cache_inst_prefetch.share = 0.00%

cache_data_prefetch.count = 412533
cache_data_prefetch.share = 31.15%

stlb_data_demand.count = 39128
stlb_data_demand.share = 2.95%

stlb_inst_demand.count = 0
stlb_inst_demand.share = 0.00%

stlb_l1i_pref.count = 0
stlb_l1i_pref.share = 0.00%

stlb_l1d_pref.count = 820
stlb_l1d_pref.share = 0.06%

DRAM_RQ_READ_TRAFFIC_SUMMARY:
cache_demand.count = 872050
cache_demand.share = 65.84%

cache_prefetch.count = 412533
cache_prefetch.share = 31.15%

stlb_demand.count = 39128
stlb_demand.share = 2.95%

stlb_prefetch.count = 820
stlb_prefetch.share = 0.06%

DRAM_RQ_READ_TRAFFIC_DEBUG:
total_classified_read.count = 1324531
unclassified_read.count = 0
total_read_with_other.count = 1324531

classified_plus_unclassified_check.count = 1324531
dram_rq_read_total_observed.count = 1324531
dram_rq_read_total_observed.per_1K_instructions = 13.2453

STLB_MISS_PTW_DRAM_TOUCH_BREAKDOWN:
stlb_miss_total.count = 1427094

stlb_miss_touch_dram.count = 39939
stlb_miss_touch_dram.share = 2.80%

stlb_miss_no_dram_touch.count = 1387155
stlb_miss_no_dram_touch.share = 97.20%

STLB_MISS_PTW_DRAM_TOUCH_DEBUG:
stlb_miss_touch_plus_no_touch.count = 1427094
stlb_miss_total_check.count = 1427094

======STLB miss causes ========
Core_0_STLB_miss_cause_breakdown
Core_0_STLB_cause_Demand_Data_miss 1420648
Core_0_STLB_cause_Demand_Data_miss_rate 0.601705
Core_0_STLB_cause_Demand_Instruction_miss 0
Core_0_STLB_cause_Demand_Instruction_miss_rate 0
Core_0_STLB_cause_L1D_Prefetch_miss 6446
Core_0_STLB_cause_L1D_Prefetch_miss_rate 0.00273016
Core_0_STLB_cause_L1D_Prefetch_Same_Page_miss 0
Core_0_STLB_cause_L1D_Prefetch_Same_Page_miss_rate 0
Core_0_STLB_cause_L1D_Prefetch_Cross_Page_miss 6446
Core_0_STLB_cause_L1D_Prefetch_Cross_Page_miss_rate 0.00273016
Core_0_STLB_cause_L1I_Prefetch_miss 0
Core_0_STLB_cause_L1I_Prefetch_miss_rate 0
Core_0_STLB_cause_Other_miss 0
Core_0_STLB_cause_Other_miss_rate 0
Core_0_STLB_Demand_miss 1420648
Core_0_STLB_Demand_miss_rate 0.601705
Core_0_STLB_L1D_Prefetch_miss 6446
Core_0_STLB_L1D_Prefetch_miss_rate 0.00273016
Core_0_STLB_Other_miss 0
Core_0_STLB_Other_miss_rate 0

========== vBerti-TLB Cross-page Flow Stats ==========

Core_0_vBerti_Requested 94870848
Core_0_vBerti_Cross_page_prefetch_in_Requested 12012259
Core_0_vBerti_Same_page_prefetch_in_Requested 82858589
Core_0_vBerti_Cross_page_prefetch_of_Requested 0.126617
Core_0_vBerti_Issued 25425702
Core_0_vBerti_InPQ_Same_page_prefetch 24085325
Core_0_vBerti_InPQ_Cross_page_prefetch 1340377
Core_0_vBerti_PQ_Drop_Rate 0.731997
Core_0_vBerti_InPQ_Cross_page_prefetch_of_Requested 0.0141284
Core_0_vBerti_Cross_page_PQ_Drop_rate 0.888416
Core_0_vBerti_Cross_page_prefetch_of_Issued 0.0527174
Core_0_CP_PF_PQFULL_drop 10671882
Core_0_CP_PF_PQFULL_TLB_rescue_enqueued 6308802
Core_0_CP_PF_PQFULL_TLB_rescue_issued 6308802
Core_0_CP_PF_PQFULL_TLB_rescue_translated 6308802

========= DTLB_vBerti Prefetch Stats =========
Core_0_DTLB_demand_access 21172714
Core_0_DTLB_demand_hit 18732962
Core_0_DTLB_demand_miss 2439752
Core_0_DTLB_demand_mshr_merge 85171
Core_0_DTLB_demand_fill 2354581
Core_0_DTLB_demand_miss_rate 0.115231
Core_0_DTLB_demand_mpki 24.3975
Core_0_DTLB_vberti_prefetch_access 17662637
Core_0_DTLB_vberti_prefetch_hit 17622651
Core_0_DTLB_vberti_prefetch_miss 39986
Core_0_DTLB_vberti_prefetch_mshr_merge 33530
Core_0_DTLB_vberti_prefetch_fill 6456
Core_0_DTLB_vberti_prefetch_miss_rate 0.00226387
Core_0_DTLB_vberti_prefetch_mpki 0.39986

=== DTLB_vBerti Same/Cross-page Prefetch Stats ===
Core_0_DTLB_vberti_same_page_prefetch 13106379
Core_0_DTLB_vberti_same_page_prefetch_hit 13106379
Core_0_DTLB_vberti_same_page_prefetch_miss 0
Core_0_DTLB_vberti_same_page_prefetch_mshr_merge 0
Core_0_DTLB_vberti_same_page_prefetch_fill 0
Core_0_DTLB_vberti_same_page_prefetch_miss_rate 0
Core_0_DTLB_vberti_same_page_prefetch_mpki 0
Core_0_DTLB_vberti_cross_page_prefetch 4556258
Core_0_DTLB_vberti_cross_page_prefetch_hit 4516272
Core_0_DTLB_vberti_cross_page_prefetch_miss 39986
Core_0_DTLB_vberti_cross_page_prefetch_mshr_merge 33530
Core_0_DTLB_vberti_cross_page_prefetch_fill 6456
Core_0_DTLB_vberti_cross_page_prefetch_miss_rate 0.00877606
Core_0_DTLB_vberti_cross_page_prefetch_mpki 0.39986
Core_0_DTLB_same_page_prefetch_miss_rate 0
Core_0_DTLB_same_page_prefetch_mpki 0
Core_0_DTLB_cross_page_prefetch_miss_rate 0.00877606
Core_0_DTLB_cross_page_prefetch_mpki 0.39986
Core_0_DTLB_cross_page_prefetch_issued 4556258
Core_0_DTLB_cross_page_prefetch_lookups 4556258
Core_0_DTLB_cross_page_prefetch_useful 6446
Core_0_DTLB_cross_page_prefetch_useless 10
Core_0_DTLB_cross_page_prefetch_late 0
Core_0_DTLB_cross_page_prefetch_too_early 0
Core_0_DTLB_cross_page_prefetch_too_early_among_fill 0
Core_0_DTLB_cross_page_prefetch_too_early_among_useless 0
Core_0_DTLB_cross_page_prefetch_pollution_evict 4597
Core_0_DTLB_cross_page_prefetch_pollution_demand 4597
Core_0_DTLB_cross_page_prefetch_pollution_among_prefetch_fill 0.712051
Core_0_DTLB_cross_page_prefetch_accuracy 0.00141476
Core_0_DTLB_cross_page_prefetch_coverage 0.00263511

========= STLB_vBerti Prefetch Stats =========
Core_0_STLB_demand_access 2354581
Core_0_STLB_demand_hit 933933
Core_0_STLB_demand_miss 1420648
Core_0_STLB_demand_mshr_merge 0
Core_0_STLB_demand_fill 1420648
Core_0_STLB_demand_miss_rate 0.603355
Core_0_STLB_demand_mpki 14.2065
Core_0_STLB_vberti_prefetch_access 6456
Core_0_STLB_vberti_prefetch_hit 10
Core_0_STLB_vberti_prefetch_miss 6446
Core_0_STLB_vberti_prefetch_mshr_merge 0
Core_0_STLB_vberti_prefetch_fill 6446
Core_0_STLB_vberti_prefetch_miss_rate 0.998451
Core_0_STLB_vberti_prefetch_mpki 0.06446

=== STLB_vBerti Same/Cross-page Prefetch Stats ===
Core_0_STLB_vberti_same_page_prefetch 0
Core_0_STLB_vberti_same_page_prefetch_hit 0
Core_0_STLB_vberti_same_page_prefetch_miss 0
Core_0_STLB_vberti_same_page_prefetch_mshr_merge 0
Core_0_STLB_vberti_same_page_prefetch_fill 0
Core_0_STLB_vberti_same_page_prefetch_miss_rate 0
Core_0_STLB_vberti_same_page_prefetch_mpki 0
Core_0_STLB_vberti_cross_page_prefetch 6456
Core_0_STLB_vberti_cross_page_prefetch_hit 10
Core_0_STLB_vberti_cross_page_prefetch_miss 6446
Core_0_STLB_vberti_cross_page_prefetch_mshr_merge 0
Core_0_STLB_vberti_cross_page_prefetch_fill 6446
Core_0_STLB_vberti_cross_page_prefetch_miss_rate 0.998451
Core_0_STLB_vberti_cross_page_prefetch_mpki 0.06446
Core_0_STLB_same_page_prefetch_miss_rate 0
Core_0_STLB_same_page_prefetch_mpki 0
Core_0_STLB_cross_page_prefetch_miss_rate 0.998451
Core_0_STLB_cross_page_prefetch_mpki 0.06446
Core_0_STLB_cross_page_prefetch_issued 6456
Core_0_STLB_cross_page_prefetch_lookups 6456
Core_0_STLB_cross_page_prefetch_useful 3896
Core_0_STLB_cross_page_prefetch_useless 2550
Core_0_STLB_cross_page_prefetch_late 0
Core_0_STLB_cross_page_prefetch_too_early 2421
Core_0_STLB_cross_page_prefetch_too_early_among_fill 0.375582
Core_0_STLB_cross_page_prefetch_too_early_among_useless 0.949412
Core_0_STLB_cross_page_prefetch_pollution_evict 6090
Core_0_STLB_cross_page_prefetch_pollution_demand 6090
Core_0_STLB_cross_page_prefetch_pollution_among_prefetch_fill 0.944772
Core_0_STLB_cross_page_prefetch_accuracy 0.60347
Core_0_STLB_cross_page_prefetch_coverage 0.00273491

========= STLB Cross-page Prefetch Buffer Stats =========
Core_0_STLB_raw_demand_miss 1420648
Core_0_CP_PB_insert 0
Core_0_CP_PB_demand_hit 0
Core_0_STLB_PB_demand_miss 1420648
Core_0_CP_PB_coverage 0
Core_0_STLB_raw_demand_mpki 14.2065
Core_0_STLB_PB_demand_mpki 14.2065
Core_0_CP_PB_demand_hit_mpki 0

Core_0_TLB_demand_miss_rate 0.0670981
Core_0_TLB_demand_mpki 14.2065
Core_0_TLB_same_page_prefetch_miss_rate 0
Core_0_TLB_same_page_prefetch_mpki 0
Core_0_TLB_cross_page_prefetch_miss_rate 0.00141476
Core_0_TLB_cross_page_prefetch_mpki 0.06446
Core_0_TLB_cross_page_prefetch_issued 4556258
Core_0_TLB_cross_page_prefetch_lookups 4556258
Core_0_TLB_cross_page_prefetch_useful 6446
Core_0_TLB_cross_page_prefetch_useless 10
Core_0_TLB_cross_page_prefetch_late 0
Core_0_TLB_cross_page_prefetch_too_early 0
Core_0_TLB_cross_page_prefetch_too_early_among_fill 0
Core_0_TLB_cross_page_prefetch_too_early_among_useless 0
Core_0_TLB_cross_page_prefetch_accuracy 0.00141476
Core_0_TLB_cross_page_prefetch_coverage 0.00451687
BERTI TO_L1: 108133572 TO_L2: 6866582 TO_L2_BC_MSHR: 132
BERTI AVG_LAT: 64.1654 NUM_TRACK_LATENCY: 3786488 NUM_CANT_TRACK_LATENCY: 0
BERTI CROSS_PAGE 14870018 NO_CROSS_PAGE: 100130136
BERTI FOUND_BERTI: 22508969 NO_FOUND_BERTI: 7502460
BERTI AVERAGE_ISSUED: 3.93826
