[VMEM] WARNING: physical memory size is smaller than virtual memory size.

*** ChampSim Multicore Out-of-Order Simulator ***
Warmup Instructions: 50000000
Simulation Instructions: 100000000
Number of CPUs: 1
Page size: 4096
Core 0: /data2/zcq/champsim_traces_gap/cc.web-101B.champsimtrace.xz
VBerti Prefetcher
BERTI HASH ENTANGLING
BERTI IP MASK ffff
Off-chip DRAM Size: 16 GiB Channels: 1 Width: 64-bit Data Rate: 3205 MT/s
Warmup halting CPU 0 at instruction 50000004 cycle 17080896 for remainder of phase
Warmup finished CPU 0 instructions: 50000004 cycles: 17080896 cumulative IPC: 2.927 (Simulation time: 00 hr 04 min 28 sec)
Warmup complete CPU 0 instructions: 50000004 cycles: 17080896 cumulative IPC: 2.927 (Simulation time: 00 hr 04 min 28 sec)
Simulation finished CPU 0 instructions: 100000000 cycles: 152319279 cumulative IPC: 0.6565 (Simulation time: 00 hr 23 min 20 sec)
Simulation complete CPU 0 instructions: 100000000 cycles: 152319279 cumulative IPC: 0.6565 (Simulation time: 00 hr 23 min 20 sec)

ChampSim completed all CPUs

=== Simulation ===
CPU 0 runs /data2/zcq/champsim_traces_gap/cc.web-101B.champsimtrace.xz

Region of Interest Statistics

CPU 0 cumulative IPC: 0.6565 instructions: 100000000 cycles: 152319279
CPU 0 Branch Prediction Accuracy: 94.38% MPKI: 9.172 Average ROB Occupancy at Mispredict: 44.99
Branch type MPKI
BRANCH_DIRECT_JUMP: 0
BRANCH_INDIRECT: 0
BRANCH_CONDITIONAL: 9.172
BRANCH_DIRECT_CALL: 0
BRANCH_INDIRECT_CALL: 0
BRANCH_RETURN: 0

cpu0->cpu0_STLB TOTAL        ACCESS:     170145 HIT:      36305 MISS:     133840 MSHR_MERGE:          0
cpu0->cpu0_STLB LOAD         ACCESS:     170145 HIT:      36305 MISS:     133840 MSHR_MERGE:          0
cpu0->cpu0_STLB RFO          ACCESS:          0 HIT:          0 MISS:          0 MSHR_MERGE:          0
cpu0->cpu0_STLB PREFETCH     ACCESS:          0 HIT:          0 MISS:          0 MSHR_MERGE:          0
cpu0->cpu0_STLB WRITE        ACCESS:          0 HIT:          0 MISS:          0 MSHR_MERGE:          0
cpu0->cpu0_STLB TRANSLATION  ACCESS:          0 HIT:          0 MISS:          0 MSHR_MERGE:          0
cpu0->cpu0_STLB PREFETCH REQUESTED:          0 ISSUED:          0 USEFUL:          0 USELESS:          0 LATE:          0 TOO_EARLY:          0
cpu0->cpu0_STLB AVERAGE MISS LATENCY: 248 cycles
cpu0->cpu0_L2C TOTAL        ACCESS:   10319071 HIT:    2800203 MISS:    7518868 MSHR_MERGE:    2481308
cpu0->cpu0_L2C LOAD         ACCESS:    1586430 HIT:     648054 MISS:     938376 MSHR_MERGE:     256309
cpu0->cpu0_L2C RFO          ACCESS:          0 HIT:          0 MISS:          0 MSHR_MERGE:          0
cpu0->cpu0_L2C PREFETCH     ACCESS:    8656272 HIT:    2102140 MISS:    6554132 MSHR_MERGE:    2224999
cpu0->cpu0_L2C WRITE        ACCESS:      44758 HIT:      44550 MISS:        208 MSHR_MERGE:          0
cpu0->cpu0_L2C TRANSLATION  ACCESS:      31611 HIT:       5459 MISS:      26152 MSHR_MERGE:          0
cpu0->cpu0_L2C PREFETCH REQUESTED:    2685944 ISSUED:    2682126 USEFUL:     412114 USELESS:     454059 LATE:      71237 TOO_EARLY:        292
cpu0->cpu0_L2C AVERAGE MISS LATENCY: 197.5 cycles
cpu0->cpu0_L1I TOTAL        ACCESS:    6646505 HIT:    6646505 MISS:          0 MSHR_MERGE:          0
cpu0->cpu0_L1I LOAD         ACCESS:    6646505 HIT:    6646505 MISS:          0 MSHR_MERGE:          0
cpu0->cpu0_L1I RFO          ACCESS:          0 HIT:          0 MISS:          0 MSHR_MERGE:          0
cpu0->cpu0_L1I PREFETCH     ACCESS:          0 HIT:          0 MISS:          0 MSHR_MERGE:          0
cpu0->cpu0_L1I WRITE        ACCESS:          0 HIT:          0 MISS:          0 MSHR_MERGE:          0
cpu0->cpu0_L1I TRANSLATION  ACCESS:          0 HIT:          0 MISS:          0 MSHR_MERGE:          0
cpu0->cpu0_L1I PREFETCH REQUESTED:          0 ISSUED:          0 USEFUL:          0 USELESS:          0 LATE:          0 TOO_EARLY:          0
cpu0->cpu0_L1I AVERAGE MISS LATENCY: - cycles
cpu0->cpu0_L1D TOTAL        ACCESS:   46915361 HIT:   38971923 MISS:    7943438 MSHR_MERGE:     272590
cpu0->cpu0_L1D LOAD         ACCESS:   23865044 HIT:   22065322 MISS:    1799722 MSHR_MERGE:     213292
cpu0->cpu0_L1D RFO          ACCESS:          0 HIT:          0 MISS:          0 MSHR_MERGE:          0
cpu0->cpu0_L1D PREFETCH     ACCESS:   22691390 HIT:   16581077 MISS:    6110313 MSHR_MERGE:      57506
cpu0->cpu0_L1D WRITE        ACCESS:      90224 HIT:      90224 MISS:          0 MSHR_MERGE:          0
cpu0->cpu0_L1D TRANSLATION  ACCESS:     268703 HIT:     235300 MISS:      33403 MSHR_MERGE:       1792
cpu0->cpu0_L1D PREFETCH REQUESTED:   92963122 ISSUED:   22691382 USEFUL:    1558475 USELESS:     530728 LATE:     172382 TOO_EARLY:        199
cpu0->cpu0_L1D AVERAGE MISS LATENCY: 126.7 cycles
cpu0->cpu0_ITLB TOTAL        ACCESS:    5440134 HIT:    5440134 MISS:          0 MSHR_MERGE:          0
cpu0->cpu0_ITLB LOAD         ACCESS:    5440134 HIT:    5440134 MISS:          0 MSHR_MERGE:          0
cpu0->cpu0_ITLB RFO          ACCESS:          0 HIT:          0 MISS:          0 MSHR_MERGE:          0
cpu0->cpu0_ITLB PREFETCH     ACCESS:          0 HIT:          0 MISS:          0 MSHR_MERGE:          0
cpu0->cpu0_ITLB WRITE        ACCESS:          0 HIT:          0 MISS:          0 MSHR_MERGE:          0
cpu0->cpu0_ITLB TRANSLATION  ACCESS:          0 HIT:          0 MISS:          0 MSHR_MERGE:          0
cpu0->cpu0_ITLB PREFETCH REQUESTED:          0 ISSUED:          0 USEFUL:          0 USELESS:          0 LATE:          0 TOO_EARLY:          0
cpu0->cpu0_ITLB AVERAGE MISS LATENCY: - cycles
cpu0->cpu0_DTLB TOTAL        ACCESS:   41631991 HIT:   40574290 MISS:    1057701 MSHR_MERGE:     887556
cpu0->cpu0_DTLB LOAD         ACCESS:   41631991 HIT:   40574290 MISS:    1057701 MSHR_MERGE:     887556
cpu0->cpu0_DTLB RFO          ACCESS:          0 HIT:          0 MISS:          0 MSHR_MERGE:          0
cpu0->cpu0_DTLB PREFETCH     ACCESS:          0 HIT:          0 MISS:          0 MSHR_MERGE:          0
cpu0->cpu0_DTLB WRITE        ACCESS:          0 HIT:          0 MISS:          0 MSHR_MERGE:          0
cpu0->cpu0_DTLB TRANSLATION  ACCESS:          0 HIT:          0 MISS:          0 MSHR_MERGE:          0
cpu0->cpu0_DTLB PREFETCH REQUESTED:          0 ISSUED:          0 USEFUL:          0 USELESS:          0 LATE:          0 TOO_EARLY:          0
cpu0->cpu0_DTLB AVERAGE MISS LATENCY: 200.9 cycles
cpu0->LLC TOTAL        ACCESS:    5079628 HIT:     172370 MISS:    4907258 MSHR_MERGE:     214567
cpu0->LLC LOAD         ACCESS:     682067 HIT:      54498 MISS:     627569 MSHR_MERGE:      15323
cpu0->LLC RFO          ACCESS:          0 HIT:          0 MISS:          0 MSHR_MERGE:          0
cpu0->LLC PREFETCH     ACCESS:    4329131 HIT:      78543 MISS:    4250588 MSHR_MERGE:     199244
cpu0->LLC WRITE        ACCESS:      42278 HIT:      37128 MISS:       5150 MSHR_MERGE:          0
cpu0->LLC TRANSLATION  ACCESS:      26152 HIT:       2201 MISS:      23951 MSHR_MERGE:          0
cpu0->LLC PREFETCH REQUESTED:          0 ISSUED:          0 USEFUL:          0 USELESS:          0 LATE:          0 TOO_EARLY:          0
cpu0->LLC AVERAGE MISS LATENCY: 215.3 cycles

DRAM Statistics

Channel 0 RQ ROW_BUFFER_HIT:    1036762
  ROW_BUFFER_MISS:    3650737
  AVG DBUS CONGESTED CYCLE: 5.811
Channel 0 WQ ROW_BUFFER_HIT:      11062
  ROW_BUFFER_MISS:      30421
  FULL:          0
Channel 0 REFRESHES ISSUED:      12693

[ROI Statistics]
[System Configuration]
num_cpus 1
cpu_freq 4000
fetch_width 6
decode_width 6
dispatch_width 6
execute_width 6
lq_width 2
sq_width 2
retire_width 6
scheduler_size 128
branch_mispredict_penalty 15
rob_size 352
lq_size 128
sq_size 72
ifetch_buffer_size 64
decode_buffer_size 32
dispatch_buffer_size 32
register_file_size 288
decode_latency 1
dispatch_latency 1
schedule_latency 1
execute_latency 1
page_size 4096
block_size 64
core_0_itlb_set 16
core_0_itlb_way 4
core_0_itlb_rq_size 16
core_0_itlb_wq_size 16
core_0_itlb_pq_size 0
core_0_itlb_mshr_size 8
core_0_itlb_hit_latency 1
core_0_itlb_fill_latency 1
core_0_itlb_max_tag_check 2
core_0_itlb_max_fill 2
core_0_dtlb_set 16
core_0_dtlb_way 4
core_0_dtlb_rq_size 16
core_0_dtlb_wq_size 16
core_0_dtlb_pq_size 0
core_0_dtlb_mshr_size 8
core_0_dtlb_hit_latency 1
core_0_dtlb_fill_latency 1
core_0_dtlb_max_tag_check 2
core_0_dtlb_max_fill 2
core_0_stlb_set 128
core_0_stlb_way 12
core_0_stlb_rq_size 32
core_0_stlb_wq_size 32
core_0_stlb_pq_size 0
core_0_stlb_mshr_size 16
core_0_stlb_hit_latency 4
core_0_stlb_fill_latency 4
core_0_stlb_max_tag_check 1
core_0_stlb_max_fill 1
core_0_l1i_set 64
core_0_l1i_way 8
core_0_l1i_rq_size 64
core_0_l1i_wq_size 64
core_0_l1i_pq_size 32
core_0_l1i_mshr_size 8
core_0_l1i_hit_latency 2
core_0_l1i_fill_latency 2
core_0_l1i_max_tag_check 2
core_0_l1i_max_fill 2
core_0_l1d_set 64
core_0_l1d_way 12
core_0_l1d_rq_size 64
core_0_l1d_wq_size 64
core_0_l1d_pq_size 8
core_0_l1d_mshr_size 16
core_0_l1d_hit_latency 2
core_0_l1d_fill_latency 3
core_0_l1d_max_tag_check 2
core_0_l1d_max_fill 2
core_0_l2c_set 1024
core_0_l2c_way 8
core_0_l2c_rq_size 32
core_0_l2c_wq_size 32
core_0_l2c_pq_size 16
core_0_l2c_mshr_size 32
core_0_l2c_hit_latency 5
core_0_l2c_fill_latency 5
core_0_l2c_max_tag_check 1
core_0_l2c_max_fill 1
llc_set 2048
llc_way 16
llc_rq_size 32
llc_wq_size 32
llc_pq_size 32
llc_mshr_size 64
llc_hit_latency 10
llc_fill_latency 10
llc_max_tag_check 1
llc_max_fill 1
dram_channels 1
dram_ranks 1
dram_bankgroups 8
dram_banks 4
dram_rows 65536
dram_columns 1024
dram_channel_width 8
dram_rq_size 64
dram_wq_size 64
dram_size 17179869184
core_0_itlb_prefetcher no
core_0_dtlb_prefetcher no
core_0_stlb_prefetcher no
core_0_l1i_prefetcher next_line
core_0_l1d_prefetcher vberti
core_0_l2c_prefetcher ip_stride
llc_prefetcher no
llc_replacement drrip

Core_0_instructions 100000000
Core_0_cycles 152319279
Core_0_IPC 0.656516
Core_0_branch_prediction_accuracy 94.385
Core_0_branch_MPKI 9.17233
Core_0_average_ROB_occupancy_at_mispredict 44.9926

Core_0_ITLB_total_access 5440134
Core_0_ITLB_total_hit 5440134
Core_0_ITLB_total_miss 0
Core_0_ITLB_total_MPKI 0
Core_0_ITLB_total_miss_rate 0
Core_0_ITLB_demand_access 5440134
Core_0_ITLB_demand_hit 5440134
Core_0_ITLB_demand_miss 0
Core_0_ITLB_demand_MPKI 0
Core_0_ITLB_demand_miss_rate 0
Core_0_ITLB_load_access 5440134
Core_0_ITLB_load_hit 5440134
Core_0_ITLB_load_miss 0
Core_0_ITLB_load_MPKI 0
Core_0_ITLB_load_miss_rate 0
Core_0_ITLB_rfo_access 0
Core_0_ITLB_rfo_hit 0
Core_0_ITLB_rfo_miss 0
Core_0_ITLB_rfo_MPKI 0
Core_0_ITLB_rfo_miss_rate 0
Core_0_ITLB_prefetch_access 0
Core_0_ITLB_prefetch_hit 0
Core_0_ITLB_prefetch_miss 0
Core_0_ITLB_prefetch_MPKI 0
Core_0_ITLB_prefetch_miss_rate 0
Core_0_ITLB_writeback_access 0
Core_0_ITLB_writeback_hit 0
Core_0_ITLB_writeback_miss 0
Core_0_ITLB_writeback_MPKI 0
Core_0_ITLB_writeback_miss_rate 0
Core_0_ITLB_prefetch_requested 0
Core_0_ITLB_prefetch_issued 0
Core_0_ITLB_prefetch_useful 0
Core_0_ITLB_prefetch_useless 0
Core_0_ITLB_prefetch_late 0
Core_0_ITLB_prefetch_fill 0
Core_0_ITLB_prefetch_too_early 0
Core_0_ITLB_prefetch_too_early_among_fill 0
Core_0_ITLB_prefetch_too_early_among_useless 0
Core_0_ITLB_prefetch_pollution_evict 0
Core_0_ITLB_prefetch_pollution_demand 0
Core_0_ITLB_prefetch_pollution_among_prefetch_fill 0
Core_0_ITLB_prefetch_accuracy 0
Core_0_ITLB_prefetch_coverage 0

Core_0_DTLB_total_access 41631991
Core_0_DTLB_total_hit 40574290
Core_0_DTLB_total_miss 1057701
Core_0_DTLB_total_MPKI 10.577
Core_0_DTLB_total_miss_rate 0.025406
Core_0_DTLB_demand_access 41631991
Core_0_DTLB_demand_hit 40574290
Core_0_DTLB_demand_miss 1057701
Core_0_DTLB_demand_MPKI 10.577
Core_0_DTLB_demand_miss_rate 0.025406
Core_0_DTLB_load_access 41631991
Core_0_DTLB_load_hit 40574290
Core_0_DTLB_load_miss 1057701
Core_0_DTLB_load_MPKI 10.577
Core_0_DTLB_load_miss_rate 0.025406
Core_0_DTLB_rfo_access 0
Core_0_DTLB_rfo_hit 0
Core_0_DTLB_rfo_miss 0
Core_0_DTLB_rfo_MPKI 0
Core_0_DTLB_rfo_miss_rate 0
Core_0_DTLB_prefetch_access 0
Core_0_DTLB_prefetch_hit 0
Core_0_DTLB_prefetch_miss 0
Core_0_DTLB_prefetch_MPKI 0
Core_0_DTLB_prefetch_miss_rate 0
Core_0_DTLB_writeback_access 0
Core_0_DTLB_writeback_hit 0
Core_0_DTLB_writeback_miss 0
Core_0_DTLB_writeback_MPKI 0
Core_0_DTLB_writeback_miss_rate 0
Core_0_DTLB_prefetch_requested 0
Core_0_DTLB_prefetch_issued 0
Core_0_DTLB_prefetch_useful 0
Core_0_DTLB_prefetch_useless 0
Core_0_DTLB_prefetch_late 0
Core_0_DTLB_prefetch_fill 0
Core_0_DTLB_prefetch_too_early 0
Core_0_DTLB_prefetch_too_early_among_fill 0
Core_0_DTLB_prefetch_too_early_among_useless 0
Core_0_DTLB_prefetch_pollution_evict 0
Core_0_DTLB_prefetch_pollution_demand 0
Core_0_DTLB_prefetch_pollution_among_prefetch_fill 0
Core_0_DTLB_prefetch_accuracy 0
Core_0_DTLB_prefetch_coverage 0

Core_0_STLB_total_access 170145
Core_0_STLB_total_hit 36305
Core_0_STLB_total_miss 133840
Core_0_STLB_total_MPKI 1.3384
Core_0_STLB_total_miss_rate 0.786623
Core_0_STLB_demand_access 170145
Core_0_STLB_demand_hit 36305
Core_0_STLB_demand_miss 133840
Core_0_STLB_demand_MPKI 1.3384
Core_0_STLB_demand_miss_rate 0.786623
Core_0_STLB_load_access 170145
Core_0_STLB_load_hit 36305
Core_0_STLB_load_miss 133840
Core_0_STLB_load_MPKI 1.3384
Core_0_STLB_load_miss_rate 0.786623
Core_0_STLB_rfo_access 0
Core_0_STLB_rfo_hit 0
Core_0_STLB_rfo_miss 0
Core_0_STLB_rfo_MPKI 0
Core_0_STLB_rfo_miss_rate 0
Core_0_STLB_prefetch_access 0
Core_0_STLB_prefetch_hit 0
Core_0_STLB_prefetch_miss 0
Core_0_STLB_prefetch_MPKI 0
Core_0_STLB_prefetch_miss_rate 0
Core_0_STLB_writeback_access 0
Core_0_STLB_writeback_hit 0
Core_0_STLB_writeback_miss 0
Core_0_STLB_writeback_MPKI 0
Core_0_STLB_writeback_miss_rate 0
Core_0_STLB_prefetch_requested 0
Core_0_STLB_prefetch_issued 0
Core_0_STLB_prefetch_useful 0
Core_0_STLB_prefetch_useless 0
Core_0_STLB_prefetch_late 0
Core_0_STLB_prefetch_fill 0
Core_0_STLB_prefetch_too_early 0
Core_0_STLB_prefetch_too_early_among_fill 0
Core_0_STLB_prefetch_too_early_among_useless 0
Core_0_STLB_prefetch_pollution_evict 0
Core_0_STLB_prefetch_pollution_demand 0
Core_0_STLB_prefetch_pollution_among_prefetch_fill 0
Core_0_STLB_prefetch_accuracy 0
Core_0_STLB_prefetch_coverage 0

Core_0_L1I_total_access 6646505
Core_0_L1I_total_hit 6646505
Core_0_L1I_total_miss 0
Core_0_L1I_total_MPKI 0
Core_0_L1I_total_miss_rate 0
Core_0_L1I_demand_access 6646505
Core_0_L1I_demand_hit 6646505
Core_0_L1I_demand_miss 0
Core_0_L1I_demand_MPKI 0
Core_0_L1I_demand_miss_rate 0
Core_0_L1I_load_access 6646505
Core_0_L1I_load_hit 6646505
Core_0_L1I_load_miss 0
Core_0_L1I_load_MPKI 0
Core_0_L1I_load_miss_rate 0
Core_0_L1I_rfo_access 0
Core_0_L1I_rfo_hit 0
Core_0_L1I_rfo_miss 0
Core_0_L1I_rfo_MPKI 0
Core_0_L1I_rfo_miss_rate 0
Core_0_L1I_prefetch_access 0
Core_0_L1I_prefetch_hit 0
Core_0_L1I_prefetch_miss 0
Core_0_L1I_prefetch_MPKI 0
Core_0_L1I_prefetch_miss_rate 0
Core_0_L1I_writeback_access 0
Core_0_L1I_writeback_hit 0
Core_0_L1I_writeback_miss 0
Core_0_L1I_writeback_MPKI 0
Core_0_L1I_writeback_miss_rate 0
Core_0_L1I_prefetch_requested 0
Core_0_L1I_prefetch_issued 0
Core_0_L1I_prefetch_useful 0
Core_0_L1I_prefetch_useless 0
Core_0_L1I_prefetch_late 0
Core_0_L1I_prefetch_fill 0
Core_0_L1I_prefetch_too_early 0
Core_0_L1I_prefetch_too_early_among_fill 0
Core_0_L1I_prefetch_too_early_among_useless 0
Core_0_L1I_prefetch_pollution_evict 0
Core_0_L1I_prefetch_pollution_demand 0
Core_0_L1I_prefetch_pollution_among_prefetch_fill 0
Core_0_L1I_prefetch_accuracy 0
Core_0_L1I_prefetch_coverage 0

Core_0_L1D_total_access 46646658
Core_0_L1D_total_hit 38736623
Core_0_L1D_total_miss 7910035
Core_0_L1D_total_MPKI 79.1004
Core_0_L1D_total_miss_rate 0.169573
Core_0_L1D_demand_access 23865044
Core_0_L1D_demand_hit 22065322
Core_0_L1D_demand_miss 1799722
Core_0_L1D_demand_MPKI 17.9972
Core_0_L1D_demand_miss_rate 0.0754125
Core_0_L1D_load_access 23865044
Core_0_L1D_load_hit 22065322
Core_0_L1D_load_miss 1799722
Core_0_L1D_load_MPKI 17.9972
Core_0_L1D_load_miss_rate 0.0754125
Core_0_L1D_rfo_access 0
Core_0_L1D_rfo_hit 0
Core_0_L1D_rfo_miss 0
Core_0_L1D_rfo_MPKI 0
Core_0_L1D_rfo_miss_rate 0
Core_0_L1D_prefetch_access 22691390
Core_0_L1D_prefetch_hit 16581077
Core_0_L1D_prefetch_miss 6110313
Core_0_L1D_prefetch_MPKI 61.1031
Core_0_L1D_prefetch_miss_rate 0.269279
Core_0_L1D_writeback_access 90224
Core_0_L1D_writeback_hit 90224
Core_0_L1D_writeback_miss 0
Core_0_L1D_writeback_MPKI 0
Core_0_L1D_writeback_miss_rate 0
Core_0_L1D_prefetch_requested 92963122
Core_0_L1D_prefetch_issued 22691382
Core_0_L1D_prefetch_useful 1558475
Core_0_L1D_prefetch_useless 530728
Core_0_L1D_prefetch_late 172382
Core_0_L1D_prefetch_fill 1916873
Core_0_L1D_prefetch_too_early 199
Core_0_L1D_prefetch_too_early_among_fill 0.000103815
Core_0_L1D_prefetch_too_early_among_useless 0.000374957
Core_0_L1D_prefetch_pollution_evict 37773
Core_0_L1D_prefetch_pollution_demand 37721
Core_0_L1D_prefetch_pollution_among_prefetch_fill 0.0197055
Core_0_L1D_prefetch_accuracy 0.0686814
Core_0_L1D_prefetch_coverage 0.464081

Core_0_L2C_total_access 10287460
Core_0_L2C_total_hit 2794744
Core_0_L2C_total_miss 7492716
Core_0_L2C_total_MPKI 74.9272
Core_0_L2C_total_miss_rate 0.728335
Core_0_L2C_demand_access 1586430
Core_0_L2C_demand_hit 648054
Core_0_L2C_demand_miss 938376
Core_0_L2C_demand_MPKI 9.38376
Core_0_L2C_demand_miss_rate 0.591502
Core_0_L2C_load_access 1586430
Core_0_L2C_load_hit 648054
Core_0_L2C_load_miss 938376
Core_0_L2C_load_MPKI 9.38376
Core_0_L2C_load_miss_rate 0.591502
Core_0_L2C_rfo_access 0
Core_0_L2C_rfo_hit 0
Core_0_L2C_rfo_miss 0
Core_0_L2C_rfo_MPKI 0
Core_0_L2C_rfo_miss_rate 0
Core_0_L2C_prefetch_access 8656272
Core_0_L2C_prefetch_hit 2102140
Core_0_L2C_prefetch_miss 6554132
Core_0_L2C_prefetch_MPKI 65.5413
Core_0_L2C_prefetch_miss_rate 0.757154
Core_0_L2C_writeback_access 44758
Core_0_L2C_writeback_hit 44550
Core_0_L2C_writeback_miss 208
Core_0_L2C_writeback_MPKI 0.00208
Core_0_L2C_writeback_miss_rate 0.00464721
Core_0_L2C_prefetch_requested 2685944
Core_0_L2C_prefetch_issued 2682126
Core_0_L2C_prefetch_useful 412114
Core_0_L2C_prefetch_useless 454059
Core_0_L2C_prefetch_late 71237
Core_0_L2C_prefetch_fill 3716832
Core_0_L2C_prefetch_too_early 292
Core_0_L2C_prefetch_too_early_among_fill 7.85615e-05
Core_0_L2C_prefetch_too_early_among_useless 0.000643088
Core_0_L2C_prefetch_pollution_evict 27572
Core_0_L2C_prefetch_pollution_demand 27475
Core_0_L2C_prefetch_pollution_among_prefetch_fill 0.00741815
Core_0_L2C_prefetch_accuracy 0.153652
Core_0_L2C_prefetch_coverage 0.305159

Core_0_LLC_total_access 5053476
Core_0_LLC_total_hit 170169
Core_0_LLC_total_miss 4883307
Core_0_LLC_total_MPKI 48.8331
Core_0_LLC_total_miss_rate 0.966326
Core_0_LLC_demand_access 682067
Core_0_LLC_demand_hit 54498
Core_0_LLC_demand_miss 627569
Core_0_LLC_demand_MPKI 6.27569
Core_0_LLC_demand_miss_rate 0.920099
Core_0_LLC_load_access 682067
Core_0_LLC_load_hit 54498
Core_0_LLC_load_miss 627569
Core_0_LLC_load_MPKI 6.27569
Core_0_LLC_load_miss_rate 0.920099
Core_0_LLC_rfo_access 0
Core_0_LLC_rfo_hit 0
Core_0_LLC_rfo_miss 0
Core_0_LLC_rfo_MPKI 0
Core_0_LLC_rfo_miss_rate 0
Core_0_LLC_prefetch_access 4329131
Core_0_LLC_prefetch_hit 78543
Core_0_LLC_prefetch_miss 4250588
Core_0_LLC_prefetch_MPKI 42.5059
Core_0_LLC_prefetch_miss_rate 0.981857
Core_0_LLC_writeback_access 42278
Core_0_LLC_writeback_hit 37128
Core_0_LLC_writeback_miss 5150
Core_0_LLC_writeback_MPKI 0.0515
Core_0_LLC_writeback_miss_rate 0.121813
Core_0_LLC_prefetch_requested 0
Core_0_LLC_prefetch_issued 0
Core_0_LLC_prefetch_useful 0
Core_0_LLC_prefetch_useless 0
Core_0_LLC_prefetch_late 0
Core_0_LLC_prefetch_fill 4036012
Core_0_LLC_prefetch_too_early 0
Core_0_LLC_prefetch_too_early_among_fill 0
Core_0_LLC_prefetch_too_early_among_useless 0
Core_0_LLC_prefetch_pollution_evict 9071
Core_0_LLC_prefetch_pollution_demand 9071
Core_0_LLC_prefetch_pollution_among_prefetch_fill 0.00224752
Core_0_LLC_prefetch_accuracy 0
Core_0_LLC_prefetch_coverage 0

[DRAM Statistics]
Channel_0_RQ_row_buffer_hit 1036762
Channel_0_RQ_row_buffer_miss 3650737
Channel_0_WQ_row_buffer_hit 11062
Channel_0_WQ_row_buffer_miss 30421
Channel_0_WQ_full 0
Channel_0_dbus_congested 11107587
DRAM_total_RQ_row_buffer_hit 1036762
DRAM_total_RQ_row_buffer_miss 3650737
DRAM_total_WQ_row_buffer_hit 11062
DRAM_total_WQ_row_buffer_miss 30421
DRAM_total_WQ_full 0
DRAM_total_dbus_congested 11107587
DRAM_avg_congested_cycle 5.81062

====== DRAM_RQ_TRAFFIC ========
DRAM_RQ_READ_TRAFFIC_BREAKDOWN:
data_demand_read.count = 612246
data_demand_read.share = 13.06%

inst_demand_read.count = 0
inst_demand_read.share = 0.00%

cache_inst_prefetch.count = 0
cache_inst_prefetch.share = 0.00%

cache_data_prefetch.count = 4051344
cache_data_prefetch.share = 86.43%

stlb_data_demand.count = 10485
stlb_data_demand.share = 0.22%

stlb_inst_demand.count = 0
stlb_inst_demand.share = 0.00%

stlb_l1i_pref.count = 0
stlb_l1i_pref.share = 0.00%

stlb_l1d_pref.count = 13466
stlb_l1d_pref.share = 0.29%

DRAM_RQ_READ_TRAFFIC_SUMMARY:
cache_demand.count = 612246
cache_demand.share = 13.06%

cache_prefetch.count = 4051344
cache_prefetch.share = 86.43%

stlb_demand.count = 10485
stlb_demand.share = 0.22%

stlb_prefetch.count = 13466
stlb_prefetch.share = 0.29%

DRAM_RQ_READ_TRAFFIC_DEBUG:
total_classified_read.count = 4687541
unclassified_read.count = 0
total_read_with_other.count = 4687541

classified_plus_unclassified_check.count = 4687541
dram_rq_read_total_observed.count = 4687541
dram_rq_read_total_observed.per_1K_instructions = 46.8754

STLB_MISS_PTW_DRAM_TOUCH_BREAKDOWN:
stlb_miss_total.count = 133840

stlb_miss_touch_dram.count = 23637
stlb_miss_touch_dram.share = 17.66%

stlb_miss_no_dram_touch.count = 110203
stlb_miss_no_dram_touch.share = 82.34%

STLB_MISS_PTW_DRAM_TOUCH_DEBUG:
stlb_miss_touch_plus_no_touch.count = 133840
stlb_miss_total_check.count = 133840

======STLB miss causes ========
Core_0_STLB_miss_cause_breakdown
Core_0_STLB_cause_Demand_Data_miss 26444
Core_0_STLB_cause_Demand_Data_miss_rate 0.15542
Core_0_STLB_cause_Demand_Instruction_miss 0
Core_0_STLB_cause_Demand_Instruction_miss_rate 0
Core_0_STLB_cause_L1D_Prefetch_miss 107396
Core_0_STLB_cause_L1D_Prefetch_miss_rate 0.631203
Core_0_STLB_cause_L1D_Prefetch_Same_Page_miss 0
Core_0_STLB_cause_L1D_Prefetch_Same_Page_miss_rate 0
Core_0_STLB_cause_L1D_Prefetch_Cross_Page_miss 107396
Core_0_STLB_cause_L1D_Prefetch_Cross_Page_miss_rate 0.631203
Core_0_STLB_cause_L1I_Prefetch_miss 0
Core_0_STLB_cause_L1I_Prefetch_miss_rate 0
Core_0_STLB_cause_Other_miss 0
Core_0_STLB_cause_Other_miss_rate 0
Core_0_STLB_Demand_miss 26444
Core_0_STLB_Demand_miss_rate 0.15542
Core_0_STLB_L1D_Prefetch_miss 107396
Core_0_STLB_L1D_Prefetch_miss_rate 0.631203
Core_0_STLB_Other_miss 0
Core_0_STLB_Other_miss_rate 0

========== vBerti-TLB Cross-page Flow Stats ==========

Core_0_vBerti_Requested 92963122
Core_0_vBerti_Cross_page_prefetch_in_Requested 14875676
Core_0_vBerti_Same_page_prefetch_in_Requested 78087446
Core_0_vBerti_Cross_page_prefetch_of_Requested 0.160017
Core_0_vBerti_Issued 22691382
Core_0_vBerti_InPQ_Same_page_prefetch 19595208
Core_0_vBerti_InPQ_Cross_page_prefetch 3096174
Core_0_vBerti_PQ_Drop_Rate 0.75591
Core_0_vBerti_InPQ_Cross_page_prefetch_of_Requested 0.0333054
Core_0_vBerti_Cross_page_PQ_Drop_rate 0.791863
Core_0_vBerti_Cross_page_prefetch_of_Issued 0.136447
Core_0_CP_PF_PQFULL_drop 11779502
Core_0_CP_PF_PQFULL_TLB_rescue_enqueued 6638101
Core_0_CP_PF_PQFULL_TLB_rescue_issued 6638101
Core_0_CP_PF_PQFULL_TLB_rescue_translated 6638101

========= DTLB_vBerti Prefetch Stats =========
Core_0_DTLB_demand_access 23011882
Core_0_DTLB_demand_hit 22857794
Core_0_DTLB_demand_miss 154088
Core_0_DTLB_demand_mshr_merge 92003
Core_0_DTLB_demand_fill 75003
Core_0_DTLB_demand_miss_rate 0.00669602
Core_0_DTLB_demand_mpki 1.54088
Core_0_DTLB_vberti_prefetch_access 18620109
Core_0_DTLB_vberti_prefetch_hit 17716496
Core_0_DTLB_vberti_prefetch_miss 903613
Core_0_DTLB_vberti_prefetch_mshr_merge 795553
Core_0_DTLB_vberti_prefetch_fill 95142
Core_0_DTLB_vberti_prefetch_miss_rate 0.0485289
Core_0_DTLB_vberti_prefetch_mpki 9.03613

=== DTLB_vBerti Same/Cross-page Prefetch Stats ===
Core_0_DTLB_vberti_same_page_prefetch 13219181
Core_0_DTLB_vberti_same_page_prefetch_hit 13219160
Core_0_DTLB_vberti_same_page_prefetch_miss 21
Core_0_DTLB_vberti_same_page_prefetch_mshr_merge 11
Core_0_DTLB_vberti_same_page_prefetch_fill 8
Core_0_DTLB_vberti_same_page_prefetch_miss_rate 1.5886e-06
Core_0_DTLB_vberti_same_page_prefetch_mpki 0.00021
Core_0_DTLB_vberti_cross_page_prefetch 5400928
Core_0_DTLB_vberti_cross_page_prefetch_hit 4497336
Core_0_DTLB_vberti_cross_page_prefetch_miss 903592
Core_0_DTLB_vberti_cross_page_prefetch_mshr_merge 795542
Core_0_DTLB_vberti_cross_page_prefetch_fill 95134
Core_0_DTLB_vberti_cross_page_prefetch_miss_rate 0.167303
Core_0_DTLB_vberti_cross_page_prefetch_mpki 9.03592
Core_0_DTLB_same_page_prefetch_miss_rate 1.5886e-06
Core_0_DTLB_same_page_prefetch_mpki 0.00021
Core_0_DTLB_cross_page_prefetch_miss_rate 0.167303
Core_0_DTLB_cross_page_prefetch_mpki 9.03592
Core_0_DTLB_cross_page_prefetch_issued 5400928
Core_0_DTLB_cross_page_prefetch_lookups 5400928
Core_0_DTLB_cross_page_prefetch_useful 107687
Core_0_DTLB_cross_page_prefetch_useless 363
Core_0_DTLB_cross_page_prefetch_late 12916
Core_0_DTLB_cross_page_prefetch_too_early 59
Core_0_DTLB_cross_page_prefetch_too_early_among_fill 0.000620178
Core_0_DTLB_cross_page_prefetch_too_early_among_useless 0.162534
Core_0_DTLB_cross_page_prefetch_pollution_evict 9581
Core_0_DTLB_cross_page_prefetch_pollution_demand 9333
Core_0_DTLB_cross_page_prefetch_pollution_among_prefetch_fill 0.100711
Core_0_DTLB_cross_page_prefetch_accuracy 0.0199386
Core_0_DTLB_cross_page_prefetch_coverage 0.411372

========= STLB_vBerti Prefetch Stats =========
Core_0_STLB_demand_access 62085
Core_0_STLB_demand_hit 35641
Core_0_STLB_demand_miss 26444
Core_0_STLB_demand_mshr_merge 0
Core_0_STLB_demand_fill 26444
Core_0_STLB_demand_miss_rate 0.425932
Core_0_STLB_demand_mpki 0.26444
Core_0_STLB_vberti_prefetch_access 108060
Core_0_STLB_vberti_prefetch_hit 664
Core_0_STLB_vberti_prefetch_miss 107396
Core_0_STLB_vberti_prefetch_mshr_merge 0
Core_0_STLB_vberti_prefetch_fill 107396
Core_0_STLB_vberti_prefetch_miss_rate 0.993855
Core_0_STLB_vberti_prefetch_mpki 1.07396

=== STLB_vBerti Same/Cross-page Prefetch Stats ===
Core_0_STLB_vberti_same_page_prefetch 10
Core_0_STLB_vberti_same_page_prefetch_hit 10
Core_0_STLB_vberti_same_page_prefetch_miss 0
Core_0_STLB_vberti_same_page_prefetch_mshr_merge 0
Core_0_STLB_vberti_same_page_prefetch_fill 0
Core_0_STLB_vberti_same_page_prefetch_miss_rate 0
Core_0_STLB_vberti_same_page_prefetch_mpki 0
Core_0_STLB_vberti_cross_page_prefetch 108050
Core_0_STLB_vberti_cross_page_prefetch_hit 654
Core_0_STLB_vberti_cross_page_prefetch_miss 107396
Core_0_STLB_vberti_cross_page_prefetch_mshr_merge 0
Core_0_STLB_vberti_cross_page_prefetch_fill 107396
Core_0_STLB_vberti_cross_page_prefetch_miss_rate 0.993947
Core_0_STLB_vberti_cross_page_prefetch_mpki 1.07396
Core_0_STLB_same_page_prefetch_miss_rate 0
Core_0_STLB_same_page_prefetch_mpki 0
Core_0_STLB_cross_page_prefetch_miss_rate 0.993947
Core_0_STLB_cross_page_prefetch_mpki 1.07396
Core_0_STLB_cross_page_prefetch_issued 108050
Core_0_STLB_cross_page_prefetch_lookups 108050
Core_0_STLB_cross_page_prefetch_useful 597
Core_0_STLB_cross_page_prefetch_useless 106799
Core_0_STLB_cross_page_prefetch_late 0
Core_0_STLB_cross_page_prefetch_too_early 40
Core_0_STLB_cross_page_prefetch_too_early_among_fill 0.000372453
Core_0_STLB_cross_page_prefetch_too_early_among_useless 0.000374535
Core_0_STLB_cross_page_prefetch_pollution_evict 1594
Core_0_STLB_cross_page_prefetch_pollution_demand 1536
Core_0_STLB_cross_page_prefetch_pollution_among_prefetch_fill 0.0148423
Core_0_STLB_cross_page_prefetch_accuracy 0.00552522
Core_0_STLB_cross_page_prefetch_coverage 0.0220776

========= STLB Cross-page Prefetch Buffer Stats =========
Core_0_STLB_raw_demand_miss 26444
Core_0_CP_PB_insert 0
Core_0_CP_PB_demand_hit 0
Core_0_STLB_PB_demand_miss 26444
Core_0_CP_PB_coverage 0
Core_0_STLB_raw_demand_mpki 0.26444
Core_0_STLB_PB_demand_mpki 0.26444
Core_0_CP_PB_demand_hit_mpki 0

Core_0_TLB_demand_miss_rate 0.00114915
Core_0_TLB_demand_mpki 0.26444
Core_0_TLB_same_page_prefetch_miss_rate 0
Core_0_TLB_same_page_prefetch_mpki 0
Core_0_TLB_cross_page_prefetch_miss_rate 0.0198847
Core_0_TLB_cross_page_prefetch_mpki 1.07396
Core_0_TLB_cross_page_prefetch_issued 5400928
Core_0_TLB_cross_page_prefetch_lookups 5400928
Core_0_TLB_cross_page_prefetch_useful 107662
Core_0_TLB_cross_page_prefetch_useless 280
Core_0_TLB_cross_page_prefetch_late 12916
Core_0_TLB_cross_page_prefetch_too_early 49
Core_0_TLB_cross_page_prefetch_too_early_among_fill 0.000241939
Core_0_TLB_cross_page_prefetch_too_early_among_useless 0.175
Core_0_TLB_cross_page_prefetch_accuracy 0.019934
Core_0_TLB_cross_page_prefetch_coverage 0.802813
BERTI TO_L1: 96037668 TO_L2: 33071574 TO_L2_BC_MSHR: 6232506
BERTI AVG_LAT: 115.981 NUM_TRACK_LATENCY: 5640915 NUM_CANT_TRACK_LATENCY: 0
BERTI CROSS_PAGE 20752788 NO_CROSS_PAGE: 108356454
BERTI FOUND_BERTI: 20517026 NO_FOUND_BERTI: 11858131
BERTI AVERAGE_ISSUED: 3.41383
