[VMEM] WARNING: physical memory size is smaller than virtual memory size.

*** ChampSim Multicore Out-of-Order Simulator ***
Warmup Instructions: 50000000
Simulation Instructions: 100000000
Number of CPUs: 1
Page size: 4096
Core 0: /data0/tzh/champsim_traces/QMM/compute_fp_7_new.xz
VBerti Prefetcher
BERTI HASH ENTANGLING
BERTI IP MASK ffff
Off-chip DRAM Size: 16 GiB Channels: 1 Width: 64-bit Data Rate: 3205 MT/s
*** Reached end of trace: (0, "/data0/tzh/champsim_traces/QMM/compute_fp_7_new.xz")
[BTB] WARNING: target of return is a lower address than the corresponding call. This is usually a problem with your trace.
Warmup halting CPU 0 at instruction 50000005 cycle 14354973 for remainder of phase
Warmup finished CPU 0 instructions: 50000005 cycles: 14354973 cumulative IPC: 3.483 (Simulation time: 00 hr 03 min 32 sec)
Warmup complete CPU 0 instructions: 50000005 cycles: 14354973 cumulative IPC: 3.483 (Simulation time: 00 hr 03 min 32 sec)
*** Reached end of trace: (0, "/data0/tzh/champsim_traces/QMM/compute_fp_7_new.xz")
[BTB] WARNING: target of return is a lower address than the corresponding call. This is usually a problem with your trace.
*** Reached end of trace: (0, "/data0/tzh/champsim_traces/QMM/compute_fp_7_new.xz")
[BTB] WARNING: target of return is a lower address than the corresponding call. This is usually a problem with your trace.
*** Reached end of trace: (0, "/data0/tzh/champsim_traces/QMM/compute_fp_7_new.xz")
[BTB] WARNING: target of return is a lower address than the corresponding call. This is usually a problem with your trace.
Simulation finished CPU 0 instructions: 100000002 cycles: 220804503 cumulative IPC: 0.4529 (Simulation time: 00 hr 27 min 18 sec)
Simulation complete CPU 0 instructions: 100000002 cycles: 220804503 cumulative IPC: 0.4529 (Simulation time: 00 hr 27 min 18 sec)

ChampSim completed all CPUs

=== Simulation ===
CPU 0 runs /data0/tzh/champsim_traces/QMM/compute_fp_7_new.xz

Region of Interest Statistics

CPU 0 cumulative IPC: 0.4529 instructions: 100000002 cycles: 220804503
CPU 0 Branch Prediction Accuracy: 93.53% MPKI: 10.54 Average ROB Occupancy at Mispredict: 67.08
Branch type MPKI
BRANCH_DIRECT_JUMP: 0
BRANCH_INDIRECT: 7e-05
BRANCH_CONDITIONAL: 10.54
BRANCH_DIRECT_CALL: 0
BRANCH_INDIRECT_CALL: 0
BRANCH_RETURN: 3e-05

cpu0->cpu0_STLB TOTAL        ACCESS:    1550397 HIT:    1351377 MISS:     199020 MSHR_MERGE:          0
cpu0->cpu0_STLB LOAD         ACCESS:    1550397 HIT:    1351377 MISS:     199020 MSHR_MERGE:          0
cpu0->cpu0_STLB RFO          ACCESS:          0 HIT:          0 MISS:          0 MSHR_MERGE:          0
cpu0->cpu0_STLB PREFETCH     ACCESS:          0 HIT:          0 MISS:          0 MSHR_MERGE:          0
cpu0->cpu0_STLB WRITE        ACCESS:          0 HIT:          0 MISS:          0 MSHR_MERGE:          0
cpu0->cpu0_STLB TRANSLATION  ACCESS:          0 HIT:          0 MISS:          0 MSHR_MERGE:          0
cpu0->cpu0_STLB PREFETCH REQUESTED:          0 ISSUED:          0 USEFUL:          0 USELESS:          0 LATE:          0 TOO_EARLY:          0
cpu0->cpu0_STLB AVERAGE MISS LATENCY: 61.05 cycles
cpu0->cpu0_L2C TOTAL        ACCESS:   15829728 HIT:    8422572 MISS:    7407156 MSHR_MERGE:    1391174
cpu0->cpu0_L2C LOAD         ACCESS:    4320524 HIT:    1755294 MISS:    2565230 MSHR_MERGE:     123853
cpu0->cpu0_L2C RFO          ACCESS:    1205543 HIT:     341399 MISS:     864144 MSHR_MERGE:      49846
cpu0->cpu0_L2C PREFETCH     ACCESS:    6923548 HIT:    2999490 MISS:    3924058 MSHR_MERGE:    1217475
cpu0->cpu0_L2C WRITE        ACCESS:    3282142 HIT:    3281970 MISS:        172 MSHR_MERGE:          0
cpu0->cpu0_L2C TRANSLATION  ACCESS:      97971 HIT:      44419 MISS:      53552 MSHR_MERGE:          0
cpu0->cpu0_L2C PREFETCH REQUESTED:    2460483 ISSUED:    2436820 USEFUL:     546938 USELESS:     199043 LATE:      94136 TOO_EARLY:      27303
cpu0->cpu0_L2C AVERAGE MISS LATENCY: 197.1 cycles
cpu0->cpu0_L1I TOTAL        ACCESS:    5122901 HIT:    5116263 MISS:       6638 MSHR_MERGE:       2726
cpu0->cpu0_L1I LOAD         ACCESS:    5122901 HIT:    5116263 MISS:       6638 MSHR_MERGE:       2726
cpu0->cpu0_L1I RFO          ACCESS:          0 HIT:          0 MISS:          0 MSHR_MERGE:          0
cpu0->cpu0_L1I PREFETCH     ACCESS:          0 HIT:          0 MISS:          0 MSHR_MERGE:          0
cpu0->cpu0_L1I WRITE        ACCESS:          0 HIT:          0 MISS:          0 MSHR_MERGE:          0
cpu0->cpu0_L1I TRANSLATION  ACCESS:          0 HIT:          0 MISS:          0 MSHR_MERGE:          0
cpu0->cpu0_L1I PREFETCH REQUESTED:          0 ISSUED:          0 USEFUL:          0 USELESS:          0 LATE:          0 TOO_EARLY:          0
cpu0->cpu0_L1I AVERAGE MISS LATENCY: 286.9 cycles
cpu0->cpu0_L1D TOTAL        ACCESS:   46641724 HIT:   32973906 MISS:   13667818 MSHR_MERGE:    3507744
cpu0->cpu0_L1D LOAD         ACCESS:   19117028 HIT:   13130325 MISS:    5986703 MSHR_MERGE:    1669927
cpu0->cpu0_L1D RFO          ACCESS:          0 HIT:          0 MISS:          0 MSHR_MERGE:          0
cpu0->cpu0_L1D PREFETCH     ACCESS:   16785509 HIT:   12135277 MISS:    4650232 MSHR_MERGE:     110571
cpu0->cpu0_L1D WRITE        ACCESS:   10344587 HIT:    7413902 MISS:    2930685 MSHR_MERGE:    1725019
cpu0->cpu0_L1D TRANSLATION  ACCESS:     394600 HIT:     294402 MISS:     100198 MSHR_MERGE:       2227
cpu0->cpu0_L1D PREFETCH REQUESTED:  159376429 ISSUED:   16785504 USEFUL:    1208696 USELESS:     254749 LATE:      76978 TOO_EARLY:      23374
cpu0->cpu0_L1D AVERAGE MISS LATENCY: 131.6 cycles
cpu0->cpu0_ITLB TOTAL        ACCESS:    4558195 HIT:    4557287 MISS:        908 MSHR_MERGE:        633
cpu0->cpu0_ITLB LOAD         ACCESS:    4558195 HIT:    4557287 MISS:        908 MSHR_MERGE:        633
cpu0->cpu0_ITLB RFO          ACCESS:          0 HIT:          0 MISS:          0 MSHR_MERGE:          0
cpu0->cpu0_ITLB PREFETCH     ACCESS:          0 HIT:          0 MISS:          0 MSHR_MERGE:          0
cpu0->cpu0_ITLB WRITE        ACCESS:          0 HIT:          0 MISS:          0 MSHR_MERGE:          0
cpu0->cpu0_ITLB TRANSLATION  ACCESS:          0 HIT:          0 MISS:          0 MSHR_MERGE:          0
cpu0->cpu0_ITLB PREFETCH REQUESTED:          0 ISSUED:          0 USEFUL:          0 USELESS:          0 LATE:          0 TOO_EARLY:          0
cpu0->cpu0_ITLB AVERAGE MISS LATENCY: 254.3 cycles
cpu0->cpu0_DTLB TOTAL        ACCESS:   42199671 HIT:   40064852 MISS:    2134819 MSHR_MERGE:     584697
cpu0->cpu0_DTLB LOAD         ACCESS:   42199671 HIT:   40064852 MISS:    2134819 MSHR_MERGE:     584697
cpu0->cpu0_DTLB RFO          ACCESS:          0 HIT:          0 MISS:          0 MSHR_MERGE:          0
cpu0->cpu0_DTLB PREFETCH     ACCESS:          0 HIT:          0 MISS:          0 MSHR_MERGE:          0
cpu0->cpu0_DTLB WRITE        ACCESS:          0 HIT:          0 MISS:          0 MSHR_MERGE:          0
cpu0->cpu0_DTLB TRANSLATION  ACCESS:          0 HIT:          0 MISS:          0 MSHR_MERGE:          0
cpu0->cpu0_DTLB PREFETCH REQUESTED:          0 ISSUED:          0 USEFUL:          0 USELESS:          0 LATE:          0 TOO_EARLY:          0
cpu0->cpu0_DTLB AVERAGE MISS LATENCY: 12.93 cycles
cpu0->LLC TOTAL        ACCESS:    8290215 HIT:    3756279 MISS:    4533936 MSHR_MERGE:     107657
cpu0->LLC LOAD         ACCESS:    2441363 HIT:    1019798 MISS:    1421565 MSHR_MERGE:      11234
cpu0->LLC RFO          ACCESS:     814295 HIT:     263444 MISS:     550851 MSHR_MERGE:       2006
cpu0->LLC PREFETCH     ACCESS:    2706500 HIT:     698264 MISS:    2008236 MSHR_MERGE:      94417
cpu0->LLC WRITE        ACCESS:    2274505 HIT:    1747334 MISS:     527171 MSHR_MERGE:          0
cpu0->LLC TRANSLATION  ACCESS:      53552 HIT:      27439 MISS:      26113 MSHR_MERGE:          0
cpu0->LLC PREFETCH REQUESTED:          0 ISSUED:          0 USEFUL:          0 USELESS:          0 LATE:          0 TOO_EARLY:          0
cpu0->LLC AVERAGE MISS LATENCY: 235.2 cycles

DRAM Statistics

Channel 0 RQ ROW_BUFFER_HIT:     149222
  ROW_BUFFER_MISS:    3746069
  AVG DBUS CONGESTED CYCLE: 6.765
Channel 0 WQ ROW_BUFFER_HIT:     219395
  ROW_BUFFER_MISS:    1002353
  FULL:       3020
Channel 0 REFRESHES ISSUED:      18400

[ROI Statistics]
[System Configuration]
num_cpus 1
cpu_freq 4000
fetch_width 6
decode_width 6
dispatch_width 6
execute_width 6
lq_width 2
sq_width 2
retire_width 6
scheduler_size 128
branch_mispredict_penalty 15
rob_size 352
lq_size 128
sq_size 72
ifetch_buffer_size 64
decode_buffer_size 32
dispatch_buffer_size 32
register_file_size 288
decode_latency 1
dispatch_latency 1
schedule_latency 1
execute_latency 1
page_size 4096
block_size 64
core_0_itlb_set 16
core_0_itlb_way 4
core_0_itlb_rq_size 16
core_0_itlb_wq_size 16
core_0_itlb_pq_size 0
core_0_itlb_mshr_size 8
core_0_itlb_hit_latency 1
core_0_itlb_fill_latency 1
core_0_itlb_max_tag_check 2
core_0_itlb_max_fill 2
core_0_dtlb_set 16
core_0_dtlb_way 4
core_0_dtlb_rq_size 16
core_0_dtlb_wq_size 16
core_0_dtlb_pq_size 0
core_0_dtlb_mshr_size 8
core_0_dtlb_hit_latency 1
core_0_dtlb_fill_latency 1
core_0_dtlb_max_tag_check 2
core_0_dtlb_max_fill 2
core_0_stlb_set 128
core_0_stlb_way 12
core_0_stlb_rq_size 32
core_0_stlb_wq_size 32
core_0_stlb_pq_size 0
core_0_stlb_mshr_size 16
core_0_stlb_hit_latency 4
core_0_stlb_fill_latency 4
core_0_stlb_max_tag_check 1
core_0_stlb_max_fill 1
core_0_l1i_set 64
core_0_l1i_way 8
core_0_l1i_rq_size 64
core_0_l1i_wq_size 64
core_0_l1i_pq_size 32
core_0_l1i_mshr_size 8
core_0_l1i_hit_latency 2
core_0_l1i_fill_latency 2
core_0_l1i_max_tag_check 2
core_0_l1i_max_fill 2
core_0_l1d_set 64
core_0_l1d_way 12
core_0_l1d_rq_size 64
core_0_l1d_wq_size 64
core_0_l1d_pq_size 8
core_0_l1d_mshr_size 16
core_0_l1d_hit_latency 2
core_0_l1d_fill_latency 3
core_0_l1d_max_tag_check 2
core_0_l1d_max_fill 2
core_0_l2c_set 1024
core_0_l2c_way 8
core_0_l2c_rq_size 32
core_0_l2c_wq_size 32
core_0_l2c_pq_size 16
core_0_l2c_mshr_size 32
core_0_l2c_hit_latency 5
core_0_l2c_fill_latency 5
core_0_l2c_max_tag_check 1
core_0_l2c_max_fill 1
llc_set 2048
llc_way 16
llc_rq_size 32
llc_wq_size 32
llc_pq_size 32
llc_mshr_size 64
llc_hit_latency 10
llc_fill_latency 10
llc_max_tag_check 1
llc_max_fill 1
dram_channels 1
dram_ranks 1
dram_bankgroups 8
dram_banks 4
dram_rows 65536
dram_columns 1024
dram_channel_width 8
dram_rq_size 64
dram_wq_size 64
dram_size 17179869184
core_0_itlb_prefetcher no
core_0_dtlb_prefetcher no
core_0_stlb_prefetcher no
core_0_l1i_prefetcher next_line
core_0_l1d_prefetcher vberti
core_0_l2c_prefetcher ip_stride
llc_prefetcher no
llc_replacement drrip

Core_0_instructions 100000002
Core_0_cycles 220804503
Core_0_IPC 0.452889
Core_0_branch_prediction_accuracy 93.5273
Core_0_branch_MPKI 10.5389
Core_0_average_ROB_occupancy_at_mispredict 67.0824

Core_0_ITLB_total_access 4558195
Core_0_ITLB_total_hit 4557287
Core_0_ITLB_total_miss 908
Core_0_ITLB_total_MPKI 0.00908
Core_0_ITLB_total_miss_rate 0.000199202
Core_0_ITLB_demand_access 4558195
Core_0_ITLB_demand_hit 4557287
Core_0_ITLB_demand_miss 908
Core_0_ITLB_demand_MPKI 0.00908
Core_0_ITLB_demand_miss_rate 0.000199202
Core_0_ITLB_load_access 4558195
Core_0_ITLB_load_hit 4557287
Core_0_ITLB_load_miss 908
Core_0_ITLB_load_MPKI 0.00908
Core_0_ITLB_load_miss_rate 0.000199202
Core_0_ITLB_rfo_access 0
Core_0_ITLB_rfo_hit 0
Core_0_ITLB_rfo_miss 0
Core_0_ITLB_rfo_MPKI 0
Core_0_ITLB_rfo_miss_rate 0
Core_0_ITLB_prefetch_access 0
Core_0_ITLB_prefetch_hit 0
Core_0_ITLB_prefetch_miss 0
Core_0_ITLB_prefetch_MPKI 0
Core_0_ITLB_prefetch_miss_rate 0
Core_0_ITLB_writeback_access 0
Core_0_ITLB_writeback_hit 0
Core_0_ITLB_writeback_miss 0
Core_0_ITLB_writeback_MPKI 0
Core_0_ITLB_writeback_miss_rate 0
Core_0_ITLB_prefetch_requested 0
Core_0_ITLB_prefetch_issued 0
Core_0_ITLB_prefetch_useful 0
Core_0_ITLB_prefetch_useless 0
Core_0_ITLB_prefetch_late 0
Core_0_ITLB_prefetch_fill 0
Core_0_ITLB_prefetch_too_early 0
Core_0_ITLB_prefetch_too_early_among_fill 0
Core_0_ITLB_prefetch_too_early_among_useless 0
Core_0_ITLB_prefetch_pollution_evict 0
Core_0_ITLB_prefetch_pollution_demand 0
Core_0_ITLB_prefetch_pollution_among_prefetch_fill 0
Core_0_ITLB_prefetch_accuracy 0
Core_0_ITLB_prefetch_coverage 0

Core_0_DTLB_total_access 42199671
Core_0_DTLB_total_hit 40064852
Core_0_DTLB_total_miss 2134819
Core_0_DTLB_total_MPKI 21.3482
Core_0_DTLB_total_miss_rate 0.0505885
Core_0_DTLB_demand_access 42199671
Core_0_DTLB_demand_hit 40064852
Core_0_DTLB_demand_miss 2134819
Core_0_DTLB_demand_MPKI 21.3482
Core_0_DTLB_demand_miss_rate 0.0505885
Core_0_DTLB_load_access 42199671
Core_0_DTLB_load_hit 40064852
Core_0_DTLB_load_miss 2134819
Core_0_DTLB_load_MPKI 21.3482
Core_0_DTLB_load_miss_rate 0.0505885
Core_0_DTLB_rfo_access 0
Core_0_DTLB_rfo_hit 0
Core_0_DTLB_rfo_miss 0
Core_0_DTLB_rfo_MPKI 0
Core_0_DTLB_rfo_miss_rate 0
Core_0_DTLB_prefetch_access 0
Core_0_DTLB_prefetch_hit 0
Core_0_DTLB_prefetch_miss 0
Core_0_DTLB_prefetch_MPKI 0
Core_0_DTLB_prefetch_miss_rate 0
Core_0_DTLB_writeback_access 0
Core_0_DTLB_writeback_hit 0
Core_0_DTLB_writeback_miss 0
Core_0_DTLB_writeback_MPKI 0
Core_0_DTLB_writeback_miss_rate 0
Core_0_DTLB_prefetch_requested 0
Core_0_DTLB_prefetch_issued 0
Core_0_DTLB_prefetch_useful 0
Core_0_DTLB_prefetch_useless 0
Core_0_DTLB_prefetch_late 0
Core_0_DTLB_prefetch_fill 0
Core_0_DTLB_prefetch_too_early 0
Core_0_DTLB_prefetch_too_early_among_fill 0
Core_0_DTLB_prefetch_too_early_among_useless 0
Core_0_DTLB_prefetch_pollution_evict 0
Core_0_DTLB_prefetch_pollution_demand 0
Core_0_DTLB_prefetch_pollution_among_prefetch_fill 0
Core_0_DTLB_prefetch_accuracy 0
Core_0_DTLB_prefetch_coverage 0

Core_0_STLB_total_access 1550397
Core_0_STLB_total_hit 1351377
Core_0_STLB_total_miss 199020
Core_0_STLB_total_MPKI 1.9902
Core_0_STLB_total_miss_rate 0.128367
Core_0_STLB_demand_access 1550397
Core_0_STLB_demand_hit 1351377
Core_0_STLB_demand_miss 199020
Core_0_STLB_demand_MPKI 1.9902
Core_0_STLB_demand_miss_rate 0.128367
Core_0_STLB_load_access 1550397
Core_0_STLB_load_hit 1351377
Core_0_STLB_load_miss 199020
Core_0_STLB_load_MPKI 1.9902
Core_0_STLB_load_miss_rate 0.128367
Core_0_STLB_rfo_access 0
Core_0_STLB_rfo_hit 0
Core_0_STLB_rfo_miss 0
Core_0_STLB_rfo_MPKI 0
Core_0_STLB_rfo_miss_rate 0
Core_0_STLB_prefetch_access 0
Core_0_STLB_prefetch_hit 0
Core_0_STLB_prefetch_miss 0
Core_0_STLB_prefetch_MPKI 0
Core_0_STLB_prefetch_miss_rate 0
Core_0_STLB_writeback_access 0
Core_0_STLB_writeback_hit 0
Core_0_STLB_writeback_miss 0
Core_0_STLB_writeback_MPKI 0
Core_0_STLB_writeback_miss_rate 0
Core_0_STLB_prefetch_requested 0
Core_0_STLB_prefetch_issued 0
Core_0_STLB_prefetch_useful 0
Core_0_STLB_prefetch_useless 0
Core_0_STLB_prefetch_late 0
Core_0_STLB_prefetch_fill 0
Core_0_STLB_prefetch_too_early 0
Core_0_STLB_prefetch_too_early_among_fill 0
Core_0_STLB_prefetch_too_early_among_useless 0
Core_0_STLB_prefetch_pollution_evict 0
Core_0_STLB_prefetch_pollution_demand 0
Core_0_STLB_prefetch_pollution_among_prefetch_fill 0
Core_0_STLB_prefetch_accuracy 0
Core_0_STLB_prefetch_coverage 0

Core_0_L1I_total_access 5122901
Core_0_L1I_total_hit 5116263
Core_0_L1I_total_miss 6638
Core_0_L1I_total_MPKI 0.06638
Core_0_L1I_total_miss_rate 0.00129575
Core_0_L1I_demand_access 5122901
Core_0_L1I_demand_hit 5116263
Core_0_L1I_demand_miss 6638
Core_0_L1I_demand_MPKI 0.06638
Core_0_L1I_demand_miss_rate 0.00129575
Core_0_L1I_load_access 5122901
Core_0_L1I_load_hit 5116263
Core_0_L1I_load_miss 6638
Core_0_L1I_load_MPKI 0.06638
Core_0_L1I_load_miss_rate 0.00129575
Core_0_L1I_rfo_access 0
Core_0_L1I_rfo_hit 0
Core_0_L1I_rfo_miss 0
Core_0_L1I_rfo_MPKI 0
Core_0_L1I_rfo_miss_rate 0
Core_0_L1I_prefetch_access 0
Core_0_L1I_prefetch_hit 0
Core_0_L1I_prefetch_miss 0
Core_0_L1I_prefetch_MPKI 0
Core_0_L1I_prefetch_miss_rate 0
Core_0_L1I_writeback_access 0
Core_0_L1I_writeback_hit 0
Core_0_L1I_writeback_miss 0
Core_0_L1I_writeback_MPKI 0
Core_0_L1I_writeback_miss_rate 0
Core_0_L1I_prefetch_requested 0
Core_0_L1I_prefetch_issued 0
Core_0_L1I_prefetch_useful 0
Core_0_L1I_prefetch_useless 0
Core_0_L1I_prefetch_late 0
Core_0_L1I_prefetch_fill 0
Core_0_L1I_prefetch_too_early 0
Core_0_L1I_prefetch_too_early_among_fill 0
Core_0_L1I_prefetch_too_early_among_useless 0
Core_0_L1I_prefetch_pollution_evict 0
Core_0_L1I_prefetch_pollution_demand 0
Core_0_L1I_prefetch_pollution_among_prefetch_fill 0
Core_0_L1I_prefetch_accuracy 0
Core_0_L1I_prefetch_coverage 0

Core_0_L1D_total_access 46247124
Core_0_L1D_total_hit 32679504
Core_0_L1D_total_miss 13567620
Core_0_L1D_total_MPKI 135.676
Core_0_L1D_total_miss_rate 0.293372
Core_0_L1D_demand_access 19117028
Core_0_L1D_demand_hit 13130325
Core_0_L1D_demand_miss 5986703
Core_0_L1D_demand_MPKI 59.867
Core_0_L1D_demand_miss_rate 0.313161
Core_0_L1D_load_access 19117028
Core_0_L1D_load_hit 13130325
Core_0_L1D_load_miss 5986703
Core_0_L1D_load_MPKI 59.867
Core_0_L1D_load_miss_rate 0.313161
Core_0_L1D_rfo_access 0
Core_0_L1D_rfo_hit 0
Core_0_L1D_rfo_miss 0
Core_0_L1D_rfo_MPKI 0
Core_0_L1D_rfo_miss_rate 0
Core_0_L1D_prefetch_access 16785509
Core_0_L1D_prefetch_hit 12135277
Core_0_L1D_prefetch_miss 4650232
Core_0_L1D_prefetch_MPKI 46.5023
Core_0_L1D_prefetch_miss_rate 0.277038
Core_0_L1D_writeback_access 10344587
Core_0_L1D_writeback_hit 7413902
Core_0_L1D_writeback_miss 2930685
Core_0_L1D_writeback_MPKI 29.3068
Core_0_L1D_writeback_miss_rate 0.283306
Core_0_L1D_prefetch_requested 159376429
Core_0_L1D_prefetch_issued 16785504
Core_0_L1D_prefetch_useful 1208696
Core_0_L1D_prefetch_useless 254749
Core_0_L1D_prefetch_late 76978
Core_0_L1D_prefetch_fill 1386507
Core_0_L1D_prefetch_too_early 23374
Core_0_L1D_prefetch_too_early_among_fill 0.0168582
Core_0_L1D_prefetch_too_early_among_useless 0.0917531
Core_0_L1D_prefetch_pollution_evict 92213
Core_0_L1D_prefetch_pollution_demand 90669
Core_0_L1D_prefetch_pollution_among_prefetch_fill 0.0665074
Core_0_L1D_prefetch_accuracy 0.0720083
Core_0_L1D_prefetch_coverage 0.167982

Core_0_L2C_total_access 15731757
Core_0_L2C_total_hit 8378153
Core_0_L2C_total_miss 7353604
Core_0_L2C_total_MPKI 73.536
Core_0_L2C_total_miss_rate 0.467437
Core_0_L2C_demand_access 5526067
Core_0_L2C_demand_hit 2096693
Core_0_L2C_demand_miss 3429374
Core_0_L2C_demand_MPKI 34.2937
Core_0_L2C_demand_miss_rate 0.620581
Core_0_L2C_load_access 4320524
Core_0_L2C_load_hit 1755294
Core_0_L2C_load_miss 2565230
Core_0_L2C_load_MPKI 25.6523
Core_0_L2C_load_miss_rate 0.593731
Core_0_L2C_rfo_access 1205543
Core_0_L2C_rfo_hit 341399
Core_0_L2C_rfo_miss 864144
Core_0_L2C_rfo_MPKI 8.64144
Core_0_L2C_rfo_miss_rate 0.716809
Core_0_L2C_prefetch_access 6923548
Core_0_L2C_prefetch_hit 2999490
Core_0_L2C_prefetch_miss 3924058
Core_0_L2C_prefetch_MPKI 39.2406
Core_0_L2C_prefetch_miss_rate 0.56677
Core_0_L2C_writeback_access 3282142
Core_0_L2C_writeback_hit 3281970
Core_0_L2C_writeback_miss 172
Core_0_L2C_writeback_MPKI 0.00172
Core_0_L2C_writeback_miss_rate 5.24048e-05
Core_0_L2C_prefetch_requested 2460483
Core_0_L2C_prefetch_issued 2436820
Core_0_L2C_prefetch_useful 546938
Core_0_L2C_prefetch_useless 199043
Core_0_L2C_prefetch_late 94136
Core_0_L2C_prefetch_fill 2330122
Core_0_L2C_prefetch_too_early 27303
Core_0_L2C_prefetch_too_early_among_fill 0.0117174
Core_0_L2C_prefetch_too_early_among_useless 0.137171
Core_0_L2C_prefetch_pollution_evict 309569
Core_0_L2C_prefetch_pollution_demand 306774
Core_0_L2C_prefetch_pollution_among_prefetch_fill 0.132855
Core_0_L2C_prefetch_accuracy 0.224447
Core_0_L2C_prefetch_coverage 0.137549

Core_0_LLC_total_access 8236663
Core_0_LLC_total_hit 3728840
Core_0_LLC_total_miss 4507823
Core_0_LLC_total_MPKI 45.0782
Core_0_LLC_total_miss_rate 0.547288
Core_0_LLC_demand_access 3255658
Core_0_LLC_demand_hit 1283242
Core_0_LLC_demand_miss 1972416
Core_0_LLC_demand_MPKI 19.7242
Core_0_LLC_demand_miss_rate 0.605843
Core_0_LLC_load_access 2441363
Core_0_LLC_load_hit 1019798
Core_0_LLC_load_miss 1421565
Core_0_LLC_load_MPKI 14.2156
Core_0_LLC_load_miss_rate 0.582283
Core_0_LLC_rfo_access 814295
Core_0_LLC_rfo_hit 263444
Core_0_LLC_rfo_miss 550851
Core_0_LLC_rfo_MPKI 5.50851
Core_0_LLC_rfo_miss_rate 0.676476
Core_0_LLC_prefetch_access 2706500
Core_0_LLC_prefetch_hit 698264
Core_0_LLC_prefetch_miss 2008236
Core_0_LLC_prefetch_MPKI 20.0824
Core_0_LLC_prefetch_miss_rate 0.742005
Core_0_LLC_writeback_access 2274505
Core_0_LLC_writeback_hit 1747334
Core_0_LLC_writeback_miss 527171
Core_0_LLC_writeback_MPKI 5.27171
Core_0_LLC_writeback_miss_rate 0.231774
Core_0_LLC_prefetch_requested 0
Core_0_LLC_prefetch_issued 0
Core_0_LLC_prefetch_useful 0
Core_0_LLC_prefetch_useless 0
Core_0_LLC_prefetch_late 0
Core_0_LLC_prefetch_fill 1900565
Core_0_LLC_prefetch_too_early 0
Core_0_LLC_prefetch_too_early_among_fill 0
Core_0_LLC_prefetch_too_early_among_useless 0
Core_0_LLC_prefetch_pollution_evict 245963
Core_0_LLC_prefetch_pollution_demand 245963
Core_0_LLC_prefetch_pollution_among_prefetch_fill 0.129416
Core_0_LLC_prefetch_accuracy 0
Core_0_LLC_prefetch_coverage 0

[DRAM Statistics]
Channel_0_RQ_row_buffer_hit 149222
Channel_0_RQ_row_buffer_miss 3746069
Channel_0_WQ_row_buffer_hit 219395
Channel_0_WQ_row_buffer_miss 1002353
Channel_0_WQ_full 3020
Channel_0_dbus_congested 13965020
DRAM_total_RQ_row_buffer_hit 149222
DRAM_total_RQ_row_buffer_miss 3746069
DRAM_total_WQ_row_buffer_hit 219395
DRAM_total_WQ_row_buffer_miss 1002353
DRAM_total_WQ_full 3020
DRAM_total_dbus_congested 13965020
DRAM_avg_congested_cycle 6.76466

====== DRAM_RQ_TRAFFIC ========
DRAM_RQ_READ_TRAFFIC_BREAKDOWN:
data_demand_read.count = 1955267
data_demand_read.share = 50.15%

inst_demand_read.count = 3909
inst_demand_read.share = 0.10%

cache_inst_prefetch.count = 0
cache_inst_prefetch.share = 0.00%

cache_data_prefetch.count = 1913819
cache_data_prefetch.share = 49.08%

stlb_data_demand.count = 21803
stlb_data_demand.share = 0.56%

stlb_inst_demand.count = 202
stlb_inst_demand.share = 0.01%

stlb_l1i_pref.count = 0
stlb_l1i_pref.share = 0.00%

stlb_l1d_pref.count = 4108
stlb_l1d_pref.share = 0.11%

DRAM_RQ_READ_TRAFFIC_SUMMARY:
cache_demand.count = 1959176
cache_demand.share = 50.25%

cache_prefetch.count = 1913819
cache_prefetch.share = 49.08%

stlb_demand.count = 22005
stlb_demand.share = 0.56%

stlb_prefetch.count = 4108
stlb_prefetch.share = 0.11%

DRAM_RQ_READ_TRAFFIC_DEBUG:
total_classified_read.count = 3899108
unclassified_read.count = 0
total_read_with_other.count = 3899108

classified_plus_unclassified_check.count = 3899108
dram_rq_read_total_observed.count = 3899108
dram_rq_read_total_observed.per_1K_instructions = 38.9911

STLB_MISS_PTW_DRAM_TOUCH_BREAKDOWN:
stlb_miss_total.count = 199020

stlb_miss_touch_dram.count = 25840
stlb_miss_touch_dram.share = 12.98%

stlb_miss_no_dram_touch.count = 173180
stlb_miss_no_dram_touch.share = 87.02%

STLB_MISS_PTW_DRAM_TOUCH_DEBUG:
stlb_miss_touch_plus_no_touch.count = 199020
stlb_miss_total_check.count = 199020

======STLB miss causes ========
Core_0_STLB_miss_cause_breakdown
Core_0_STLB_cause_Demand_Data_miss 158359
Core_0_STLB_cause_Demand_Data_miss_rate 0.102141
Core_0_STLB_cause_Demand_Instruction_miss 275
Core_0_STLB_cause_Demand_Instruction_miss_rate 0.000177374
Core_0_STLB_cause_L1D_Prefetch_miss 40386
Core_0_STLB_cause_L1D_Prefetch_miss_rate 0.0260488
Core_0_STLB_cause_L1D_Prefetch_Same_Page_miss 0
Core_0_STLB_cause_L1D_Prefetch_Same_Page_miss_rate 0
Core_0_STLB_cause_L1D_Prefetch_Cross_Page_miss 40386
Core_0_STLB_cause_L1D_Prefetch_Cross_Page_miss_rate 0.0260488
Core_0_STLB_cause_L1I_Prefetch_miss 0
Core_0_STLB_cause_L1I_Prefetch_miss_rate 0
Core_0_STLB_cause_Other_miss 0
Core_0_STLB_cause_Other_miss_rate 0
Core_0_STLB_Demand_miss 158634
Core_0_STLB_Demand_miss_rate 0.102318
Core_0_STLB_L1D_Prefetch_miss 40386
Core_0_STLB_L1D_Prefetch_miss_rate 0.0260488
Core_0_STLB_Other_miss 0
Core_0_STLB_Other_miss_rate 0

========== vBerti-TLB Cross-page Flow Stats ==========

Core_0_vBerti_Requested 159376429
Core_0_vBerti_Cross_page_prefetch_in_Requested 21146103
Core_0_vBerti_Same_page_prefetch_in_Requested 138230326
Core_0_vBerti_Cross_page_prefetch_of_Requested 0.13268
Core_0_vBerti_Issued 16785504
Core_0_vBerti_InPQ_Same_page_prefetch 15440419
Core_0_vBerti_InPQ_Cross_page_prefetch 1345085
Core_0_vBerti_PQ_Drop_Rate 0.89468
Core_0_vBerti_InPQ_Cross_page_prefetch_of_Requested 0.00843967
Core_0_vBerti_Cross_page_PQ_Drop_rate 0.936391
Core_0_vBerti_Cross_page_prefetch_of_Issued 0.0801337
Core_0_CP_PF_PQFULL_drop 19801018
Core_0_CP_PF_PQFULL_TLB_rescue_enqueued 4042712
Core_0_CP_PF_PQFULL_TLB_rescue_issued 4042712
Core_0_CP_PF_PQFULL_TLB_rescue_translated 4042712

========= DTLB_vBerti Prefetch Stats =========
Core_0_DTLB_demand_access 28412368
Core_0_DTLB_demand_hit 26475801
Core_0_DTLB_demand_miss 1936567
Core_0_DTLB_demand_mshr_merge 473036
Core_0_DTLB_demand_fill 1464518
Core_0_DTLB_demand_miss_rate 0.0681593
Core_0_DTLB_demand_mpki 19.3657
Core_0_DTLB_vberti_prefetch_access 13787303
Core_0_DTLB_vberti_prefetch_hit 13589051
Core_0_DTLB_vberti_prefetch_miss 198252
Core_0_DTLB_vberti_prefetch_mshr_merge 111661
Core_0_DTLB_vberti_prefetch_fill 85604
Core_0_DTLB_vberti_prefetch_miss_rate 0.0143793
Core_0_DTLB_vberti_prefetch_mpki 1.98252

=== DTLB_vBerti Same/Cross-page Prefetch Stats ===
Core_0_DTLB_vberti_same_page_prefetch 10538549
Core_0_DTLB_vberti_same_page_prefetch_hit 10537523
Core_0_DTLB_vberti_same_page_prefetch_miss 1026
Core_0_DTLB_vberti_same_page_prefetch_mshr_merge 517
Core_0_DTLB_vberti_same_page_prefetch_fill 479
Core_0_DTLB_vberti_same_page_prefetch_miss_rate 9.73569e-05
Core_0_DTLB_vberti_same_page_prefetch_mpki 0.01026
Core_0_DTLB_vberti_cross_page_prefetch 3248754
Core_0_DTLB_vberti_cross_page_prefetch_hit 3051528
Core_0_DTLB_vberti_cross_page_prefetch_miss 197226
Core_0_DTLB_vberti_cross_page_prefetch_mshr_merge 111144
Core_0_DTLB_vberti_cross_page_prefetch_fill 85125
Core_0_DTLB_vberti_cross_page_prefetch_miss_rate 0.0607082
Core_0_DTLB_vberti_cross_page_prefetch_mpki 1.97226
Core_0_DTLB_same_page_prefetch_miss_rate 9.73569e-05
Core_0_DTLB_same_page_prefetch_mpki 0.01026
Core_0_DTLB_cross_page_prefetch_miss_rate 0.0607082
Core_0_DTLB_cross_page_prefetch_mpki 1.97226
Core_0_DTLB_cross_page_prefetch_issued 3248754
Core_0_DTLB_cross_page_prefetch_lookups 3248754
Core_0_DTLB_cross_page_prefetch_useful 51275
Core_0_DTLB_cross_page_prefetch_useless 34807
Core_0_DTLB_cross_page_prefetch_late 957
Core_0_DTLB_cross_page_prefetch_too_early 8220
Core_0_DTLB_cross_page_prefetch_too_early_among_fill 0.0965639
Core_0_DTLB_cross_page_prefetch_too_early_among_useless 0.236159
Core_0_DTLB_cross_page_prefetch_pollution_evict 28957
Core_0_DTLB_cross_page_prefetch_pollution_demand 26134
Core_0_DTLB_cross_page_prefetch_pollution_among_prefetch_fill 0.34017
Core_0_DTLB_cross_page_prefetch_accuracy 0.015783
Core_0_DTLB_cross_page_prefetch_coverage 0.0257943

========= STLB_vBerti Prefetch Stats =========
Core_0_STLB_demand_access 1463806
Core_0_STLB_demand_hit 1305172
Core_0_STLB_demand_miss 158634
Core_0_STLB_demand_mshr_merge 0
Core_0_STLB_demand_fill 158634
Core_0_STLB_demand_miss_rate 0.108371
Core_0_STLB_demand_mpki 1.58634
Core_0_STLB_vberti_prefetch_access 86591
Core_0_STLB_vberti_prefetch_hit 46205
Core_0_STLB_vberti_prefetch_miss 40386
Core_0_STLB_vberti_prefetch_mshr_merge 0
Core_0_STLB_vberti_prefetch_fill 40386
Core_0_STLB_vberti_prefetch_miss_rate 0.4664
Core_0_STLB_vberti_prefetch_mpki 0.40386

=== STLB_vBerti Same/Cross-page Prefetch Stats ===
Core_0_STLB_vberti_same_page_prefetch 509
Core_0_STLB_vberti_same_page_prefetch_hit 509
Core_0_STLB_vberti_same_page_prefetch_miss 0
Core_0_STLB_vberti_same_page_prefetch_mshr_merge 0
Core_0_STLB_vberti_same_page_prefetch_fill 0
Core_0_STLB_vberti_same_page_prefetch_miss_rate 0
Core_0_STLB_vberti_same_page_prefetch_mpki 0
Core_0_STLB_vberti_cross_page_prefetch 86082
Core_0_STLB_vberti_cross_page_prefetch_hit 45696
Core_0_STLB_vberti_cross_page_prefetch_miss 40386
Core_0_STLB_vberti_cross_page_prefetch_mshr_merge 0
Core_0_STLB_vberti_cross_page_prefetch_fill 40386
Core_0_STLB_vberti_cross_page_prefetch_miss_rate 0.469157
Core_0_STLB_vberti_cross_page_prefetch_mpki 0.40386
Core_0_STLB_same_page_prefetch_miss_rate 0
Core_0_STLB_same_page_prefetch_mpki 0
Core_0_STLB_cross_page_prefetch_miss_rate 0.469157
Core_0_STLB_cross_page_prefetch_mpki 0.40386
Core_0_STLB_cross_page_prefetch_issued 86082
Core_0_STLB_cross_page_prefetch_lookups 86082
Core_0_STLB_cross_page_prefetch_useful 9528
Core_0_STLB_cross_page_prefetch_useless 30858
Core_0_STLB_cross_page_prefetch_late 0
Core_0_STLB_cross_page_prefetch_too_early 8207
Core_0_STLB_cross_page_prefetch_too_early_among_fill 0.203214
Core_0_STLB_cross_page_prefetch_too_early_among_useless 0.26596
Core_0_STLB_cross_page_prefetch_pollution_evict 17087
Core_0_STLB_cross_page_prefetch_pollution_demand 15320
Core_0_STLB_cross_page_prefetch_pollution_among_prefetch_fill 0.423092
Core_0_STLB_cross_page_prefetch_accuracy 0.110685
Core_0_STLB_cross_page_prefetch_coverage 0.0566596

========= STLB Cross-page Prefetch Buffer Stats =========
Core_0_STLB_raw_demand_miss 158359
Core_0_CP_PB_insert 0
Core_0_CP_PB_demand_hit 0
Core_0_STLB_PB_demand_miss 158359
Core_0_CP_PB_coverage 0
Core_0_STLB_raw_demand_mpki 1.58359
Core_0_STLB_PB_demand_mpki 1.58359
Core_0_CP_PB_demand_hit_mpki 0

Core_0_TLB_demand_miss_rate 0.00558327
Core_0_TLB_demand_mpki 1.58634
Core_0_TLB_same_page_prefetch_miss_rate 0
Core_0_TLB_same_page_prefetch_mpki 0
Core_0_TLB_cross_page_prefetch_miss_rate 0.0124312
Core_0_TLB_cross_page_prefetch_mpki 0.40386
Core_0_TLB_cross_page_prefetch_issued 3248754
Core_0_TLB_cross_page_prefetch_lookups 3248754
Core_0_TLB_cross_page_prefetch_useful 20043
Core_0_TLB_cross_page_prefetch_useless 19879
Core_0_TLB_cross_page_prefetch_late 382
Core_0_TLB_cross_page_prefetch_too_early 3949
Core_0_TLB_cross_page_prefetch_too_early_among_fill 0.0314634
Core_0_TLB_cross_page_prefetch_too_early_among_useless 0.198652
Core_0_TLB_cross_page_prefetch_accuracy 0.00616944
Core_0_TLB_cross_page_prefetch_coverage 0.112174
BERTI TO_L1: 117669723 TO_L2: 96573718 TO_L2_BC_MSHR: 52523979
BERTI AVG_LAT: 100.698 NUM_TRACK_LATENCY: 10349371 NUM_CANT_TRACK_LATENCY: 46
BERTI CROSS_PAGE 28587152 NO_CROSS_PAGE: 185656289
BERTI FOUND_BERTI: 42824826 NO_FOUND_BERTI: 15933468
BERTI AVERAGE_ISSUED: 2.25538
