[VMEM] WARNING: physical memory size is smaller than virtual memory size.

*** ChampSim Multicore Out-of-Order Simulator ***
Warmup Instructions: 50000000
Simulation Instructions: 100000000
Number of CPUs: 1
Page size: 4096
Core 0: /data0/tzh/champsim_traces/Ligra/ligra_BellmanFord.com-lj.ungraph.gcc_6.3.0_O3.drop_33750M.length_250M.champsimtrace.xz
VBerti Prefetcher
BERTI HASH ENTANGLING
BERTI IP MASK ffff
Off-chip DRAM Size: 16 GiB Channels: 1 Width: 64-bit Data Rate: 3205 MT/s
Warmup halting CPU 0 at instruction 50000004 cycle 12709814 for remainder of phase
Warmup finished CPU 0 instructions: 50000004 cycles: 12709814 cumulative IPC: 3.934 (Simulation time: 00 hr 02 min 52 sec)
Warmup complete CPU 0 instructions: 50000004 cycles: 12709814 cumulative IPC: 3.934 (Simulation time: 00 hr 02 min 52 sec)
Simulation finished CPU 0 instructions: 100000001 cycles: 248822554 cumulative IPC: 0.4019 (Simulation time: 00 hr 21 min 38 sec)
Simulation complete CPU 0 instructions: 100000001 cycles: 248822554 cumulative IPC: 0.4019 (Simulation time: 00 hr 21 min 38 sec)

ChampSim completed all CPUs

=== Simulation ===
CPU 0 runs /data0/tzh/champsim_traces/Ligra/ligra_BellmanFord.com-lj.ungraph.gcc_6.3.0_O3.drop_33750M.length_250M.champsimtrace.xz

Region of Interest Statistics

CPU 0 cumulative IPC: 0.4019 instructions: 100000001 cycles: 248822554
CPU 0 Branch Prediction Accuracy: 88.13% MPKI: 18.4 Average ROB Occupancy at Mispredict: 26.06
Branch type MPKI
BRANCH_DIRECT_JUMP: 1.331
BRANCH_INDIRECT: 0
BRANCH_CONDITIONAL: 17.07
BRANCH_DIRECT_CALL: 0
BRANCH_INDIRECT_CALL: 0
BRANCH_RETURN: 0

cpu0->cpu0_STLB TOTAL        ACCESS:    1616794 HIT:     999881 MISS:     616913 MSHR_MERGE:          0
cpu0->cpu0_STLB LOAD         ACCESS:    1616794 HIT:     999881 MISS:     616913 MSHR_MERGE:          0
cpu0->cpu0_STLB RFO          ACCESS:          0 HIT:          0 MISS:          0 MSHR_MERGE:          0
cpu0->cpu0_STLB PREFETCH     ACCESS:          0 HIT:          0 MISS:          0 MSHR_MERGE:          0
cpu0->cpu0_STLB WRITE        ACCESS:          0 HIT:          0 MISS:          0 MSHR_MERGE:          0
cpu0->cpu0_STLB TRANSLATION  ACCESS:          0 HIT:          0 MISS:          0 MSHR_MERGE:          0
cpu0->cpu0_STLB PREFETCH REQUESTED:          0 ISSUED:          0 USEFUL:          0 USELESS:          0 LATE:          0 TOO_EARLY:          0
cpu0->cpu0_STLB AVERAGE MISS LATENCY: 33.85 cycles
cpu0->cpu0_L2C TOTAL        ACCESS:    9816062 HIT:    5340497 MISS:    4475565 MSHR_MERGE:     835484
cpu0->cpu0_L2C LOAD         ACCESS:    2087215 HIT:     320375 MISS:    1766840 MSHR_MERGE:       8275
cpu0->cpu0_L2C RFO          ACCESS:     120321 HIT:       7324 MISS:     112997 MSHR_MERGE:          3
cpu0->cpu0_L2C PREFETCH     ACCESS:    6706156 HIT:    4205441 MISS:    2500715 MSHR_MERGE:     827206
cpu0->cpu0_L2C WRITE        ACCESS:     420762 HIT:     420740 MISS:         22 MSHR_MERGE:          0
cpu0->cpu0_L2C TRANSLATION  ACCESS:     481608 HIT:     386617 MISS:      94991 MSHR_MERGE:          0
cpu0->cpu0_L2C PREFETCH REQUESTED:    1780704 ISSUED:    1780681 USEFUL:     409795 USELESS:     162446 LATE:       5042 TOO_EARLY:      11364
cpu0->cpu0_L2C AVERAGE MISS LATENCY: 190 cycles
cpu0->cpu0_L1I TOTAL        ACCESS:    1148876 HIT:    1148876 MISS:          0 MSHR_MERGE:          0
cpu0->cpu0_L1I LOAD         ACCESS:    1148876 HIT:    1148876 MISS:          0 MSHR_MERGE:          0
cpu0->cpu0_L1I RFO          ACCESS:          0 HIT:          0 MISS:          0 MSHR_MERGE:          0
cpu0->cpu0_L1I PREFETCH     ACCESS:          0 HIT:          0 MISS:          0 MSHR_MERGE:          0
cpu0->cpu0_L1I WRITE        ACCESS:          0 HIT:          0 MISS:          0 MSHR_MERGE:          0
cpu0->cpu0_L1I TRANSLATION  ACCESS:          0 HIT:          0 MISS:          0 MSHR_MERGE:          0
cpu0->cpu0_L1I PREFETCH REQUESTED:          0 ISSUED:          0 USEFUL:          0 USELESS:          0 LATE:          0 TOO_EARLY:          0
cpu0->cpu0_L1I AVERAGE MISS LATENCY: - cycles
cpu0->cpu0_L1D TOTAL        ACCESS:   48794175 HIT:   40489667 MISS:    8304508 MSHR_MERGE:     635848
cpu0->cpu0_L1D LOAD         ACCESS:   23179426 HIT:   20513452 MISS:    2665974 MSHR_MERGE:     578758
cpu0->cpu0_L1D RFO          ACCESS:          0 HIT:          0 MISS:          0 MSHR_MERGE:          0
cpu0->cpu0_L1D PREFETCH     ACCESS:   23626535 HIT:   18624623 MISS:    5001912 MSHR_MERGE:      22397
cpu0->cpu0_L1D WRITE        ACCESS:     756471 HIT:     602583 MISS:     153888 MSHR_MERGE:      33567
cpu0->cpu0_L1D TRANSLATION  ACCESS:    1231743 HIT:     749009 MISS:     482734 MSHR_MERGE:       1126
cpu0->cpu0_L1D PREFETCH REQUESTED:   74615657 ISSUED:   23626526 USEFUL:    1076619 USELESS:     274865 LATE:      14259 TOO_EARLY:        224
cpu0->cpu0_L1D AVERAGE MISS LATENCY: 148.1 cycles
cpu0->cpu0_ITLB TOTAL        ACCESS:    1148869 HIT:    1148869 MISS:          0 MSHR_MERGE:          0
cpu0->cpu0_ITLB LOAD         ACCESS:    1148869 HIT:    1148869 MISS:          0 MSHR_MERGE:          0
cpu0->cpu0_ITLB RFO          ACCESS:          0 HIT:          0 MISS:          0 MSHR_MERGE:          0
cpu0->cpu0_ITLB PREFETCH     ACCESS:          0 HIT:          0 MISS:          0 MSHR_MERGE:          0
cpu0->cpu0_ITLB WRITE        ACCESS:          0 HIT:          0 MISS:          0 MSHR_MERGE:          0
cpu0->cpu0_ITLB TRANSLATION  ACCESS:          0 HIT:          0 MISS:          0 MSHR_MERGE:          0
cpu0->cpu0_ITLB PREFETCH REQUESTED:          0 ISSUED:          0 USEFUL:          0 USELESS:          0 LATE:          0 TOO_EARLY:          0
cpu0->cpu0_ITLB AVERAGE MISS LATENCY: - cycles
cpu0->cpu0_DTLB TOTAL        ACCESS:   41525254 HIT:   39630138 MISS:    1895116 MSHR_MERGE:     278322
cpu0->cpu0_DTLB LOAD         ACCESS:   41525254 HIT:   39630138 MISS:    1895116 MSHR_MERGE:     278322
cpu0->cpu0_DTLB RFO          ACCESS:          0 HIT:          0 MISS:          0 MSHR_MERGE:          0
cpu0->cpu0_DTLB PREFETCH     ACCESS:          0 HIT:          0 MISS:          0 MSHR_MERGE:          0
cpu0->cpu0_DTLB WRITE        ACCESS:          0 HIT:          0 MISS:          0 MSHR_MERGE:          0
cpu0->cpu0_DTLB TRANSLATION  ACCESS:          0 HIT:          0 MISS:          0 MSHR_MERGE:          0
cpu0->cpu0_DTLB PREFETCH REQUESTED:          0 ISSUED:          0 USEFUL:          0 USELESS:          0 LATE:          0 TOO_EARLY:          0
cpu0->cpu0_DTLB AVERAGE MISS LATENCY: 18.3 cycles
cpu0->LLC TOTAL        ACCESS:    4042748 HIT:     545778 MISS:    3496970 MSHR_MERGE:      14741
cpu0->LLC LOAD         ACCESS:    1758565 HIT:     304965 MISS:    1453600 MSHR_MERGE:         77
cpu0->LLC RFO          ACCESS:     112994 HIT:      14932 MISS:      98062 MSHR_MERGE:          0
cpu0->LLC PREFETCH     ACCESS:    1673506 HIT:      30951 MISS:    1642555 MSHR_MERGE:      14664
cpu0->LLC WRITE        ACCESS:     402692 HIT:     105964 MISS:     296728 MSHR_MERGE:          0
cpu0->LLC TRANSLATION  ACCESS:      94991 HIT:      88966 MISS:       6025 MSHR_MERGE:          0
cpu0->LLC PREFETCH REQUESTED:          0 ISSUED:          0 USEFUL:          0 USELESS:          0 LATE:          0 TOO_EARLY:          0
cpu0->LLC AVERAGE MISS LATENCY: 186.5 cycles

DRAM Statistics

Channel 0 RQ ROW_BUFFER_HIT:      54087
  ROW_BUFFER_MISS:    3131391
  AVG DBUS CONGESTED CYCLE: 13.03
Channel 0 WQ ROW_BUFFER_HIT:     100929
  ROW_BUFFER_MISS:     253485
  FULL:          0
Channel 0 REFRESHES ISSUED:      20735

[ROI Statistics]
[System Configuration]
num_cpus 1
cpu_freq 4000
fetch_width 6
decode_width 6
dispatch_width 6
execute_width 6
lq_width 2
sq_width 2
retire_width 6
scheduler_size 128
branch_mispredict_penalty 15
rob_size 352
lq_size 128
sq_size 72
ifetch_buffer_size 64
decode_buffer_size 32
dispatch_buffer_size 32
register_file_size 288
decode_latency 1
dispatch_latency 1
schedule_latency 1
execute_latency 1
page_size 4096
block_size 64
core_0_itlb_set 16
core_0_itlb_way 4
core_0_itlb_rq_size 16
core_0_itlb_wq_size 16
core_0_itlb_pq_size 0
core_0_itlb_mshr_size 8
core_0_itlb_hit_latency 1
core_0_itlb_fill_latency 1
core_0_itlb_max_tag_check 2
core_0_itlb_max_fill 2
core_0_dtlb_set 16
core_0_dtlb_way 4
core_0_dtlb_rq_size 16
core_0_dtlb_wq_size 16
core_0_dtlb_pq_size 0
core_0_dtlb_mshr_size 8
core_0_dtlb_hit_latency 1
core_0_dtlb_fill_latency 1
core_0_dtlb_max_tag_check 2
core_0_dtlb_max_fill 2
core_0_stlb_set 128
core_0_stlb_way 12
core_0_stlb_rq_size 32
core_0_stlb_wq_size 32
core_0_stlb_pq_size 0
core_0_stlb_mshr_size 16
core_0_stlb_hit_latency 4
core_0_stlb_fill_latency 4
core_0_stlb_max_tag_check 1
core_0_stlb_max_fill 1
core_0_l1i_set 64
core_0_l1i_way 8
core_0_l1i_rq_size 64
core_0_l1i_wq_size 64
core_0_l1i_pq_size 32
core_0_l1i_mshr_size 8
core_0_l1i_hit_latency 2
core_0_l1i_fill_latency 2
core_0_l1i_max_tag_check 2
core_0_l1i_max_fill 2
core_0_l1d_set 64
core_0_l1d_way 12
core_0_l1d_rq_size 64
core_0_l1d_wq_size 64
core_0_l1d_pq_size 8
core_0_l1d_mshr_size 16
core_0_l1d_hit_latency 2
core_0_l1d_fill_latency 3
core_0_l1d_max_tag_check 2
core_0_l1d_max_fill 2
core_0_l2c_set 1024
core_0_l2c_way 8
core_0_l2c_rq_size 32
core_0_l2c_wq_size 32
core_0_l2c_pq_size 16
core_0_l2c_mshr_size 32
core_0_l2c_hit_latency 5
core_0_l2c_fill_latency 5
core_0_l2c_max_tag_check 1
core_0_l2c_max_fill 1
llc_set 2048
llc_way 16
llc_rq_size 32
llc_wq_size 32
llc_pq_size 32
llc_mshr_size 64
llc_hit_latency 10
llc_fill_latency 10
llc_max_tag_check 1
llc_max_fill 1
dram_channels 1
dram_ranks 1
dram_bankgroups 8
dram_banks 4
dram_rows 65536
dram_columns 1024
dram_channel_width 8
dram_rq_size 64
dram_wq_size 64
dram_size 17179869184
core_0_itlb_prefetcher no
core_0_dtlb_prefetcher no
core_0_stlb_prefetcher no
core_0_l1i_prefetcher next_line
core_0_l1d_prefetcher vberti
core_0_l2c_prefetcher ip_stride
llc_prefetcher no
llc_replacement drrip

Core_0_instructions 100000001
Core_0_cycles 248822554
Core_0_IPC 0.401893
Core_0_branch_prediction_accuracy 88.1309
Core_0_branch_MPKI 18.4026
Core_0_average_ROB_occupancy_at_mispredict 26.0641

Core_0_ITLB_total_access 1148869
Core_0_ITLB_total_hit 1148869
Core_0_ITLB_total_miss 0
Core_0_ITLB_total_MPKI 0
Core_0_ITLB_total_miss_rate 0
Core_0_ITLB_demand_access 1148869
Core_0_ITLB_demand_hit 1148869
Core_0_ITLB_demand_miss 0
Core_0_ITLB_demand_MPKI 0
Core_0_ITLB_demand_miss_rate 0
Core_0_ITLB_load_access 1148869
Core_0_ITLB_load_hit 1148869
Core_0_ITLB_load_miss 0
Core_0_ITLB_load_MPKI 0
Core_0_ITLB_load_miss_rate 0
Core_0_ITLB_rfo_access 0
Core_0_ITLB_rfo_hit 0
Core_0_ITLB_rfo_miss 0
Core_0_ITLB_rfo_MPKI 0
Core_0_ITLB_rfo_miss_rate 0
Core_0_ITLB_prefetch_access 0
Core_0_ITLB_prefetch_hit 0
Core_0_ITLB_prefetch_miss 0
Core_0_ITLB_prefetch_MPKI 0
Core_0_ITLB_prefetch_miss_rate 0
Core_0_ITLB_writeback_access 0
Core_0_ITLB_writeback_hit 0
Core_0_ITLB_writeback_miss 0
Core_0_ITLB_writeback_MPKI 0
Core_0_ITLB_writeback_miss_rate 0
Core_0_ITLB_prefetch_requested 0
Core_0_ITLB_prefetch_issued 0
Core_0_ITLB_prefetch_useful 0
Core_0_ITLB_prefetch_useless 0
Core_0_ITLB_prefetch_late 0
Core_0_ITLB_prefetch_fill 0
Core_0_ITLB_prefetch_too_early 0
Core_0_ITLB_prefetch_too_early_among_fill 0
Core_0_ITLB_prefetch_too_early_among_useless 0
Core_0_ITLB_prefetch_pollution_evict 0
Core_0_ITLB_prefetch_pollution_demand 0
Core_0_ITLB_prefetch_pollution_among_prefetch_fill 0
Core_0_ITLB_prefetch_accuracy 0
Core_0_ITLB_prefetch_coverage 0

Core_0_DTLB_total_access 41525254
Core_0_DTLB_total_hit 39630138
Core_0_DTLB_total_miss 1895116
Core_0_DTLB_total_MPKI 18.9512
Core_0_DTLB_total_miss_rate 0.0456377
Core_0_DTLB_demand_access 41525254
Core_0_DTLB_demand_hit 39630138
Core_0_DTLB_demand_miss 1895116
Core_0_DTLB_demand_MPKI 18.9512
Core_0_DTLB_demand_miss_rate 0.0456377
Core_0_DTLB_load_access 41525254
Core_0_DTLB_load_hit 39630138
Core_0_DTLB_load_miss 1895116
Core_0_DTLB_load_MPKI 18.9512
Core_0_DTLB_load_miss_rate 0.0456377
Core_0_DTLB_rfo_access 0
Core_0_DTLB_rfo_hit 0
Core_0_DTLB_rfo_miss 0
Core_0_DTLB_rfo_MPKI 0
Core_0_DTLB_rfo_miss_rate 0
Core_0_DTLB_prefetch_access 0
Core_0_DTLB_prefetch_hit 0
Core_0_DTLB_prefetch_miss 0
Core_0_DTLB_prefetch_MPKI 0
Core_0_DTLB_prefetch_miss_rate 0
Core_0_DTLB_writeback_access 0
Core_0_DTLB_writeback_hit 0
Core_0_DTLB_writeback_miss 0
Core_0_DTLB_writeback_MPKI 0
Core_0_DTLB_writeback_miss_rate 0
Core_0_DTLB_prefetch_requested 0
Core_0_DTLB_prefetch_issued 0
Core_0_DTLB_prefetch_useful 0
Core_0_DTLB_prefetch_useless 0
Core_0_DTLB_prefetch_late 0
Core_0_DTLB_prefetch_fill 0
Core_0_DTLB_prefetch_too_early 0
Core_0_DTLB_prefetch_too_early_among_fill 0
Core_0_DTLB_prefetch_too_early_among_useless 0
Core_0_DTLB_prefetch_pollution_evict 0
Core_0_DTLB_prefetch_pollution_demand 0
Core_0_DTLB_prefetch_pollution_among_prefetch_fill 0
Core_0_DTLB_prefetch_accuracy 0
Core_0_DTLB_prefetch_coverage 0

Core_0_STLB_total_access 1616794
Core_0_STLB_total_hit 999881
Core_0_STLB_total_miss 616913
Core_0_STLB_total_MPKI 6.16913
Core_0_STLB_total_miss_rate 0.381566
Core_0_STLB_demand_access 1616794
Core_0_STLB_demand_hit 999881
Core_0_STLB_demand_miss 616913
Core_0_STLB_demand_MPKI 6.16913
Core_0_STLB_demand_miss_rate 0.381566
Core_0_STLB_load_access 1616794
Core_0_STLB_load_hit 999881
Core_0_STLB_load_miss 616913
Core_0_STLB_load_MPKI 6.16913
Core_0_STLB_load_miss_rate 0.381566
Core_0_STLB_rfo_access 0
Core_0_STLB_rfo_hit 0
Core_0_STLB_rfo_miss 0
Core_0_STLB_rfo_MPKI 0
Core_0_STLB_rfo_miss_rate 0
Core_0_STLB_prefetch_access 0
Core_0_STLB_prefetch_hit 0
Core_0_STLB_prefetch_miss 0
Core_0_STLB_prefetch_MPKI 0
Core_0_STLB_prefetch_miss_rate 0
Core_0_STLB_writeback_access 0
Core_0_STLB_writeback_hit 0
Core_0_STLB_writeback_miss 0
Core_0_STLB_writeback_MPKI 0
Core_0_STLB_writeback_miss_rate 0
Core_0_STLB_prefetch_requested 0
Core_0_STLB_prefetch_issued 0
Core_0_STLB_prefetch_useful 0
Core_0_STLB_prefetch_useless 0
Core_0_STLB_prefetch_late 0
Core_0_STLB_prefetch_fill 0
Core_0_STLB_prefetch_too_early 0
Core_0_STLB_prefetch_too_early_among_fill 0
Core_0_STLB_prefetch_too_early_among_useless 0
Core_0_STLB_prefetch_pollution_evict 0
Core_0_STLB_prefetch_pollution_demand 0
Core_0_STLB_prefetch_pollution_among_prefetch_fill 0
Core_0_STLB_prefetch_accuracy 0
Core_0_STLB_prefetch_coverage 0

Core_0_L1I_total_access 1148876
Core_0_L1I_total_hit 1148876
Core_0_L1I_total_miss 0
Core_0_L1I_total_MPKI 0
Core_0_L1I_total_miss_rate 0
Core_0_L1I_demand_access 1148876
Core_0_L1I_demand_hit 1148876
Core_0_L1I_demand_miss 0
Core_0_L1I_demand_MPKI 0
Core_0_L1I_demand_miss_rate 0
Core_0_L1I_load_access 1148876
Core_0_L1I_load_hit 1148876
Core_0_L1I_load_miss 0
Core_0_L1I_load_MPKI 0
Core_0_L1I_load_miss_rate 0
Core_0_L1I_rfo_access 0
Core_0_L1I_rfo_hit 0
Core_0_L1I_rfo_miss 0
Core_0_L1I_rfo_MPKI 0
Core_0_L1I_rfo_miss_rate 0
Core_0_L1I_prefetch_access 0
Core_0_L1I_prefetch_hit 0
Core_0_L1I_prefetch_miss 0
Core_0_L1I_prefetch_MPKI 0
Core_0_L1I_prefetch_miss_rate 0
Core_0_L1I_writeback_access 0
Core_0_L1I_writeback_hit 0
Core_0_L1I_writeback_miss 0
Core_0_L1I_writeback_MPKI 0
Core_0_L1I_writeback_miss_rate 0
Core_0_L1I_prefetch_requested 0
Core_0_L1I_prefetch_issued 0
Core_0_L1I_prefetch_useful 0
Core_0_L1I_prefetch_useless 0
Core_0_L1I_prefetch_late 0
Core_0_L1I_prefetch_fill 0
Core_0_L1I_prefetch_too_early 0
Core_0_L1I_prefetch_too_early_among_fill 0
Core_0_L1I_prefetch_too_early_among_useless 0
Core_0_L1I_prefetch_pollution_evict 0
Core_0_L1I_prefetch_pollution_demand 0
Core_0_L1I_prefetch_pollution_among_prefetch_fill 0
Core_0_L1I_prefetch_accuracy 0
Core_0_L1I_prefetch_coverage 0

Core_0_L1D_total_access 47562432
Core_0_L1D_total_hit 39740658
Core_0_L1D_total_miss 7821774
Core_0_L1D_total_MPKI 78.2177
Core_0_L1D_total_miss_rate 0.164453
Core_0_L1D_demand_access 23179426
Core_0_L1D_demand_hit 20513452
Core_0_L1D_demand_miss 2665974
Core_0_L1D_demand_MPKI 26.6597
Core_0_L1D_demand_miss_rate 0.115015
Core_0_L1D_load_access 23179426
Core_0_L1D_load_hit 20513452
Core_0_L1D_load_miss 2665974
Core_0_L1D_load_MPKI 26.6597
Core_0_L1D_load_miss_rate 0.115015
Core_0_L1D_rfo_access 0
Core_0_L1D_rfo_hit 0
Core_0_L1D_rfo_miss 0
Core_0_L1D_rfo_MPKI 0
Core_0_L1D_rfo_miss_rate 0
Core_0_L1D_prefetch_access 23626535
Core_0_L1D_prefetch_hit 18624623
Core_0_L1D_prefetch_miss 5001912
Core_0_L1D_prefetch_MPKI 50.0191
Core_0_L1D_prefetch_miss_rate 0.211707
Core_0_L1D_writeback_access 756471
Core_0_L1D_writeback_hit 602583
Core_0_L1D_writeback_miss 153888
Core_0_L1D_writeback_MPKI 1.53888
Core_0_L1D_writeback_miss_rate 0.203429
Core_0_L1D_prefetch_requested 74615657
Core_0_L1D_prefetch_issued 23626526
Core_0_L1D_prefetch_useful 1076619
Core_0_L1D_prefetch_useless 274865
Core_0_L1D_prefetch_late 14259
Core_0_L1D_prefetch_fill 1337332
Core_0_L1D_prefetch_too_early 224
Core_0_L1D_prefetch_too_early_among_fill 0.000167498
Core_0_L1D_prefetch_too_early_among_useless 0.000814946
Core_0_L1D_prefetch_pollution_evict 32518
Core_0_L1D_prefetch_pollution_demand 32488
Core_0_L1D_prefetch_pollution_among_prefetch_fill 0.0243156
Core_0_L1D_prefetch_accuracy 0.0455682
Core_0_L1D_prefetch_coverage 0.287667

Core_0_L2C_total_access 9334454
Core_0_L2C_total_hit 4953880
Core_0_L2C_total_miss 4380574
Core_0_L2C_total_MPKI 43.8057
Core_0_L2C_total_miss_rate 0.469291
Core_0_L2C_demand_access 2207536
Core_0_L2C_demand_hit 327699
Core_0_L2C_demand_miss 1879837
Core_0_L2C_demand_MPKI 18.7984
Core_0_L2C_demand_miss_rate 0.851554
Core_0_L2C_load_access 2087215
Core_0_L2C_load_hit 320375
Core_0_L2C_load_miss 1766840
Core_0_L2C_load_MPKI 17.6684
Core_0_L2C_load_miss_rate 0.846506
Core_0_L2C_rfo_access 120321
Core_0_L2C_rfo_hit 7324
Core_0_L2C_rfo_miss 112997
Core_0_L2C_rfo_MPKI 1.12997
Core_0_L2C_rfo_miss_rate 0.939129
Core_0_L2C_prefetch_access 6706156
Core_0_L2C_prefetch_hit 4205441
Core_0_L2C_prefetch_miss 2500715
Core_0_L2C_prefetch_MPKI 25.0071
Core_0_L2C_prefetch_miss_rate 0.372898
Core_0_L2C_writeback_access 420762
Core_0_L2C_writeback_hit 420740
Core_0_L2C_writeback_miss 22
Core_0_L2C_writeback_MPKI 0.00022
Core_0_L2C_writeback_miss_rate 5.22861e-05
Core_0_L2C_prefetch_requested 1780704
Core_0_L2C_prefetch_issued 1780681
Core_0_L2C_prefetch_useful 409795
Core_0_L2C_prefetch_useless 162446
Core_0_L2C_prefetch_late 5042
Core_0_L2C_prefetch_fill 1636209
Core_0_L2C_prefetch_too_early 11364
Core_0_L2C_prefetch_too_early_among_fill 0.00694532
Core_0_L2C_prefetch_too_early_among_useless 0.0699556
Core_0_L2C_prefetch_pollution_evict 72036
Core_0_L2C_prefetch_pollution_demand 71133
Core_0_L2C_prefetch_pollution_among_prefetch_fill 0.0440262
Core_0_L2C_prefetch_accuracy 0.230134
Core_0_L2C_prefetch_coverage 0.178979

Core_0_LLC_total_access 3947757
Core_0_LLC_total_hit 456812
Core_0_LLC_total_miss 3490945
Core_0_LLC_total_MPKI 34.9094
Core_0_LLC_total_miss_rate 0.884286
Core_0_LLC_demand_access 1871559
Core_0_LLC_demand_hit 319897
Core_0_LLC_demand_miss 1551662
Core_0_LLC_demand_MPKI 15.5166
Core_0_LLC_demand_miss_rate 0.829075
Core_0_LLC_load_access 1758565
Core_0_LLC_load_hit 304965
Core_0_LLC_load_miss 1453600
Core_0_LLC_load_MPKI 14.536
Core_0_LLC_load_miss_rate 0.826583
Core_0_LLC_rfo_access 112994
Core_0_LLC_rfo_hit 14932
Core_0_LLC_rfo_miss 98062
Core_0_LLC_rfo_MPKI 0.98062
Core_0_LLC_rfo_miss_rate 0.867851
Core_0_LLC_prefetch_access 1673506
Core_0_LLC_prefetch_hit 30951
Core_0_LLC_prefetch_miss 1642555
Core_0_LLC_prefetch_MPKI 16.4255
Core_0_LLC_prefetch_miss_rate 0.981505
Core_0_LLC_writeback_access 402692
Core_0_LLC_writeback_hit 105964
Core_0_LLC_writeback_miss 296728
Core_0_LLC_writeback_MPKI 2.96728
Core_0_LLC_writeback_miss_rate 0.736861
Core_0_LLC_prefetch_requested 0
Core_0_LLC_prefetch_issued 0
Core_0_LLC_prefetch_useful 0
Core_0_LLC_prefetch_useless 0
Core_0_LLC_prefetch_late 0
Core_0_LLC_prefetch_fill 1627813
Core_0_LLC_prefetch_too_early 0
Core_0_LLC_prefetch_too_early_among_fill 0
Core_0_LLC_prefetch_too_early_among_useless 0
Core_0_LLC_prefetch_pollution_evict 159164
Core_0_LLC_prefetch_pollution_demand 159164
Core_0_LLC_prefetch_pollution_among_prefetch_fill 0.0977778
Core_0_LLC_prefetch_accuracy 0
Core_0_LLC_prefetch_coverage 0

[DRAM Statistics]
Channel_0_RQ_row_buffer_hit 54087
Channel_0_RQ_row_buffer_miss 3131391
Channel_0_WQ_row_buffer_hit 100929
Channel_0_WQ_row_buffer_miss 253485
Channel_0_WQ_full 0
Channel_0_dbus_congested 8587902
DRAM_total_RQ_row_buffer_hit 54087
DRAM_total_RQ_row_buffer_miss 3131391
DRAM_total_WQ_row_buffer_hit 100929
DRAM_total_WQ_row_buffer_miss 253485
DRAM_total_WQ_full 0
DRAM_total_dbus_congested 8587902
DRAM_avg_congested_cycle 13.0298

====== DRAM_RQ_TRAFFIC ========
DRAM_RQ_READ_TRAFFIC_BREAKDOWN:
data_demand_read.count = 1551585
data_demand_read.share = 48.71%

inst_demand_read.count = 0
inst_demand_read.share = 0.00%

cache_inst_prefetch.count = 0
cache_inst_prefetch.share = 0.00%

cache_data_prefetch.count = 1627891
cache_data_prefetch.share = 51.10%

stlb_data_demand.count = 2682
stlb_data_demand.share = 0.08%

stlb_inst_demand.count = 0
stlb_inst_demand.share = 0.00%

stlb_l1i_pref.count = 0
stlb_l1i_pref.share = 0.00%

stlb_l1d_pref.count = 3343
stlb_l1d_pref.share = 0.10%

DRAM_RQ_READ_TRAFFIC_SUMMARY:
cache_demand.count = 1551585
cache_demand.share = 48.71%

cache_prefetch.count = 1627891
cache_prefetch.share = 51.10%

stlb_demand.count = 2682
stlb_demand.share = 0.08%

stlb_prefetch.count = 3343
stlb_prefetch.share = 0.10%

DRAM_RQ_READ_TRAFFIC_DEBUG:
total_classified_read.count = 3185501
unclassified_read.count = 0
total_read_with_other.count = 3185501

classified_plus_unclassified_check.count = 3185501
dram_rq_read_total_observed.count = 3185501
dram_rq_read_total_observed.per_1K_instructions = 31.855

STLB_MISS_PTW_DRAM_TOUCH_BREAKDOWN:
stlb_miss_total.count = 616913

stlb_miss_touch_dram.count = 5978
stlb_miss_touch_dram.share = 0.97%

stlb_miss_no_dram_touch.count = 610935
stlb_miss_no_dram_touch.share = 99.03%

STLB_MISS_PTW_DRAM_TOUCH_DEBUG:
stlb_miss_touch_plus_no_touch.count = 616913
stlb_miss_total_check.count = 616913

======STLB miss causes ========
Core_0_STLB_miss_cause_breakdown
Core_0_STLB_cause_Demand_Data_miss 590800
Core_0_STLB_cause_Demand_Data_miss_rate 0.365415
Core_0_STLB_cause_Demand_Instruction_miss 0
Core_0_STLB_cause_Demand_Instruction_miss_rate 0
Core_0_STLB_cause_L1D_Prefetch_miss 26113
Core_0_STLB_cause_L1D_Prefetch_miss_rate 0.0161511
Core_0_STLB_cause_L1D_Prefetch_Same_Page_miss 5
Core_0_STLB_cause_L1D_Prefetch_Same_Page_miss_rate 3.09254e-06
Core_0_STLB_cause_L1D_Prefetch_Cross_Page_miss 26108
Core_0_STLB_cause_L1D_Prefetch_Cross_Page_miss_rate 0.016148
Core_0_STLB_cause_L1I_Prefetch_miss 0
Core_0_STLB_cause_L1I_Prefetch_miss_rate 0
Core_0_STLB_cause_Other_miss 0
Core_0_STLB_cause_Other_miss_rate 0
Core_0_STLB_Demand_miss 590800
Core_0_STLB_Demand_miss_rate 0.365415
Core_0_STLB_L1D_Prefetch_miss 26113
Core_0_STLB_L1D_Prefetch_miss_rate 0.0161511
Core_0_STLB_Other_miss 0
Core_0_STLB_Other_miss_rate 0

========== vBerti-TLB Cross-page Flow Stats ==========

Core_0_vBerti_Requested 74615657
Core_0_vBerti_Cross_page_prefetch_in_Requested 8667350
Core_0_vBerti_Same_page_prefetch_in_Requested 65948307
Core_0_vBerti_Cross_page_prefetch_of_Requested 0.11616
Core_0_vBerti_Issued 23626526
Core_0_vBerti_InPQ_Same_page_prefetch 21702069
Core_0_vBerti_InPQ_Cross_page_prefetch 1924457
Core_0_vBerti_PQ_Drop_Rate 0.683357
Core_0_vBerti_InPQ_Cross_page_prefetch_of_Requested 0.0257916
Core_0_vBerti_Cross_page_PQ_Drop_rate 0.777965
Core_0_vBerti_Cross_page_prefetch_of_Issued 0.0814532
Core_0_CP_PF_PQFULL_drop 6742893
Core_0_CP_PF_PQFULL_TLB_rescue_enqueued 4693323
Core_0_CP_PF_PQFULL_TLB_rescue_issued 4693323
Core_0_CP_PF_PQFULL_TLB_rescue_translated 4693323

========= DTLB_vBerti Prefetch Stats =========
Core_0_DTLB_demand_access 23179473
Core_0_DTLB_demand_hit 21423498
Core_0_DTLB_demand_miss 1755975
Core_0_DTLB_demand_mshr_merge 168355
Core_0_DTLB_demand_fill 1587770
Core_0_DTLB_demand_miss_rate 0.0757556
Core_0_DTLB_demand_mpki 17.5597
Core_0_DTLB_vberti_prefetch_access 18345781
Core_0_DTLB_vberti_prefetch_hit 18206640
Core_0_DTLB_vberti_prefetch_miss 139141
Core_0_DTLB_vberti_prefetch_mshr_merge 109967
Core_0_DTLB_vberti_prefetch_fill 29025
Core_0_DTLB_vberti_prefetch_miss_rate 0.00758436
Core_0_DTLB_vberti_prefetch_mpki 1.39141

=== DTLB_vBerti Same/Cross-page Prefetch Stats ===
Core_0_DTLB_vberti_same_page_prefetch 14306557
Core_0_DTLB_vberti_same_page_prefetch_hit 14306289
Core_0_DTLB_vberti_same_page_prefetch_miss 268
Core_0_DTLB_vberti_same_page_prefetch_mshr_merge 125
Core_0_DTLB_vberti_same_page_prefetch_fill 136
Core_0_DTLB_vberti_same_page_prefetch_miss_rate 1.87327e-05
Core_0_DTLB_vberti_same_page_prefetch_mpki 0.00268
Core_0_DTLB_vberti_cross_page_prefetch 4039224
Core_0_DTLB_vberti_cross_page_prefetch_hit 3900351
Core_0_DTLB_vberti_cross_page_prefetch_miss 138873
Core_0_DTLB_vberti_cross_page_prefetch_mshr_merge 109842
Core_0_DTLB_vberti_cross_page_prefetch_fill 28889
Core_0_DTLB_vberti_cross_page_prefetch_miss_rate 0.0343811
Core_0_DTLB_vberti_cross_page_prefetch_mpki 1.38873
Core_0_DTLB_same_page_prefetch_miss_rate 1.87327e-05
Core_0_DTLB_same_page_prefetch_mpki 0.00268
Core_0_DTLB_cross_page_prefetch_miss_rate 0.0343811
Core_0_DTLB_cross_page_prefetch_mpki 1.38873
Core_0_DTLB_cross_page_prefetch_issued 4039224
Core_0_DTLB_cross_page_prefetch_lookups 4039224
Core_0_DTLB_cross_page_prefetch_useful 26217
Core_0_DTLB_cross_page_prefetch_useless 2814
Core_0_DTLB_cross_page_prefetch_late 143
Core_0_DTLB_cross_page_prefetch_too_early 1616
Core_0_DTLB_cross_page_prefetch_too_early_among_fill 0.0559382
Core_0_DTLB_cross_page_prefetch_too_early_among_useless 0.574271
Core_0_DTLB_cross_page_prefetch_pollution_evict 19672
Core_0_DTLB_cross_page_prefetch_pollution_demand 19578
Core_0_DTLB_cross_page_prefetch_pollution_among_prefetch_fill 0.680951
Core_0_DTLB_cross_page_prefetch_accuracy 0.0064906
Core_0_DTLB_cross_page_prefetch_coverage 0.0147105

========= STLB_vBerti Prefetch Stats =========
Core_0_STLB_demand_access 1587620
Core_0_STLB_demand_hit 996820
Core_0_STLB_demand_miss 590800
Core_0_STLB_demand_mshr_merge 0
Core_0_STLB_demand_fill 590800
Core_0_STLB_demand_miss_rate 0.372129
Core_0_STLB_demand_mpki 5.908
Core_0_STLB_vberti_prefetch_access 29174
Core_0_STLB_vberti_prefetch_hit 3061
Core_0_STLB_vberti_prefetch_miss 26113
Core_0_STLB_vberti_prefetch_mshr_merge 0
Core_0_STLB_vberti_prefetch_fill 26114
Core_0_STLB_vberti_prefetch_miss_rate 0.895078
Core_0_STLB_vberti_prefetch_mpki 0.26113

=== STLB_vBerti Same/Cross-page Prefetch Stats ===
Core_0_STLB_vberti_same_page_prefetch 143
Core_0_STLB_vberti_same_page_prefetch_hit 138
Core_0_STLB_vberti_same_page_prefetch_miss 5
Core_0_STLB_vberti_same_page_prefetch_mshr_merge 0
Core_0_STLB_vberti_same_page_prefetch_fill 5
Core_0_STLB_vberti_same_page_prefetch_miss_rate 0.034965
Core_0_STLB_vberti_same_page_prefetch_mpki 5e-05
Core_0_STLB_vberti_cross_page_prefetch 29031
Core_0_STLB_vberti_cross_page_prefetch_hit 2923
Core_0_STLB_vberti_cross_page_prefetch_miss 26108
Core_0_STLB_vberti_cross_page_prefetch_mshr_merge 0
Core_0_STLB_vberti_cross_page_prefetch_fill 26109
Core_0_STLB_vberti_cross_page_prefetch_miss_rate 0.899315
Core_0_STLB_vberti_cross_page_prefetch_mpki 0.26108
Core_0_STLB_same_page_prefetch_miss_rate 0.034965
Core_0_STLB_same_page_prefetch_mpki 5e-05
Core_0_STLB_cross_page_prefetch_miss_rate 0.899315
Core_0_STLB_cross_page_prefetch_mpki 0.26108
Core_0_STLB_cross_page_prefetch_issued 29031
Core_0_STLB_cross_page_prefetch_lookups 29031
Core_0_STLB_cross_page_prefetch_useful 694
Core_0_STLB_cross_page_prefetch_useless 25414
Core_0_STLB_cross_page_prefetch_late 0
Core_0_STLB_cross_page_prefetch_too_early 406
Core_0_STLB_cross_page_prefetch_too_early_among_fill 0.0155502
Core_0_STLB_cross_page_prefetch_too_early_among_useless 0.0159754
Core_0_STLB_cross_page_prefetch_pollution_evict 24944
Core_0_STLB_cross_page_prefetch_pollution_demand 24912
Core_0_STLB_cross_page_prefetch_pollution_among_prefetch_fill 0.955379
Core_0_STLB_cross_page_prefetch_accuracy 0.0239055
Core_0_STLB_cross_page_prefetch_coverage 0.0011733

========= STLB Cross-page Prefetch Buffer Stats =========
Core_0_STLB_raw_demand_miss 590800
Core_0_CP_PB_insert 0
Core_0_CP_PB_demand_hit 0
Core_0_STLB_PB_demand_miss 590800
Core_0_CP_PB_coverage 0
Core_0_STLB_raw_demand_mpki 5.908
Core_0_STLB_PB_demand_mpki 5.908
Core_0_CP_PB_demand_hit_mpki 0

Core_0_TLB_demand_miss_rate 0.0254881
Core_0_TLB_demand_mpki 5.908
Core_0_TLB_same_page_prefetch_miss_rate 3.4949e-07
Core_0_TLB_same_page_prefetch_mpki 5e-05
Core_0_TLB_cross_page_prefetch_miss_rate 0.00646362
Core_0_TLB_cross_page_prefetch_mpki 0.26108
Core_0_TLB_cross_page_prefetch_issued 4039224
Core_0_TLB_cross_page_prefetch_lookups 4039224
Core_0_TLB_cross_page_prefetch_useful 26159
Core_0_TLB_cross_page_prefetch_useless 2772
Core_0_TLB_cross_page_prefetch_late 143
Core_0_TLB_cross_page_prefetch_too_early 1590
Core_0_TLB_cross_page_prefetch_too_early_among_fill 0.0289101
Core_0_TLB_cross_page_prefetch_too_early_among_useless 0.573593
Core_0_TLB_cross_page_prefetch_accuracy 0.00647624
Core_0_TLB_cross_page_prefetch_coverage 0.0423999
BERTI TO_L1: 46599544 TO_L2: 40137862 TO_L2_BC_MSHR: 169669
BERTI AVG_LAT: 111.762 NUM_TRACK_LATENCY: 5475008 NUM_CANT_TRACK_LATENCY: 0
BERTI CROSS_PAGE 9820772 NO_CROSS_PAGE: 76916634
BERTI FOUND_BERTI: 25599594 NO_FOUND_BERTI: 6643855
BERTI AVERAGE_ISSUED: 3.03725
