[VMEM] WARNING: physical memory size is smaller than virtual memory size.

*** ChampSim Multicore Out-of-Order Simulator ***
Warmup Instructions: 50000000
Simulation Instructions: 100000000
Number of CPUs: 1
Page size: 4096
Core 0: /data0/tzh/champsim_traces/QMM/srv_68_new.xz
VBerti Prefetcher
BERTI HASH ENTANGLING
BERTI IP MASK ffff
Off-chip DRAM Size: 16 GiB Channels: 1 Width: 64-bit Data Rate: 3205 MT/s
[BTB] WARNING: target of return is a lower address than the corresponding call. This is usually a problem with your trace.
[BTB] WARNING: target of return is a lower address than the corresponding call. This is usually a problem with your trace.
[BTB] WARNING: target of return is a lower address than the corresponding call. This is usually a problem with your trace.
[BTB] WARNING: target of return is a lower address than the corresponding call. This is usually a problem with your trace.
[BTB] WARNING: target of return is a lower address than the corresponding call. This is usually a problem with your trace.
[BTB] WARNING: target of return is a lower address than the corresponding call. This is usually a problem with your trace.
[BTB] WARNING: target of return is a lower address than the corresponding call. This is usually a problem with your trace.
[BTB] WARNING: target of return is a lower address than the corresponding call. This is usually a problem with your trace.
[BTB] WARNING: target of return is a lower address than the corresponding call. This is usually a problem with your trace.
[BTB] WARNING: target of return is a lower address than the corresponding call. This is usually a problem with your trace.
*** Reached end of trace: (0, "/data0/tzh/champsim_traces/QMM/srv_68_new.xz")
Warmup halting CPU 0 at instruction 50000002 cycle 10834060 for remainder of phase
Warmup finished CPU 0 instructions: 50000002 cycles: 10834060 cumulative IPC: 4.615 (Simulation time: 00 hr 02 min 42 sec)
Warmup complete CPU 0 instructions: 50000002 cycles: 10834060 cumulative IPC: 4.615 (Simulation time: 00 hr 02 min 42 sec)
*** Reached end of trace: (0, "/data0/tzh/champsim_traces/QMM/srv_68_new.xz")
*** Reached end of trace: (0, "/data0/tzh/champsim_traces/QMM/srv_68_new.xz")
*** Reached end of trace: (0, "/data0/tzh/champsim_traces/QMM/srv_68_new.xz")
Simulation finished CPU 0 instructions: 100000002 cycles: 57400554 cumulative IPC: 1.742 (Simulation time: 00 hr 11 min 28 sec)
Simulation complete CPU 0 instructions: 100000002 cycles: 57400554 cumulative IPC: 1.742 (Simulation time: 00 hr 11 min 28 sec)

ChampSim completed all CPUs

=== Simulation ===
CPU 0 runs /data0/tzh/champsim_traces/QMM/srv_68_new.xz

Region of Interest Statistics

CPU 0 cumulative IPC: 1.742 instructions: 100000002 cycles: 57400554
CPU 0 Branch Prediction Accuracy: 98.16% MPKI: 3.242 Average ROB Occupancy at Mispredict: 122.4
Branch type MPKI
BRANCH_DIRECT_JUMP: 0.2564
BRANCH_INDIRECT: 0.2007
BRANCH_CONDITIONAL: 1.876
BRANCH_DIRECT_CALL: 0.4524
BRANCH_INDIRECT_CALL: 0.09171
BRANCH_RETURN: 0.3655

cpu0->cpu0_STLB TOTAL        ACCESS:    1538784 HIT:    1348616 MISS:     190168 MSHR_MERGE:          0
cpu0->cpu0_STLB LOAD         ACCESS:    1538784 HIT:    1348616 MISS:     190168 MSHR_MERGE:          0
cpu0->cpu0_STLB RFO          ACCESS:          0 HIT:          0 MISS:          0 MSHR_MERGE:          0
cpu0->cpu0_STLB PREFETCH     ACCESS:          0 HIT:          0 MISS:          0 MSHR_MERGE:          0
cpu0->cpu0_STLB WRITE        ACCESS:          0 HIT:          0 MISS:          0 MSHR_MERGE:          0
cpu0->cpu0_STLB TRANSLATION  ACCESS:          0 HIT:          0 MISS:          0 MSHR_MERGE:          0
cpu0->cpu0_STLB PREFETCH REQUESTED:          0 ISSUED:          0 USEFUL:          0 USELESS:          0 LATE:          0 TOO_EARLY:          0
cpu0->cpu0_STLB AVERAGE MISS LATENCY: 34.34 cycles
cpu0->cpu0_L2C TOTAL        ACCESS:    4303635 HIT:    2564200 MISS:    1739435 MSHR_MERGE:        535
cpu0->cpu0_L2C LOAD         ACCESS:    3448199 HIT:    1917879 MISS:    1530320 MSHR_MERGE:         40
cpu0->cpu0_L2C RFO          ACCESS:     155880 HIT:      74537 MISS:      81343 MSHR_MERGE:          0
cpu0->cpu0_L2C PREFETCH     ACCESS:      32294 HIT:      14980 MISS:      17314 MSHR_MERGE:        495
cpu0->cpu0_L2C WRITE        ACCESS:     499116 HIT:     496685 MISS:       2431 MSHR_MERGE:          0
cpu0->cpu0_L2C TRANSLATION  ACCESS:     168146 HIT:      60119 MISS:     108027 MSHR_MERGE:          0
cpu0->cpu0_L2C PREFETCH REQUESTED:      31083 ISSUED:      30989 USEFUL:       9910 USELESS:       6621 LATE:         40 TOO_EARLY:        414
cpu0->cpu0_L2C AVERAGE MISS LATENCY: 31.49 cycles
cpu0->cpu0_L1I TOTAL        ACCESS:   15614299 HIT:   11757778 MISS:    3856521 MSHR_MERGE:    1462606
cpu0->cpu0_L1I LOAD         ACCESS:   15614299 HIT:   11757778 MISS:    3856521 MSHR_MERGE:    1462606
cpu0->cpu0_L1I RFO          ACCESS:          0 HIT:          0 MISS:          0 MSHR_MERGE:          0
cpu0->cpu0_L1I PREFETCH     ACCESS:          0 HIT:          0 MISS:          0 MSHR_MERGE:          0
cpu0->cpu0_L1I WRITE        ACCESS:          0 HIT:          0 MISS:          0 MSHR_MERGE:          0
cpu0->cpu0_L1I TRANSLATION  ACCESS:          0 HIT:          0 MISS:          0 MSHR_MERGE:          0
cpu0->cpu0_L1I PREFETCH REQUESTED:          0 ISSUED:          0 USEFUL:          0 USELESS:          0 LATE:          0 TOO_EARLY:          0
cpu0->cpu0_L1I AVERAGE MISS LATENCY: 14.38 cycles
cpu0->cpu0_L1D TOTAL        ACCESS:   23285090 HIT:   21227514 MISS:    2057576 MSHR_MERGE:     677955
cpu0->cpu0_L1D LOAD         ACCESS:   13032547 HIT:   11601406 MISS:    1431141 MSHR_MERGE:     376853
cpu0->cpu0_L1D RFO          ACCESS:          0 HIT:          0 MISS:          0 MSHR_MERGE:          0
cpu0->cpu0_L1D PREFETCH     ACCESS:      25774 HIT:      24465 MISS:       1309 MSHR_MERGE:          4
cpu0->cpu0_L1D WRITE        ACCESS:    9799494 HIT:    9345734 MISS:     453760 MSHR_MERGE:     297878
cpu0->cpu0_L1D TRANSLATION  ACCESS:     427275 HIT:     255909 MISS:     171366 MSHR_MERGE:       3220
cpu0->cpu0_L1D PREFETCH REQUESTED:      30426 ISSUED:      25774 USEFUL:         98 USELESS:         19 LATE:          0 TOO_EARLY:         12
cpu0->cpu0_L1D AVERAGE MISS LATENCY: 36.41 cycles
cpu0->cpu0_ITLB TOTAL        ACCESS:   13251313 HIT:   12312674 MISS:     938639 MSHR_MERGE:     583908
cpu0->cpu0_ITLB LOAD         ACCESS:   13251313 HIT:   12312674 MISS:     938639 MSHR_MERGE:     583908
cpu0->cpu0_ITLB RFO          ACCESS:          0 HIT:          0 MISS:          0 MSHR_MERGE:          0
cpu0->cpu0_ITLB PREFETCH     ACCESS:          0 HIT:          0 MISS:          0 MSHR_MERGE:          0
cpu0->cpu0_ITLB WRITE        ACCESS:          0 HIT:          0 MISS:          0 MSHR_MERGE:          0
cpu0->cpu0_ITLB TRANSLATION  ACCESS:          0 HIT:          0 MISS:          0 MSHR_MERGE:          0
cpu0->cpu0_ITLB PREFETCH REQUESTED:          0 ISSUED:          0 USEFUL:          0 USELESS:          0 LATE:          0 TOO_EARLY:          0
cpu0->cpu0_ITLB AVERAGE MISS LATENCY: 9.974 cycles
cpu0->cpu0_DTLB TOTAL        ACCESS:   21543408 HIT:   19932403 MISS:    1611005 MSHR_MERGE:     426952
cpu0->cpu0_DTLB LOAD         ACCESS:   21543408 HIT:   19932403 MISS:    1611005 MSHR_MERGE:     426952
cpu0->cpu0_DTLB RFO          ACCESS:          0 HIT:          0 MISS:          0 MSHR_MERGE:          0
cpu0->cpu0_DTLB PREFETCH     ACCESS:          0 HIT:          0 MISS:          0 MSHR_MERGE:          0
cpu0->cpu0_DTLB WRITE        ACCESS:          0 HIT:          0 MISS:          0 MSHR_MERGE:          0
cpu0->cpu0_DTLB TRANSLATION  ACCESS:          0 HIT:          0 MISS:          0 MSHR_MERGE:          0
cpu0->cpu0_DTLB PREFETCH REQUESTED:          0 ISSUED:          0 USEFUL:          0 USELESS:          0 LATE:          0 TOO_EARLY:          0
cpu0->cpu0_DTLB AVERAGE MISS LATENCY: 9.2 cycles
cpu0->LLC TOTAL        ACCESS:    2016209 HIT:    1857894 MISS:     158315 MSHR_MERGE:          0
cpu0->LLC LOAD         ACCESS:    1530278 HIT:    1415549 MISS:     114729 MSHR_MERGE:          0
cpu0->LLC RFO          ACCESS:      81343 HIT:      56995 MISS:      24348 MSHR_MERGE:          0
cpu0->LLC PREFETCH     ACCESS:      16819 HIT:       8412 MISS:       8407 MSHR_MERGE:          0
cpu0->LLC WRITE        ACCESS:     279742 HIT:     274483 MISS:       5259 MSHR_MERGE:          0
cpu0->LLC TRANSLATION  ACCESS:     108027 HIT:     102455 MISS:       5572 MSHR_MERGE:          0
cpu0->LLC PREFETCH REQUESTED:          0 ISSUED:          0 USEFUL:          0 USELESS:          0 LATE:          0 TOO_EARLY:          0
cpu0->LLC AVERAGE MISS LATENCY: 188.8 cycles

DRAM Statistics

Channel 0 RQ ROW_BUFFER_HIT:       5050
  ROW_BUFFER_MISS:     148002
  AVG DBUS CONGESTED CYCLE: 15.85
Channel 0 WQ ROW_BUFFER_HIT:      22751
  ROW_BUFFER_MISS:      86018
  FULL:          0
Channel 0 REFRESHES ISSUED:       4784

[ROI Statistics]
[System Configuration]
num_cpus 1
cpu_freq 4000
fetch_width 6
decode_width 6
dispatch_width 6
execute_width 6
lq_width 2
sq_width 2
retire_width 6
scheduler_size 128
branch_mispredict_penalty 15
rob_size 352
lq_size 128
sq_size 72
ifetch_buffer_size 64
decode_buffer_size 32
dispatch_buffer_size 32
register_file_size 288
decode_latency 1
dispatch_latency 1
schedule_latency 1
execute_latency 1
page_size 4096
block_size 64
core_0_itlb_set 16
core_0_itlb_way 4
core_0_itlb_rq_size 16
core_0_itlb_wq_size 16
core_0_itlb_pq_size 0
core_0_itlb_mshr_size 8
core_0_itlb_hit_latency 1
core_0_itlb_fill_latency 1
core_0_itlb_max_tag_check 2
core_0_itlb_max_fill 2
core_0_dtlb_set 16
core_0_dtlb_way 4
core_0_dtlb_rq_size 16
core_0_dtlb_wq_size 16
core_0_dtlb_pq_size 0
core_0_dtlb_mshr_size 8
core_0_dtlb_hit_latency 1
core_0_dtlb_fill_latency 1
core_0_dtlb_max_tag_check 2
core_0_dtlb_max_fill 2
core_0_stlb_set 128
core_0_stlb_way 12
core_0_stlb_rq_size 32
core_0_stlb_wq_size 32
core_0_stlb_pq_size 0
core_0_stlb_mshr_size 16
core_0_stlb_hit_latency 4
core_0_stlb_fill_latency 4
core_0_stlb_max_tag_check 1
core_0_stlb_max_fill 1
core_0_l1i_set 64
core_0_l1i_way 8
core_0_l1i_rq_size 64
core_0_l1i_wq_size 64
core_0_l1i_pq_size 32
core_0_l1i_mshr_size 8
core_0_l1i_hit_latency 2
core_0_l1i_fill_latency 2
core_0_l1i_max_tag_check 2
core_0_l1i_max_fill 2
core_0_l1d_set 64
core_0_l1d_way 12
core_0_l1d_rq_size 64
core_0_l1d_wq_size 64
core_0_l1d_pq_size 8
core_0_l1d_mshr_size 16
core_0_l1d_hit_latency 2
core_0_l1d_fill_latency 3
core_0_l1d_max_tag_check 2
core_0_l1d_max_fill 2
core_0_l2c_set 1024
core_0_l2c_way 8
core_0_l2c_rq_size 32
core_0_l2c_wq_size 32
core_0_l2c_pq_size 16
core_0_l2c_mshr_size 32
core_0_l2c_hit_latency 5
core_0_l2c_fill_latency 5
core_0_l2c_max_tag_check 1
core_0_l2c_max_fill 1
llc_set 2048
llc_way 16
llc_rq_size 32
llc_wq_size 32
llc_pq_size 32
llc_mshr_size 64
llc_hit_latency 10
llc_fill_latency 10
llc_max_tag_check 1
llc_max_fill 1
dram_channels 1
dram_ranks 1
dram_bankgroups 8
dram_banks 4
dram_rows 65536
dram_columns 1024
dram_channel_width 8
dram_rq_size 64
dram_wq_size 64
dram_size 17179869184
core_0_itlb_prefetcher no
core_0_dtlb_prefetcher no
core_0_stlb_prefetcher no
core_0_l1i_prefetcher next_line
core_0_l1d_prefetcher vberti
core_0_l2c_prefetcher ip_stride
llc_prefetcher no
llc_replacement drrip

Core_0_instructions 100000002
Core_0_cycles 57400554
Core_0_IPC 1.74214
Core_0_branch_prediction_accuracy 98.1594
Core_0_branch_MPKI 3.24223
Core_0_average_ROB_occupancy_at_mispredict 122.351

Core_0_ITLB_total_access 13251313
Core_0_ITLB_total_hit 12312674
Core_0_ITLB_total_miss 938639
Core_0_ITLB_total_MPKI 9.38639
Core_0_ITLB_total_miss_rate 0.0708337
Core_0_ITLB_demand_access 13251313
Core_0_ITLB_demand_hit 12312674
Core_0_ITLB_demand_miss 938639
Core_0_ITLB_demand_MPKI 9.38639
Core_0_ITLB_demand_miss_rate 0.0708337
Core_0_ITLB_load_access 13251313
Core_0_ITLB_load_hit 12312674
Core_0_ITLB_load_miss 938639
Core_0_ITLB_load_MPKI 9.38639
Core_0_ITLB_load_miss_rate 0.0708337
Core_0_ITLB_rfo_access 0
Core_0_ITLB_rfo_hit 0
Core_0_ITLB_rfo_miss 0
Core_0_ITLB_rfo_MPKI 0
Core_0_ITLB_rfo_miss_rate 0
Core_0_ITLB_prefetch_access 0
Core_0_ITLB_prefetch_hit 0
Core_0_ITLB_prefetch_miss 0
Core_0_ITLB_prefetch_MPKI 0
Core_0_ITLB_prefetch_miss_rate 0
Core_0_ITLB_writeback_access 0
Core_0_ITLB_writeback_hit 0
Core_0_ITLB_writeback_miss 0
Core_0_ITLB_writeback_MPKI 0
Core_0_ITLB_writeback_miss_rate 0
Core_0_ITLB_prefetch_requested 0
Core_0_ITLB_prefetch_issued 0
Core_0_ITLB_prefetch_useful 0
Core_0_ITLB_prefetch_useless 0
Core_0_ITLB_prefetch_late 0
Core_0_ITLB_prefetch_fill 0
Core_0_ITLB_prefetch_too_early 0
Core_0_ITLB_prefetch_too_early_among_fill 0
Core_0_ITLB_prefetch_too_early_among_useless 0
Core_0_ITLB_prefetch_pollution_evict 0
Core_0_ITLB_prefetch_pollution_demand 0
Core_0_ITLB_prefetch_pollution_among_prefetch_fill 0
Core_0_ITLB_prefetch_accuracy 0
Core_0_ITLB_prefetch_coverage 0

Core_0_DTLB_total_access 21543408
Core_0_DTLB_total_hit 19932403
Core_0_DTLB_total_miss 1611005
Core_0_DTLB_total_MPKI 16.11
Core_0_DTLB_total_miss_rate 0.0747795
Core_0_DTLB_demand_access 21543408
Core_0_DTLB_demand_hit 19932403
Core_0_DTLB_demand_miss 1611005
Core_0_DTLB_demand_MPKI 16.11
Core_0_DTLB_demand_miss_rate 0.0747795
Core_0_DTLB_load_access 21543408
Core_0_DTLB_load_hit 19932403
Core_0_DTLB_load_miss 1611005
Core_0_DTLB_load_MPKI 16.11
Core_0_DTLB_load_miss_rate 0.0747795
Core_0_DTLB_rfo_access 0
Core_0_DTLB_rfo_hit 0
Core_0_DTLB_rfo_miss 0
Core_0_DTLB_rfo_MPKI 0
Core_0_DTLB_rfo_miss_rate 0
Core_0_DTLB_prefetch_access 0
Core_0_DTLB_prefetch_hit 0
Core_0_DTLB_prefetch_miss 0
Core_0_DTLB_prefetch_MPKI 0
Core_0_DTLB_prefetch_miss_rate 0
Core_0_DTLB_writeback_access 0
Core_0_DTLB_writeback_hit 0
Core_0_DTLB_writeback_miss 0
Core_0_DTLB_writeback_MPKI 0
Core_0_DTLB_writeback_miss_rate 0
Core_0_DTLB_prefetch_requested 0
Core_0_DTLB_prefetch_issued 0
Core_0_DTLB_prefetch_useful 0
Core_0_DTLB_prefetch_useless 0
Core_0_DTLB_prefetch_late 0
Core_0_DTLB_prefetch_fill 0
Core_0_DTLB_prefetch_too_early 0
Core_0_DTLB_prefetch_too_early_among_fill 0
Core_0_DTLB_prefetch_too_early_among_useless 0
Core_0_DTLB_prefetch_pollution_evict 0
Core_0_DTLB_prefetch_pollution_demand 0
Core_0_DTLB_prefetch_pollution_among_prefetch_fill 0
Core_0_DTLB_prefetch_accuracy 0
Core_0_DTLB_prefetch_coverage 0

Core_0_STLB_total_access 1538784
Core_0_STLB_total_hit 1348616
Core_0_STLB_total_miss 190168
Core_0_STLB_total_MPKI 1.90168
Core_0_STLB_total_miss_rate 0.123583
Core_0_STLB_demand_access 1538784
Core_0_STLB_demand_hit 1348616
Core_0_STLB_demand_miss 190168
Core_0_STLB_demand_MPKI 1.90168
Core_0_STLB_demand_miss_rate 0.123583
Core_0_STLB_load_access 1538784
Core_0_STLB_load_hit 1348616
Core_0_STLB_load_miss 190168
Core_0_STLB_load_MPKI 1.90168
Core_0_STLB_load_miss_rate 0.123583
Core_0_STLB_rfo_access 0
Core_0_STLB_rfo_hit 0
Core_0_STLB_rfo_miss 0
Core_0_STLB_rfo_MPKI 0
Core_0_STLB_rfo_miss_rate 0
Core_0_STLB_prefetch_access 0
Core_0_STLB_prefetch_hit 0
Core_0_STLB_prefetch_miss 0
Core_0_STLB_prefetch_MPKI 0
Core_0_STLB_prefetch_miss_rate 0
Core_0_STLB_writeback_access 0
Core_0_STLB_writeback_hit 0
Core_0_STLB_writeback_miss 0
Core_0_STLB_writeback_MPKI 0
Core_0_STLB_writeback_miss_rate 0
Core_0_STLB_prefetch_requested 0
Core_0_STLB_prefetch_issued 0
Core_0_STLB_prefetch_useful 0
Core_0_STLB_prefetch_useless 0
Core_0_STLB_prefetch_late 0
Core_0_STLB_prefetch_fill 0
Core_0_STLB_prefetch_too_early 0
Core_0_STLB_prefetch_too_early_among_fill 0
Core_0_STLB_prefetch_too_early_among_useless 0
Core_0_STLB_prefetch_pollution_evict 0
Core_0_STLB_prefetch_pollution_demand 0
Core_0_STLB_prefetch_pollution_among_prefetch_fill 0
Core_0_STLB_prefetch_accuracy 0
Core_0_STLB_prefetch_coverage 0

Core_0_L1I_total_access 15614299
Core_0_L1I_total_hit 11757778
Core_0_L1I_total_miss 3856521
Core_0_L1I_total_MPKI 38.5652
Core_0_L1I_total_miss_rate 0.246986
Core_0_L1I_demand_access 15614299
Core_0_L1I_demand_hit 11757778
Core_0_L1I_demand_miss 3856521
Core_0_L1I_demand_MPKI 38.5652
Core_0_L1I_demand_miss_rate 0.246986
Core_0_L1I_load_access 15614299
Core_0_L1I_load_hit 11757778
Core_0_L1I_load_miss 3856521
Core_0_L1I_load_MPKI 38.5652
Core_0_L1I_load_miss_rate 0.246986
Core_0_L1I_rfo_access 0
Core_0_L1I_rfo_hit 0
Core_0_L1I_rfo_miss 0
Core_0_L1I_rfo_MPKI 0
Core_0_L1I_rfo_miss_rate 0
Core_0_L1I_prefetch_access 0
Core_0_L1I_prefetch_hit 0
Core_0_L1I_prefetch_miss 0
Core_0_L1I_prefetch_MPKI 0
Core_0_L1I_prefetch_miss_rate 0
Core_0_L1I_writeback_access 0
Core_0_L1I_writeback_hit 0
Core_0_L1I_writeback_miss 0
Core_0_L1I_writeback_MPKI 0
Core_0_L1I_writeback_miss_rate 0
Core_0_L1I_prefetch_requested 0
Core_0_L1I_prefetch_issued 0
Core_0_L1I_prefetch_useful 0
Core_0_L1I_prefetch_useless 0
Core_0_L1I_prefetch_late 0
Core_0_L1I_prefetch_fill 0
Core_0_L1I_prefetch_too_early 0
Core_0_L1I_prefetch_too_early_among_fill 0
Core_0_L1I_prefetch_too_early_among_useless 0
Core_0_L1I_prefetch_pollution_evict 0
Core_0_L1I_prefetch_pollution_demand 0
Core_0_L1I_prefetch_pollution_among_prefetch_fill 0
Core_0_L1I_prefetch_accuracy 0
Core_0_L1I_prefetch_coverage 0

Core_0_L1D_total_access 22857815
Core_0_L1D_total_hit 20971605
Core_0_L1D_total_miss 1886210
Core_0_L1D_total_MPKI 18.8621
Core_0_L1D_total_miss_rate 0.0825193
Core_0_L1D_demand_access 13032547
Core_0_L1D_demand_hit 11601406
Core_0_L1D_demand_miss 1431141
Core_0_L1D_demand_MPKI 14.3114
Core_0_L1D_demand_miss_rate 0.109813
Core_0_L1D_load_access 13032547
Core_0_L1D_load_hit 11601406
Core_0_L1D_load_miss 1431141
Core_0_L1D_load_MPKI 14.3114
Core_0_L1D_load_miss_rate 0.109813
Core_0_L1D_rfo_access 0
Core_0_L1D_rfo_hit 0
Core_0_L1D_rfo_miss 0
Core_0_L1D_rfo_MPKI 0
Core_0_L1D_rfo_miss_rate 0
Core_0_L1D_prefetch_access 25774
Core_0_L1D_prefetch_hit 24465
Core_0_L1D_prefetch_miss 1309
Core_0_L1D_prefetch_MPKI 0.01309
Core_0_L1D_prefetch_miss_rate 0.0507876
Core_0_L1D_writeback_access 9799494
Core_0_L1D_writeback_hit 9345734
Core_0_L1D_writeback_miss 453760
Core_0_L1D_writeback_MPKI 4.5376
Core_0_L1D_writeback_miss_rate 0.0463044
Core_0_L1D_prefetch_requested 30426
Core_0_L1D_prefetch_issued 25774
Core_0_L1D_prefetch_useful 98
Core_0_L1D_prefetch_useless 19
Core_0_L1D_prefetch_late 0
Core_0_L1D_prefetch_fill 117
Core_0_L1D_prefetch_too_early 12
Core_0_L1D_prefetch_too_early_among_fill 0.102564
Core_0_L1D_prefetch_too_early_among_useless 0.631579
Core_0_L1D_prefetch_pollution_evict 101
Core_0_L1D_prefetch_pollution_demand 101
Core_0_L1D_prefetch_pollution_among_prefetch_fill 0.863248
Core_0_L1D_prefetch_accuracy 0.00380228
Core_0_L1D_prefetch_coverage 6.84721e-05

Core_0_L2C_total_access 4135489
Core_0_L2C_total_hit 2504081
Core_0_L2C_total_miss 1631408
Core_0_L2C_total_MPKI 16.3141
Core_0_L2C_total_miss_rate 0.39449
Core_0_L2C_demand_access 3604079
Core_0_L2C_demand_hit 1992416
Core_0_L2C_demand_miss 1611663
Core_0_L2C_demand_MPKI 16.1166
Core_0_L2C_demand_miss_rate 0.447177
Core_0_L2C_load_access 3448199
Core_0_L2C_load_hit 1917879
Core_0_L2C_load_miss 1530320
Core_0_L2C_load_MPKI 15.3032
Core_0_L2C_load_miss_rate 0.443803
Core_0_L2C_rfo_access 155880
Core_0_L2C_rfo_hit 74537
Core_0_L2C_rfo_miss 81343
Core_0_L2C_rfo_MPKI 0.81343
Core_0_L2C_rfo_miss_rate 0.521831
Core_0_L2C_prefetch_access 32294
Core_0_L2C_prefetch_hit 14980
Core_0_L2C_prefetch_miss 17314
Core_0_L2C_prefetch_MPKI 0.17314
Core_0_L2C_prefetch_miss_rate 0.536137
Core_0_L2C_writeback_access 499116
Core_0_L2C_writeback_hit 496685
Core_0_L2C_writeback_miss 2431
Core_0_L2C_writeback_MPKI 0.02431
Core_0_L2C_writeback_miss_rate 0.00487061
Core_0_L2C_prefetch_requested 31083
Core_0_L2C_prefetch_issued 30989
Core_0_L2C_prefetch_useful 9910
Core_0_L2C_prefetch_useless 6621
Core_0_L2C_prefetch_late 40
Core_0_L2C_prefetch_fill 16775
Core_0_L2C_prefetch_too_early 414
Core_0_L2C_prefetch_too_early_among_fill 0.0246796
Core_0_L2C_prefetch_too_early_among_useless 0.0625283
Core_0_L2C_prefetch_pollution_evict 14822
Core_0_L2C_prefetch_pollution_demand 14821
Core_0_L2C_prefetch_pollution_among_prefetch_fill 0.883577
Core_0_L2C_prefetch_accuracy 0.319791
Core_0_L2C_prefetch_coverage 0.00611135

Core_0_LLC_total_access 1908182
Core_0_LLC_total_hit 1755439
Core_0_LLC_total_miss 152743
Core_0_LLC_total_MPKI 1.52743
Core_0_LLC_total_miss_rate 0.0800463
Core_0_LLC_demand_access 1611621
Core_0_LLC_demand_hit 1472544
Core_0_LLC_demand_miss 139077
Core_0_LLC_demand_MPKI 1.39077
Core_0_LLC_demand_miss_rate 0.0862963
Core_0_LLC_load_access 1530278
Core_0_LLC_load_hit 1415549
Core_0_LLC_load_miss 114729
Core_0_LLC_load_MPKI 1.14729
Core_0_LLC_load_miss_rate 0.0749727
Core_0_LLC_rfo_access 81343
Core_0_LLC_rfo_hit 56995
Core_0_LLC_rfo_miss 24348
Core_0_LLC_rfo_MPKI 0.24348
Core_0_LLC_rfo_miss_rate 0.299325
Core_0_LLC_prefetch_access 16819
Core_0_LLC_prefetch_hit 8412
Core_0_LLC_prefetch_miss 8407
Core_0_LLC_prefetch_MPKI 0.08407
Core_0_LLC_prefetch_miss_rate 0.499851
Core_0_LLC_writeback_access 279742
Core_0_LLC_writeback_hit 274483
Core_0_LLC_writeback_miss 5259
Core_0_LLC_writeback_MPKI 0.05259
Core_0_LLC_writeback_miss_rate 0.0187995
Core_0_LLC_prefetch_requested 0
Core_0_LLC_prefetch_issued 0
Core_0_LLC_prefetch_useful 0
Core_0_LLC_prefetch_useless 0
Core_0_LLC_prefetch_late 0
Core_0_LLC_prefetch_fill 8407
Core_0_LLC_prefetch_too_early 0
Core_0_LLC_prefetch_too_early_among_fill 0
Core_0_LLC_prefetch_too_early_among_useless 0
Core_0_LLC_prefetch_pollution_evict 6119
Core_0_LLC_prefetch_pollution_demand 6119
Core_0_LLC_prefetch_pollution_among_prefetch_fill 0.727846
Core_0_LLC_prefetch_accuracy 0
Core_0_LLC_prefetch_coverage 0

[DRAM Statistics]
Channel_0_RQ_row_buffer_hit 5050
Channel_0_RQ_row_buffer_miss 148002
Channel_0_WQ_row_buffer_hit 22751
Channel_0_WQ_row_buffer_miss 86018
Channel_0_WQ_full 0
Channel_0_dbus_congested 806367
DRAM_total_RQ_row_buffer_hit 5050
DRAM_total_RQ_row_buffer_miss 148002
DRAM_total_WQ_row_buffer_hit 22751
DRAM_total_WQ_row_buffer_miss 86018
DRAM_total_WQ_full 0
DRAM_total_dbus_congested 806367
DRAM_avg_congested_cycle 15.8471

====== DRAM_RQ_TRAFFIC ========
DRAM_RQ_READ_TRAFFIC_BREAKDOWN:
data_demand_read.count = 132916
data_demand_read.share = 86.84%

inst_demand_read.count = 6162
inst_demand_read.share = 4.03%

cache_inst_prefetch.count = 0
cache_inst_prefetch.share = 0.00%

cache_data_prefetch.count = 8407
cache_data_prefetch.share = 5.49%

stlb_data_demand.count = 5358
stlb_data_demand.share = 3.50%

stlb_inst_demand.count = 214
stlb_inst_demand.share = 0.14%

stlb_l1i_pref.count = 0
stlb_l1i_pref.share = 0.00%

stlb_l1d_pref.count = 0
stlb_l1d_pref.share = 0.00%

DRAM_RQ_READ_TRAFFIC_SUMMARY:
cache_demand.count = 139078
cache_demand.share = 90.87%

cache_prefetch.count = 8407
cache_prefetch.share = 5.49%

stlb_demand.count = 5572
stlb_demand.share = 3.64%

stlb_prefetch.count = 0
stlb_prefetch.share = 0.00%

DRAM_RQ_READ_TRAFFIC_DEBUG:
total_classified_read.count = 153057
unclassified_read.count = 0
total_read_with_other.count = 153057

classified_plus_unclassified_check.count = 153057
dram_rq_read_total_observed.count = 153057
dram_rq_read_total_observed.per_1K_instructions = 1.53057

STLB_MISS_PTW_DRAM_TOUCH_BREAKDOWN:
stlb_miss_total.count = 190168

stlb_miss_touch_dram.count = 5557
stlb_miss_touch_dram.share = 2.92%

stlb_miss_no_dram_touch.count = 184611
stlb_miss_no_dram_touch.share = 97.08%

STLB_MISS_PTW_DRAM_TOUCH_DEBUG:
stlb_miss_touch_plus_no_touch.count = 190168
stlb_miss_total_check.count = 190168

======STLB miss causes ========
Core_0_STLB_miss_cause_breakdown
Core_0_STLB_cause_Demand_Data_miss 122883
Core_0_STLB_cause_Demand_Data_miss_rate 0.0798572
Core_0_STLB_cause_Demand_Instruction_miss 67280
Core_0_STLB_cause_Demand_Instruction_miss_rate 0.0437228
Core_0_STLB_cause_L1D_Prefetch_miss 5
Core_0_STLB_cause_L1D_Prefetch_miss_rate 3.24932e-06
Core_0_STLB_cause_L1D_Prefetch_Same_Page_miss 0
Core_0_STLB_cause_L1D_Prefetch_Same_Page_miss_rate 0
Core_0_STLB_cause_L1D_Prefetch_Cross_Page_miss 5
Core_0_STLB_cause_L1D_Prefetch_Cross_Page_miss_rate 3.24932e-06
Core_0_STLB_cause_L1I_Prefetch_miss 0
Core_0_STLB_cause_L1I_Prefetch_miss_rate 0
Core_0_STLB_cause_Other_miss 0
Core_0_STLB_cause_Other_miss_rate 0
Core_0_STLB_Demand_miss 190163
Core_0_STLB_Demand_miss_rate 0.12358
Core_0_STLB_L1D_Prefetch_miss 5
Core_0_STLB_L1D_Prefetch_miss_rate 3.24932e-06
Core_0_STLB_Other_miss 0
Core_0_STLB_Other_miss_rate 0

========== vBerti-TLB Cross-page Flow Stats ==========

Core_0_vBerti_Requested 30426
Core_0_vBerti_Cross_page_prefetch_in_Requested 6585
Core_0_vBerti_Same_page_prefetch_in_Requested 23841
Core_0_vBerti_Cross_page_prefetch_of_Requested 0.216427
Core_0_vBerti_Issued 25774
Core_0_vBerti_InPQ_Same_page_prefetch 20898
Core_0_vBerti_InPQ_Cross_page_prefetch 4876
Core_0_vBerti_PQ_Drop_Rate 0.152896
Core_0_vBerti_InPQ_Cross_page_prefetch_of_Requested 0.160258
Core_0_vBerti_Cross_page_PQ_Drop_rate 0.259529
Core_0_vBerti_Cross_page_prefetch_of_Issued 0.189183
Core_0_CP_PF_PQFULL_drop 1709
Core_0_CP_PF_PQFULL_TLB_rescue_enqueued 1709
Core_0_CP_PF_PQFULL_TLB_rescue_issued 1709
Core_0_CP_PF_PQFULL_TLB_rescue_translated 1709

========= DTLB_vBerti Prefetch Stats =========
Core_0_DTLB_demand_access 21523769
Core_0_DTLB_demand_hit 19912776
Core_0_DTLB_demand_miss 1610993
Core_0_DTLB_demand_mshr_merge 426948
Core_0_DTLB_demand_fill 1184047
Core_0_DTLB_demand_miss_rate 0.0748472
Core_0_DTLB_demand_mpki 16.1099
Core_0_DTLB_vberti_prefetch_access 19639
Core_0_DTLB_vberti_prefetch_hit 19627
Core_0_DTLB_vberti_prefetch_miss 12
Core_0_DTLB_vberti_prefetch_mshr_merge 4
Core_0_DTLB_vberti_prefetch_fill 8
Core_0_DTLB_vberti_prefetch_miss_rate 0.000611029
Core_0_DTLB_vberti_prefetch_mpki 0.00012

=== DTLB_vBerti Same/Cross-page Prefetch Stats ===
Core_0_DTLB_vberti_same_page_prefetch 15561
Core_0_DTLB_vberti_same_page_prefetch_hit 15561
Core_0_DTLB_vberti_same_page_prefetch_miss 0
Core_0_DTLB_vberti_same_page_prefetch_mshr_merge 0
Core_0_DTLB_vberti_same_page_prefetch_fill 0
Core_0_DTLB_vberti_same_page_prefetch_miss_rate 0
Core_0_DTLB_vberti_same_page_prefetch_mpki 0
Core_0_DTLB_vberti_cross_page_prefetch 4078
Core_0_DTLB_vberti_cross_page_prefetch_hit 4066
Core_0_DTLB_vberti_cross_page_prefetch_miss 12
Core_0_DTLB_vberti_cross_page_prefetch_mshr_merge 4
Core_0_DTLB_vberti_cross_page_prefetch_fill 8
Core_0_DTLB_vberti_cross_page_prefetch_miss_rate 0.00294262
Core_0_DTLB_vberti_cross_page_prefetch_mpki 0.00012
Core_0_DTLB_same_page_prefetch_miss_rate 0
Core_0_DTLB_same_page_prefetch_mpki 0
Core_0_DTLB_cross_page_prefetch_miss_rate 0.00294262
Core_0_DTLB_cross_page_prefetch_mpki 0.00012
Core_0_DTLB_cross_page_prefetch_issued 4078
Core_0_DTLB_cross_page_prefetch_lookups 4078
Core_0_DTLB_cross_page_prefetch_useful 3
Core_0_DTLB_cross_page_prefetch_useless 5
Core_0_DTLB_cross_page_prefetch_late 0
Core_0_DTLB_cross_page_prefetch_too_early 0
Core_0_DTLB_cross_page_prefetch_too_early_among_fill 0
Core_0_DTLB_cross_page_prefetch_too_early_among_useless 0
Core_0_DTLB_cross_page_prefetch_pollution_evict 8
Core_0_DTLB_cross_page_prefetch_pollution_demand 8
Core_0_DTLB_cross_page_prefetch_pollution_among_prefetch_fill 1
Core_0_DTLB_cross_page_prefetch_accuracy 0.000735655
Core_0_DTLB_cross_page_prefetch_coverage 1.8622e-06

========= STLB_vBerti Prefetch Stats =========
Core_0_STLB_demand_access 1538776
Core_0_STLB_demand_hit 1348613
Core_0_STLB_demand_miss 190163
Core_0_STLB_demand_mshr_merge 0
Core_0_STLB_demand_fill 190166
Core_0_STLB_demand_miss_rate 0.123581
Core_0_STLB_demand_mpki 1.90163
Core_0_STLB_vberti_prefetch_access 8
Core_0_STLB_vberti_prefetch_hit 3
Core_0_STLB_vberti_prefetch_miss 5
Core_0_STLB_vberti_prefetch_mshr_merge 0
Core_0_STLB_vberti_prefetch_fill 5
Core_0_STLB_vberti_prefetch_miss_rate 0.625
Core_0_STLB_vberti_prefetch_mpki 5e-05

=== STLB_vBerti Same/Cross-page Prefetch Stats ===
Core_0_STLB_vberti_same_page_prefetch 0
Core_0_STLB_vberti_same_page_prefetch_hit 0
Core_0_STLB_vberti_same_page_prefetch_miss 0
Core_0_STLB_vberti_same_page_prefetch_mshr_merge 0
Core_0_STLB_vberti_same_page_prefetch_fill 0
Core_0_STLB_vberti_same_page_prefetch_miss_rate 0
Core_0_STLB_vberti_same_page_prefetch_mpki 0
Core_0_STLB_vberti_cross_page_prefetch 8
Core_0_STLB_vberti_cross_page_prefetch_hit 3
Core_0_STLB_vberti_cross_page_prefetch_miss 5
Core_0_STLB_vberti_cross_page_prefetch_mshr_merge 0
Core_0_STLB_vberti_cross_page_prefetch_fill 5
Core_0_STLB_vberti_cross_page_prefetch_miss_rate 0.625
Core_0_STLB_vberti_cross_page_prefetch_mpki 5e-05
Core_0_STLB_same_page_prefetch_miss_rate 0
Core_0_STLB_same_page_prefetch_mpki 0
Core_0_STLB_cross_page_prefetch_miss_rate 0.625
Core_0_STLB_cross_page_prefetch_mpki 5e-05
Core_0_STLB_cross_page_prefetch_issued 8
Core_0_STLB_cross_page_prefetch_lookups 8
Core_0_STLB_cross_page_prefetch_useful 0
Core_0_STLB_cross_page_prefetch_useless 5
Core_0_STLB_cross_page_prefetch_late 0
Core_0_STLB_cross_page_prefetch_too_early 0
Core_0_STLB_cross_page_prefetch_too_early_among_fill 0
Core_0_STLB_cross_page_prefetch_too_early_among_useless 0
Core_0_STLB_cross_page_prefetch_pollution_evict 5
Core_0_STLB_cross_page_prefetch_pollution_demand 5
Core_0_STLB_cross_page_prefetch_pollution_among_prefetch_fill 1
Core_0_STLB_cross_page_prefetch_accuracy 0
Core_0_STLB_cross_page_prefetch_coverage 0

========= STLB Cross-page Prefetch Buffer Stats =========
Core_0_STLB_raw_demand_miss 122883
Core_0_CP_PB_insert 0
Core_0_CP_PB_demand_hit 0
Core_0_STLB_PB_demand_miss 122883
Core_0_CP_PB_coverage 0
Core_0_STLB_raw_demand_mpki 1.22883
Core_0_STLB_PB_demand_mpki 1.22883
Core_0_CP_PB_demand_hit_mpki 0

Core_0_TLB_demand_miss_rate 0.00883502
Core_0_TLB_demand_mpki 1.90163
Core_0_TLB_same_page_prefetch_miss_rate 0
Core_0_TLB_same_page_prefetch_mpki 0
Core_0_TLB_cross_page_prefetch_miss_rate 0.00122609
Core_0_TLB_cross_page_prefetch_mpki 5e-05
Core_0_TLB_cross_page_prefetch_issued 4078
Core_0_TLB_cross_page_prefetch_lookups 4078
Core_0_TLB_cross_page_prefetch_useful 1
Core_0_TLB_cross_page_prefetch_useless 5
Core_0_TLB_cross_page_prefetch_late 0
Core_0_TLB_cross_page_prefetch_too_early 0
Core_0_TLB_cross_page_prefetch_too_early_among_fill 0
Core_0_TLB_cross_page_prefetch_too_early_among_useless 0
Core_0_TLB_cross_page_prefetch_accuracy 0.000245218
Core_0_TLB_cross_page_prefetch_coverage 5.25862e-06
BERTI TO_L1: 87706 TO_L2: 83258 TO_L2_BC_MSHR: 1374
BERTI AVG_LAT: 27.4335 NUM_TRACK_LATENCY: 1812918 NUM_CANT_TRACK_LATENCY: 1
BERTI CROSS_PAGE 24727 NO_CROSS_PAGE: 146237
BERTI FOUND_BERTI: 1106439 NO_FOUND_BERTI: 31698608
BERTI AVERAGE_ISSUED: 4.04956
