[VMEM] WARNING: physical memory size is smaller than virtual memory size.

*** ChampSim Multicore Out-of-Order Simulator ***
Warmup Instructions: 50000000
Simulation Instructions: 100000000
Number of CPUs: 1
Page size: 4096
Core 0: /data0/tzh/champsim_traces/QMM/srv_3_new.xz
VBerti Prefetcher
BERTI HASH ENTANGLING
BERTI IP MASK ffff
Off-chip DRAM Size: 16 GiB Channels: 1 Width: 64-bit Data Rate: 3205 MT/s
[BTB] WARNING: target of return is a lower address than the corresponding call. This is usually a problem with your trace.
[BTB] WARNING: target of return is a lower address than the corresponding call. This is usually a problem with your trace.
[BTB] WARNING: target of return is a lower address than the corresponding call. This is usually a problem with your trace.
[BTB] WARNING: target of return is a lower address than the corresponding call. This is usually a problem with your trace.
[BTB] WARNING: target of return is a lower address than the corresponding call. This is usually a problem with your trace.
[BTB] WARNING: target of return is a lower address than the corresponding call. This is usually a problem with your trace.
[BTB] WARNING: target of return is a lower address than the corresponding call. This is usually a problem with your trace.
[BTB] WARNING: target of return is a lower address than the corresponding call. This is usually a problem with your trace.
[BTB] WARNING: target of return is a lower address than the corresponding call. This is usually a problem with your trace.
[BTB] WARNING: target of return is a lower address than the corresponding call. This is usually a problem with your trace.
*** Reached end of trace: (0, "/data0/tzh/champsim_traces/QMM/srv_3_new.xz")
Warmup halting CPU 0 at instruction 50000002 cycle 10875109 for remainder of phase
Warmup finished CPU 0 instructions: 50000002 cycles: 10875109 cumulative IPC: 4.598 (Simulation time: 00 hr 02 min 39 sec)
Warmup complete CPU 0 instructions: 50000002 cycles: 10875109 cumulative IPC: 4.598 (Simulation time: 00 hr 02 min 39 sec)
*** Reached end of trace: (0, "/data0/tzh/champsim_traces/QMM/srv_3_new.xz")
*** Reached end of trace: (0, "/data0/tzh/champsim_traces/QMM/srv_3_new.xz")
*** Reached end of trace: (0, "/data0/tzh/champsim_traces/QMM/srv_3_new.xz")
Simulation finished CPU 0 instructions: 100000000 cycles: 54716378 cumulative IPC: 1.828 (Simulation time: 00 hr 11 min 15 sec)
Simulation complete CPU 0 instructions: 100000000 cycles: 54716378 cumulative IPC: 1.828 (Simulation time: 00 hr 11 min 15 sec)

ChampSim completed all CPUs

=== Simulation ===
CPU 0 runs /data0/tzh/champsim_traces/QMM/srv_3_new.xz

Region of Interest Statistics

CPU 0 cumulative IPC: 1.828 instructions: 100000000 cycles: 54716378
CPU 0 Branch Prediction Accuracy: 98.47% MPKI: 2.733 Average ROB Occupancy at Mispredict: 139.4
Branch type MPKI
BRANCH_DIRECT_JUMP: 0.166
BRANCH_INDIRECT: 0.2771
BRANCH_CONDITIONAL: 1.459
BRANCH_DIRECT_CALL: 0.3226
BRANCH_INDIRECT_CALL: 0.2174
BRANCH_RETURN: 0.291

cpu0->cpu0_STLB TOTAL        ACCESS:    1525131 HIT:    1359652 MISS:     165479 MSHR_MERGE:          0
cpu0->cpu0_STLB LOAD         ACCESS:    1525131 HIT:    1359652 MISS:     165479 MSHR_MERGE:          0
cpu0->cpu0_STLB RFO          ACCESS:          0 HIT:          0 MISS:          0 MSHR_MERGE:          0
cpu0->cpu0_STLB PREFETCH     ACCESS:          0 HIT:          0 MISS:          0 MSHR_MERGE:          0
cpu0->cpu0_STLB WRITE        ACCESS:          0 HIT:          0 MISS:          0 MSHR_MERGE:          0
cpu0->cpu0_STLB TRANSLATION  ACCESS:          0 HIT:          0 MISS:          0 MSHR_MERGE:          0
cpu0->cpu0_STLB PREFETCH REQUESTED:          0 ISSUED:          0 USEFUL:          0 USELESS:          0 LATE:          0 TOO_EARLY:          0
cpu0->cpu0_STLB AVERAGE MISS LATENCY: 36.85 cycles
cpu0->cpu0_L2C TOTAL        ACCESS:    4515469 HIT:    2877969 MISS:    1637500 MSHR_MERGE:       1037
cpu0->cpu0_L2C LOAD         ACCESS:    3638173 HIT:    2202845 MISS:    1435328 MSHR_MERGE:        108
cpu0->cpu0_L2C RFO          ACCESS:     166122 HIT:      82089 MISS:      84033 MSHR_MERGE:          0
cpu0->cpu0_L2C PREFETCH     ACCESS:      36963 HIT:      18400 MISS:      18563 MSHR_MERGE:        929
cpu0->cpu0_L2C WRITE        ACCESS:     519929 HIT:     517415 MISS:       2514 MSHR_MERGE:          0
cpu0->cpu0_L2C TRANSLATION  ACCESS:     154282 HIT:      57220 MISS:      97062 MSHR_MERGE:          0
cpu0->cpu0_L2C PREFETCH REQUESTED:      36928 ISSUED:      36631 USEFUL:      11256 USELESS:       6211 LATE:        108 TOO_EARLY:        449
cpu0->cpu0_L2C AVERAGE MISS LATENCY: 31.3 cycles
cpu0->cpu0_L1I TOTAL        ACCESS:   15533329 HIT:   11384197 MISS:    4149132 MSHR_MERGE:    1595546
cpu0->cpu0_L1I LOAD         ACCESS:   15533329 HIT:   11384197 MISS:    4149132 MSHR_MERGE:    1595546
cpu0->cpu0_L1I RFO          ACCESS:          0 HIT:          0 MISS:          0 MSHR_MERGE:          0
cpu0->cpu0_L1I PREFETCH     ACCESS:          0 HIT:          0 MISS:          0 MSHR_MERGE:          0
cpu0->cpu0_L1I WRITE        ACCESS:          0 HIT:          0 MISS:          0 MSHR_MERGE:          0
cpu0->cpu0_L1I TRANSLATION  ACCESS:          0 HIT:          0 MISS:          0 MSHR_MERGE:          0
cpu0->cpu0_L1I PREFETCH REQUESTED:          0 ISSUED:          0 USEFUL:          0 USELESS:          0 LATE:          0 TOO_EARLY:          0
cpu0->cpu0_L1I AVERAGE MISS LATENCY: 13.79 cycles
cpu0->cpu0_L1D TOTAL        ACCESS:   23350938 HIT:   21276319 MISS:    2074619 MSHR_MERGE:     669261
cpu0->cpu0_L1D LOAD         ACCESS:   13027923 HIT:   11564884 MISS:    1463039 MSHR_MERGE:     378436
cpu0->cpu0_L1D RFO          ACCESS:          0 HIT:          0 MISS:          0 MSHR_MERGE:          0
cpu0->cpu0_L1D PREFETCH     ACCESS:       3285 HIT:       2953 MISS:        332 MSHR_MERGE:          0
cpu0->cpu0_L1D WRITE        ACCESS:    9943593 HIT:    9489674 MISS:     453919 MSHR_MERGE:     287778
cpu0->cpu0_L1D TRANSLATION  ACCESS:     376137 HIT:     218808 MISS:     157329 MSHR_MERGE:       3047
cpu0->cpu0_L1D PREFETCH REQUESTED:       3872 ISSUED:       3285 USEFUL:         10 USELESS:          9 LATE:          0 TOO_EARLY:          0
cpu0->cpu0_L1D AVERAGE MISS LATENCY: 33.58 cycles
cpu0->cpu0_ITLB TOTAL        ACCESS:   13223460 HIT:   12246131 MISS:     977329 MSHR_MERGE:     609265
cpu0->cpu0_ITLB LOAD         ACCESS:   13223460 HIT:   12246131 MISS:     977329 MSHR_MERGE:     609265
cpu0->cpu0_ITLB RFO          ACCESS:          0 HIT:          0 MISS:          0 MSHR_MERGE:          0
cpu0->cpu0_ITLB PREFETCH     ACCESS:          0 HIT:          0 MISS:          0 MSHR_MERGE:          0
cpu0->cpu0_ITLB WRITE        ACCESS:          0 HIT:          0 MISS:          0 MSHR_MERGE:          0
cpu0->cpu0_ITLB TRANSLATION  ACCESS:          0 HIT:          0 MISS:          0 MSHR_MERGE:          0
cpu0->cpu0_ITLB PREFETCH REQUESTED:          0 ISSUED:          0 USEFUL:          0 USELESS:          0 LATE:          0 TOO_EARLY:          0
cpu0->cpu0_ITLB AVERAGE MISS LATENCY: 9.121 cycles
cpu0->cpu0_DTLB TOTAL        ACCESS:   21625240 HIT:   20032321 MISS:    1592919 MSHR_MERGE:     435852
cpu0->cpu0_DTLB LOAD         ACCESS:   21625240 HIT:   20032321 MISS:    1592919 MSHR_MERGE:     435852
cpu0->cpu0_DTLB RFO          ACCESS:          0 HIT:          0 MISS:          0 MSHR_MERGE:          0
cpu0->cpu0_DTLB PREFETCH     ACCESS:          0 HIT:          0 MISS:          0 MSHR_MERGE:          0
cpu0->cpu0_DTLB WRITE        ACCESS:          0 HIT:          0 MISS:          0 MSHR_MERGE:          0
cpu0->cpu0_DTLB TRANSLATION  ACCESS:          0 HIT:          0 MISS:          0 MSHR_MERGE:          0
cpu0->cpu0_DTLB PREFETCH REQUESTED:          0 ISSUED:          0 USEFUL:          0 USELESS:          0 LATE:          0 TOO_EARLY:          0
cpu0->cpu0_DTLB AVERAGE MISS LATENCY: 9.118 cycles
cpu0->LLC TOTAL        ACCESS:    1908596 HIT:    1753986 MISS:     154610 MSHR_MERGE:          0
cpu0->LLC LOAD         ACCESS:    1435220 HIT:    1322801 MISS:     112419 MSHR_MERGE:          0
cpu0->LLC RFO          ACCESS:      84033 HIT:      62520 MISS:      21513 MSHR_MERGE:          0
cpu0->LLC PREFETCH     ACCESS:      17634 HIT:       7331 MISS:      10303 MSHR_MERGE:          0
cpu0->LLC WRITE        ACCESS:     274647 HIT:     270399 MISS:       4248 MSHR_MERGE:          0
cpu0->LLC TRANSLATION  ACCESS:      97062 HIT:      90935 MISS:       6127 MSHR_MERGE:          0
cpu0->LLC PREFETCH REQUESTED:          0 ISSUED:          0 USEFUL:          0 USELESS:          0 LATE:          0 TOO_EARLY:          0
cpu0->LLC AVERAGE MISS LATENCY: 182.1 cycles

DRAM Statistics

Channel 0 RQ ROW_BUFFER_HIT:       5954
  ROW_BUFFER_MISS:     144406
  AVG DBUS CONGESTED CYCLE: 15.85
Channel 0 WQ ROW_BUFFER_HIT:      23780
  ROW_BUFFER_MISS:      80673
  FULL:          0
Channel 0 REFRESHES ISSUED:       4559

[ROI Statistics]
[System Configuration]
num_cpus 1
cpu_freq 4000
fetch_width 6
decode_width 6
dispatch_width 6
execute_width 6
lq_width 2
sq_width 2
retire_width 6
scheduler_size 128
branch_mispredict_penalty 15
rob_size 352
lq_size 128
sq_size 72
ifetch_buffer_size 64
decode_buffer_size 32
dispatch_buffer_size 32
register_file_size 288
decode_latency 1
dispatch_latency 1
schedule_latency 1
execute_latency 1
page_size 4096
block_size 64
core_0_itlb_set 16
core_0_itlb_way 4
core_0_itlb_rq_size 16
core_0_itlb_wq_size 16
core_0_itlb_pq_size 0
core_0_itlb_mshr_size 8
core_0_itlb_hit_latency 1
core_0_itlb_fill_latency 1
core_0_itlb_max_tag_check 2
core_0_itlb_max_fill 2
core_0_dtlb_set 16
core_0_dtlb_way 4
core_0_dtlb_rq_size 16
core_0_dtlb_wq_size 16
core_0_dtlb_pq_size 0
core_0_dtlb_mshr_size 8
core_0_dtlb_hit_latency 1
core_0_dtlb_fill_latency 1
core_0_dtlb_max_tag_check 2
core_0_dtlb_max_fill 2
core_0_stlb_set 128
core_0_stlb_way 12
core_0_stlb_rq_size 32
core_0_stlb_wq_size 32
core_0_stlb_pq_size 0
core_0_stlb_mshr_size 16
core_0_stlb_hit_latency 4
core_0_stlb_fill_latency 4
core_0_stlb_max_tag_check 1
core_0_stlb_max_fill 1
core_0_l1i_set 64
core_0_l1i_way 8
core_0_l1i_rq_size 64
core_0_l1i_wq_size 64
core_0_l1i_pq_size 32
core_0_l1i_mshr_size 8
core_0_l1i_hit_latency 2
core_0_l1i_fill_latency 2
core_0_l1i_max_tag_check 2
core_0_l1i_max_fill 2
core_0_l1d_set 64
core_0_l1d_way 12
core_0_l1d_rq_size 64
core_0_l1d_wq_size 64
core_0_l1d_pq_size 8
core_0_l1d_mshr_size 16
core_0_l1d_hit_latency 2
core_0_l1d_fill_latency 3
core_0_l1d_max_tag_check 2
core_0_l1d_max_fill 2
core_0_l2c_set 1024
core_0_l2c_way 8
core_0_l2c_rq_size 32
core_0_l2c_wq_size 32
core_0_l2c_pq_size 16
core_0_l2c_mshr_size 32
core_0_l2c_hit_latency 5
core_0_l2c_fill_latency 5
core_0_l2c_max_tag_check 1
core_0_l2c_max_fill 1
llc_set 2048
llc_way 16
llc_rq_size 32
llc_wq_size 32
llc_pq_size 32
llc_mshr_size 64
llc_hit_latency 10
llc_fill_latency 10
llc_max_tag_check 1
llc_max_fill 1
dram_channels 1
dram_ranks 1
dram_bankgroups 8
dram_banks 4
dram_rows 65536
dram_columns 1024
dram_channel_width 8
dram_rq_size 64
dram_wq_size 64
dram_size 17179869184
core_0_itlb_prefetcher no
core_0_dtlb_prefetcher no
core_0_stlb_prefetcher no
core_0_l1i_prefetcher next_line
core_0_l1d_prefetcher vberti
core_0_l2c_prefetcher ip_stride
llc_prefetcher no
llc_replacement drrip

Core_0_instructions 100000000
Core_0_cycles 54716378
Core_0_IPC 1.82761
Core_0_branch_prediction_accuracy 98.4746
Core_0_branch_MPKI 2.73299
Core_0_average_ROB_occupancy_at_mispredict 139.372

Core_0_ITLB_total_access 13223460
Core_0_ITLB_total_hit 12246131
Core_0_ITLB_total_miss 977329
Core_0_ITLB_total_MPKI 9.77329
Core_0_ITLB_total_miss_rate 0.0739087
Core_0_ITLB_demand_access 13223460
Core_0_ITLB_demand_hit 12246131
Core_0_ITLB_demand_miss 977329
Core_0_ITLB_demand_MPKI 9.77329
Core_0_ITLB_demand_miss_rate 0.0739087
Core_0_ITLB_load_access 13223460
Core_0_ITLB_load_hit 12246131
Core_0_ITLB_load_miss 977329
Core_0_ITLB_load_MPKI 9.77329
Core_0_ITLB_load_miss_rate 0.0739087
Core_0_ITLB_rfo_access 0
Core_0_ITLB_rfo_hit 0
Core_0_ITLB_rfo_miss 0
Core_0_ITLB_rfo_MPKI 0
Core_0_ITLB_rfo_miss_rate 0
Core_0_ITLB_prefetch_access 0
Core_0_ITLB_prefetch_hit 0
Core_0_ITLB_prefetch_miss 0
Core_0_ITLB_prefetch_MPKI 0
Core_0_ITLB_prefetch_miss_rate 0
Core_0_ITLB_writeback_access 0
Core_0_ITLB_writeback_hit 0
Core_0_ITLB_writeback_miss 0
Core_0_ITLB_writeback_MPKI 0
Core_0_ITLB_writeback_miss_rate 0
Core_0_ITLB_prefetch_requested 0
Core_0_ITLB_prefetch_issued 0
Core_0_ITLB_prefetch_useful 0
Core_0_ITLB_prefetch_useless 0
Core_0_ITLB_prefetch_late 0
Core_0_ITLB_prefetch_fill 0
Core_0_ITLB_prefetch_too_early 0
Core_0_ITLB_prefetch_too_early_among_fill 0
Core_0_ITLB_prefetch_too_early_among_useless 0
Core_0_ITLB_prefetch_pollution_evict 0
Core_0_ITLB_prefetch_pollution_demand 0
Core_0_ITLB_prefetch_pollution_among_prefetch_fill 0
Core_0_ITLB_prefetch_accuracy 0
Core_0_ITLB_prefetch_coverage 0

Core_0_DTLB_total_access 21625240
Core_0_DTLB_total_hit 20032321
Core_0_DTLB_total_miss 1592919
Core_0_DTLB_total_MPKI 15.9292
Core_0_DTLB_total_miss_rate 0.0736602
Core_0_DTLB_demand_access 21625240
Core_0_DTLB_demand_hit 20032321
Core_0_DTLB_demand_miss 1592919
Core_0_DTLB_demand_MPKI 15.9292
Core_0_DTLB_demand_miss_rate 0.0736602
Core_0_DTLB_load_access 21625240
Core_0_DTLB_load_hit 20032321
Core_0_DTLB_load_miss 1592919
Core_0_DTLB_load_MPKI 15.9292
Core_0_DTLB_load_miss_rate 0.0736602
Core_0_DTLB_rfo_access 0
Core_0_DTLB_rfo_hit 0
Core_0_DTLB_rfo_miss 0
Core_0_DTLB_rfo_MPKI 0
Core_0_DTLB_rfo_miss_rate 0
Core_0_DTLB_prefetch_access 0
Core_0_DTLB_prefetch_hit 0
Core_0_DTLB_prefetch_miss 0
Core_0_DTLB_prefetch_MPKI 0
Core_0_DTLB_prefetch_miss_rate 0
Core_0_DTLB_writeback_access 0
Core_0_DTLB_writeback_hit 0
Core_0_DTLB_writeback_miss 0
Core_0_DTLB_writeback_MPKI 0
Core_0_DTLB_writeback_miss_rate 0
Core_0_DTLB_prefetch_requested 0
Core_0_DTLB_prefetch_issued 0
Core_0_DTLB_prefetch_useful 0
Core_0_DTLB_prefetch_useless 0
Core_0_DTLB_prefetch_late 0
Core_0_DTLB_prefetch_fill 0
Core_0_DTLB_prefetch_too_early 0
Core_0_DTLB_prefetch_too_early_among_fill 0
Core_0_DTLB_prefetch_too_early_among_useless 0
Core_0_DTLB_prefetch_pollution_evict 0
Core_0_DTLB_prefetch_pollution_demand 0
Core_0_DTLB_prefetch_pollution_among_prefetch_fill 0
Core_0_DTLB_prefetch_accuracy 0
Core_0_DTLB_prefetch_coverage 0

Core_0_STLB_total_access 1525131
Core_0_STLB_total_hit 1359652
Core_0_STLB_total_miss 165479
Core_0_STLB_total_MPKI 1.65479
Core_0_STLB_total_miss_rate 0.108501
Core_0_STLB_demand_access 1525131
Core_0_STLB_demand_hit 1359652
Core_0_STLB_demand_miss 165479
Core_0_STLB_demand_MPKI 1.65479
Core_0_STLB_demand_miss_rate 0.108501
Core_0_STLB_load_access 1525131
Core_0_STLB_load_hit 1359652
Core_0_STLB_load_miss 165479
Core_0_STLB_load_MPKI 1.65479
Core_0_STLB_load_miss_rate 0.108501
Core_0_STLB_rfo_access 0
Core_0_STLB_rfo_hit 0
Core_0_STLB_rfo_miss 0
Core_0_STLB_rfo_MPKI 0
Core_0_STLB_rfo_miss_rate 0
Core_0_STLB_prefetch_access 0
Core_0_STLB_prefetch_hit 0
Core_0_STLB_prefetch_miss 0
Core_0_STLB_prefetch_MPKI 0
Core_0_STLB_prefetch_miss_rate 0
Core_0_STLB_writeback_access 0
Core_0_STLB_writeback_hit 0
Core_0_STLB_writeback_miss 0
Core_0_STLB_writeback_MPKI 0
Core_0_STLB_writeback_miss_rate 0
Core_0_STLB_prefetch_requested 0
Core_0_STLB_prefetch_issued 0
Core_0_STLB_prefetch_useful 0
Core_0_STLB_prefetch_useless 0
Core_0_STLB_prefetch_late 0
Core_0_STLB_prefetch_fill 0
Core_0_STLB_prefetch_too_early 0
Core_0_STLB_prefetch_too_early_among_fill 0
Core_0_STLB_prefetch_too_early_among_useless 0
Core_0_STLB_prefetch_pollution_evict 0
Core_0_STLB_prefetch_pollution_demand 0
Core_0_STLB_prefetch_pollution_among_prefetch_fill 0
Core_0_STLB_prefetch_accuracy 0
Core_0_STLB_prefetch_coverage 0

Core_0_L1I_total_access 15533329
Core_0_L1I_total_hit 11384197
Core_0_L1I_total_miss 4149132
Core_0_L1I_total_MPKI 41.4913
Core_0_L1I_total_miss_rate 0.267112
Core_0_L1I_demand_access 15533329
Core_0_L1I_demand_hit 11384197
Core_0_L1I_demand_miss 4149132
Core_0_L1I_demand_MPKI 41.4913
Core_0_L1I_demand_miss_rate 0.267112
Core_0_L1I_load_access 15533329
Core_0_L1I_load_hit 11384197
Core_0_L1I_load_miss 4149132
Core_0_L1I_load_MPKI 41.4913
Core_0_L1I_load_miss_rate 0.267112
Core_0_L1I_rfo_access 0
Core_0_L1I_rfo_hit 0
Core_0_L1I_rfo_miss 0
Core_0_L1I_rfo_MPKI 0
Core_0_L1I_rfo_miss_rate 0
Core_0_L1I_prefetch_access 0
Core_0_L1I_prefetch_hit 0
Core_0_L1I_prefetch_miss 0
Core_0_L1I_prefetch_MPKI 0
Core_0_L1I_prefetch_miss_rate 0
Core_0_L1I_writeback_access 0
Core_0_L1I_writeback_hit 0
Core_0_L1I_writeback_miss 0
Core_0_L1I_writeback_MPKI 0
Core_0_L1I_writeback_miss_rate 0
Core_0_L1I_prefetch_requested 0
Core_0_L1I_prefetch_issued 0
Core_0_L1I_prefetch_useful 0
Core_0_L1I_prefetch_useless 0
Core_0_L1I_prefetch_late 0
Core_0_L1I_prefetch_fill 0
Core_0_L1I_prefetch_too_early 0
Core_0_L1I_prefetch_too_early_among_fill 0
Core_0_L1I_prefetch_too_early_among_useless 0
Core_0_L1I_prefetch_pollution_evict 0
Core_0_L1I_prefetch_pollution_demand 0
Core_0_L1I_prefetch_pollution_among_prefetch_fill 0
Core_0_L1I_prefetch_accuracy 0
Core_0_L1I_prefetch_coverage 0

Core_0_L1D_total_access 22974801
Core_0_L1D_total_hit 21057511
Core_0_L1D_total_miss 1917290
Core_0_L1D_total_MPKI 19.1729
Core_0_L1D_total_miss_rate 0.0834519
Core_0_L1D_demand_access 13027923
Core_0_L1D_demand_hit 11564884
Core_0_L1D_demand_miss 1463039
Core_0_L1D_demand_MPKI 14.6304
Core_0_L1D_demand_miss_rate 0.1123
Core_0_L1D_load_access 13027923
Core_0_L1D_load_hit 11564884
Core_0_L1D_load_miss 1463039
Core_0_L1D_load_MPKI 14.6304
Core_0_L1D_load_miss_rate 0.1123
Core_0_L1D_rfo_access 0
Core_0_L1D_rfo_hit 0
Core_0_L1D_rfo_miss 0
Core_0_L1D_rfo_MPKI 0
Core_0_L1D_rfo_miss_rate 0
Core_0_L1D_prefetch_access 3285
Core_0_L1D_prefetch_hit 2953
Core_0_L1D_prefetch_miss 332
Core_0_L1D_prefetch_MPKI 0.00332
Core_0_L1D_prefetch_miss_rate 0.101065
Core_0_L1D_writeback_access 9943593
Core_0_L1D_writeback_hit 9489674
Core_0_L1D_writeback_miss 453919
Core_0_L1D_writeback_MPKI 4.53919
Core_0_L1D_writeback_miss_rate 0.0456494
Core_0_L1D_prefetch_requested 3872
Core_0_L1D_prefetch_issued 3285
Core_0_L1D_prefetch_useful 10
Core_0_L1D_prefetch_useless 9
Core_0_L1D_prefetch_late 0
Core_0_L1D_prefetch_fill 19
Core_0_L1D_prefetch_too_early 0
Core_0_L1D_prefetch_too_early_among_fill 0
Core_0_L1D_prefetch_too_early_among_useless 0
Core_0_L1D_prefetch_pollution_evict 9
Core_0_L1D_prefetch_pollution_demand 9
Core_0_L1D_prefetch_pollution_among_prefetch_fill 0.473684
Core_0_L1D_prefetch_accuracy 0.00304414
Core_0_L1D_prefetch_coverage 6.83504e-06

Core_0_L2C_total_access 4361187
Core_0_L2C_total_hit 2820749
Core_0_L2C_total_miss 1540438
Core_0_L2C_total_MPKI 15.4044
Core_0_L2C_total_miss_rate 0.353215
Core_0_L2C_demand_access 3804295
Core_0_L2C_demand_hit 2284934
Core_0_L2C_demand_miss 1519361
Core_0_L2C_demand_MPKI 15.1936
Core_0_L2C_demand_miss_rate 0.39938
Core_0_L2C_load_access 3638173
Core_0_L2C_load_hit 2202845
Core_0_L2C_load_miss 1435328
Core_0_L2C_load_MPKI 14.3533
Core_0_L2C_load_miss_rate 0.394519
Core_0_L2C_rfo_access 166122
Core_0_L2C_rfo_hit 82089
Core_0_L2C_rfo_miss 84033
Core_0_L2C_rfo_MPKI 0.84033
Core_0_L2C_rfo_miss_rate 0.505851
Core_0_L2C_prefetch_access 36963
Core_0_L2C_prefetch_hit 18400
Core_0_L2C_prefetch_miss 18563
Core_0_L2C_prefetch_MPKI 0.18563
Core_0_L2C_prefetch_miss_rate 0.502205
Core_0_L2C_writeback_access 519929
Core_0_L2C_writeback_hit 517415
Core_0_L2C_writeback_miss 2514
Core_0_L2C_writeback_MPKI 0.02514
Core_0_L2C_writeback_miss_rate 0.00483528
Core_0_L2C_prefetch_requested 36928
Core_0_L2C_prefetch_issued 36631
Core_0_L2C_prefetch_useful 11256
Core_0_L2C_prefetch_useless 6211
Core_0_L2C_prefetch_late 108
Core_0_L2C_prefetch_fill 17522
Core_0_L2C_prefetch_too_early 449
Core_0_L2C_prefetch_too_early_among_fill 0.0256249
Core_0_L2C_prefetch_too_early_among_useless 0.0722911
Core_0_L2C_prefetch_pollution_evict 15242
Core_0_L2C_prefetch_pollution_demand 15231
Core_0_L2C_prefetch_pollution_among_prefetch_fill 0.869878
Core_0_L2C_prefetch_accuracy 0.307281
Core_0_L2C_prefetch_coverage 0.0073539

Core_0_LLC_total_access 1811534
Core_0_LLC_total_hit 1663051
Core_0_LLC_total_miss 148483
Core_0_LLC_total_MPKI 1.48483
Core_0_LLC_total_miss_rate 0.0819653
Core_0_LLC_demand_access 1519253
Core_0_LLC_demand_hit 1385321
Core_0_LLC_demand_miss 133932
Core_0_LLC_demand_MPKI 1.33932
Core_0_LLC_demand_miss_rate 0.0881565
Core_0_LLC_load_access 1435220
Core_0_LLC_load_hit 1322801
Core_0_LLC_load_miss 112419
Core_0_LLC_load_MPKI 1.12419
Core_0_LLC_load_miss_rate 0.0783288
Core_0_LLC_rfo_access 84033
Core_0_LLC_rfo_hit 62520
Core_0_LLC_rfo_miss 21513
Core_0_LLC_rfo_MPKI 0.21513
Core_0_LLC_rfo_miss_rate 0.256007
Core_0_LLC_prefetch_access 17634
Core_0_LLC_prefetch_hit 7331
Core_0_LLC_prefetch_miss 10303
Core_0_LLC_prefetch_MPKI 0.10303
Core_0_LLC_prefetch_miss_rate 0.584269
Core_0_LLC_writeback_access 274647
Core_0_LLC_writeback_hit 270399
Core_0_LLC_writeback_miss 4248
Core_0_LLC_writeback_MPKI 0.04248
Core_0_LLC_writeback_miss_rate 0.0154671
Core_0_LLC_prefetch_requested 0
Core_0_LLC_prefetch_issued 0
Core_0_LLC_prefetch_useful 0
Core_0_LLC_prefetch_useless 0
Core_0_LLC_prefetch_late 0
Core_0_LLC_prefetch_fill 10303
Core_0_LLC_prefetch_too_early 0
Core_0_LLC_prefetch_too_early_among_fill 0
Core_0_LLC_prefetch_too_early_among_useless 0
Core_0_LLC_prefetch_pollution_evict 7382
Core_0_LLC_prefetch_pollution_demand 7382
Core_0_LLC_prefetch_pollution_among_prefetch_fill 0.71649
Core_0_LLC_prefetch_accuracy 0
Core_0_LLC_prefetch_coverage 0

[DRAM Statistics]
Channel_0_RQ_row_buffer_hit 5954
Channel_0_RQ_row_buffer_miss 144406
Channel_0_WQ_row_buffer_hit 23780
Channel_0_WQ_row_buffer_miss 80673
Channel_0_WQ_full 0
Channel_0_dbus_congested 802947
DRAM_total_RQ_row_buffer_hit 5954
DRAM_total_RQ_row_buffer_miss 144406
DRAM_total_WQ_row_buffer_hit 23780
DRAM_total_WQ_row_buffer_miss 80673
DRAM_total_WQ_full 0
DRAM_total_dbus_congested 802947
DRAM_avg_congested_cycle 15.8517

====== DRAM_RQ_TRAFFIC ========
DRAM_RQ_READ_TRAFFIC_BREAKDOWN:
data_demand_read.count = 125252
data_demand_read.share = 83.30%

inst_demand_read.count = 8680
inst_demand_read.share = 5.77%

cache_inst_prefetch.count = 0
cache_inst_prefetch.share = 0.00%

cache_data_prefetch.count = 10303
cache_data_prefetch.share = 6.85%

stlb_data_demand.count = 5893
stlb_data_demand.share = 3.92%

stlb_inst_demand.count = 234
stlb_inst_demand.share = 0.16%

stlb_l1i_pref.count = 0
stlb_l1i_pref.share = 0.00%

stlb_l1d_pref.count = 0
stlb_l1d_pref.share = 0.00%

DRAM_RQ_READ_TRAFFIC_SUMMARY:
cache_demand.count = 133932
cache_demand.share = 89.07%

cache_prefetch.count = 10303
cache_prefetch.share = 6.85%

stlb_demand.count = 6127
stlb_demand.share = 4.07%

stlb_prefetch.count = 0
stlb_prefetch.share = 0.00%

DRAM_RQ_READ_TRAFFIC_DEBUG:
total_classified_read.count = 150362
unclassified_read.count = 0
total_read_with_other.count = 150362

classified_plus_unclassified_check.count = 150362
dram_rq_read_total_observed.count = 150362
dram_rq_read_total_observed.per_1K_instructions = 1.50362

STLB_MISS_PTW_DRAM_TOUCH_BREAKDOWN:
stlb_miss_total.count = 165479

stlb_miss_touch_dram.count = 6121
stlb_miss_touch_dram.share = 3.70%

stlb_miss_no_dram_touch.count = 159358
stlb_miss_no_dram_touch.share = 96.30%

STLB_MISS_PTW_DRAM_TOUCH_DEBUG:
stlb_miss_touch_plus_no_touch.count = 165479
stlb_miss_total_check.count = 165479

======STLB miss causes ========
Core_0_STLB_miss_cause_breakdown
Core_0_STLB_cause_Demand_Data_miss 108260
Core_0_STLB_cause_Demand_Data_miss_rate 0.0709841
Core_0_STLB_cause_Demand_Instruction_miss 57208
Core_0_STLB_cause_Demand_Instruction_miss_rate 0.0375102
Core_0_STLB_cause_L1D_Prefetch_miss 11
Core_0_STLB_cause_L1D_Prefetch_miss_rate 7.2125e-06
Core_0_STLB_cause_L1D_Prefetch_Same_Page_miss 0
Core_0_STLB_cause_L1D_Prefetch_Same_Page_miss_rate 0
Core_0_STLB_cause_L1D_Prefetch_Cross_Page_miss 11
Core_0_STLB_cause_L1D_Prefetch_Cross_Page_miss_rate 7.2125e-06
Core_0_STLB_cause_L1I_Prefetch_miss 0
Core_0_STLB_cause_L1I_Prefetch_miss_rate 0
Core_0_STLB_cause_Other_miss 0
Core_0_STLB_cause_Other_miss_rate 0
Core_0_STLB_Demand_miss 165468
Core_0_STLB_Demand_miss_rate 0.108494
Core_0_STLB_L1D_Prefetch_miss 11
Core_0_STLB_L1D_Prefetch_miss_rate 7.2125e-06
Core_0_STLB_Other_miss 0
Core_0_STLB_Other_miss_rate 0

========== vBerti-TLB Cross-page Flow Stats ==========

Core_0_vBerti_Requested 3872
Core_0_vBerti_Cross_page_prefetch_in_Requested 1092
Core_0_vBerti_Same_page_prefetch_in_Requested 2780
Core_0_vBerti_Cross_page_prefetch_of_Requested 0.282025
Core_0_vBerti_Issued 3285
Core_0_vBerti_InPQ_Same_page_prefetch 2497
Core_0_vBerti_InPQ_Cross_page_prefetch 788
Core_0_vBerti_PQ_Drop_Rate 0.151601
Core_0_vBerti_InPQ_Cross_page_prefetch_of_Requested 0.203512
Core_0_vBerti_Cross_page_PQ_Drop_rate 0.278388
Core_0_vBerti_Cross_page_prefetch_of_Issued 0.239878
Core_0_CP_PF_PQFULL_drop 304
Core_0_CP_PF_PQFULL_TLB_rescue_enqueued 304
Core_0_CP_PF_PQFULL_TLB_rescue_issued 304
Core_0_CP_PF_PQFULL_TLB_rescue_translated 304

========= DTLB_vBerti Prefetch Stats =========
Core_0_DTLB_demand_access 21622618
Core_0_DTLB_demand_hit 20029716
Core_0_DTLB_demand_miss 1592902
Core_0_DTLB_demand_mshr_merge 435852
Core_0_DTLB_demand_fill 1157050
Core_0_DTLB_demand_miss_rate 0.0736683
Core_0_DTLB_demand_mpki 15.929
Core_0_DTLB_vberti_prefetch_access 2622
Core_0_DTLB_vberti_prefetch_hit 2605
Core_0_DTLB_vberti_prefetch_miss 17
Core_0_DTLB_vberti_prefetch_mshr_merge 0
Core_0_DTLB_vberti_prefetch_fill 17
Core_0_DTLB_vberti_prefetch_miss_rate 0.0064836
Core_0_DTLB_vberti_prefetch_mpki 0.00017

=== DTLB_vBerti Same/Cross-page Prefetch Stats ===
Core_0_DTLB_vberti_same_page_prefetch 1911
Core_0_DTLB_vberti_same_page_prefetch_hit 1911
Core_0_DTLB_vberti_same_page_prefetch_miss 0
Core_0_DTLB_vberti_same_page_prefetch_mshr_merge 0
Core_0_DTLB_vberti_same_page_prefetch_fill 0
Core_0_DTLB_vberti_same_page_prefetch_miss_rate 0
Core_0_DTLB_vberti_same_page_prefetch_mpki 0
Core_0_DTLB_vberti_cross_page_prefetch 711
Core_0_DTLB_vberti_cross_page_prefetch_hit 694
Core_0_DTLB_vberti_cross_page_prefetch_miss 17
Core_0_DTLB_vberti_cross_page_prefetch_mshr_merge 0
Core_0_DTLB_vberti_cross_page_prefetch_fill 17
Core_0_DTLB_vberti_cross_page_prefetch_miss_rate 0.02391
Core_0_DTLB_vberti_cross_page_prefetch_mpki 0.00017
Core_0_DTLB_same_page_prefetch_miss_rate 0
Core_0_DTLB_same_page_prefetch_mpki 0
Core_0_DTLB_cross_page_prefetch_miss_rate 0.02391
Core_0_DTLB_cross_page_prefetch_mpki 0.00017
Core_0_DTLB_cross_page_prefetch_issued 711
Core_0_DTLB_cross_page_prefetch_lookups 711
Core_0_DTLB_cross_page_prefetch_useful 0
Core_0_DTLB_cross_page_prefetch_useless 17
Core_0_DTLB_cross_page_prefetch_late 0
Core_0_DTLB_cross_page_prefetch_too_early 0
Core_0_DTLB_cross_page_prefetch_too_early_among_fill 0
Core_0_DTLB_cross_page_prefetch_too_early_among_useless 0
Core_0_DTLB_cross_page_prefetch_pollution_evict 17
Core_0_DTLB_cross_page_prefetch_pollution_demand 17
Core_0_DTLB_cross_page_prefetch_pollution_among_prefetch_fill 1
Core_0_DTLB_cross_page_prefetch_accuracy 0
Core_0_DTLB_cross_page_prefetch_coverage 0

========= STLB_vBerti Prefetch Stats =========
Core_0_STLB_demand_access 1525114
Core_0_STLB_demand_hit 1359646
Core_0_STLB_demand_miss 165468
Core_0_STLB_demand_mshr_merge 0
Core_0_STLB_demand_fill 165468
Core_0_STLB_demand_miss_rate 0.108495
Core_0_STLB_demand_mpki 1.65468
Core_0_STLB_vberti_prefetch_access 17
Core_0_STLB_vberti_prefetch_hit 6
Core_0_STLB_vberti_prefetch_miss 11
Core_0_STLB_vberti_prefetch_mshr_merge 0
Core_0_STLB_vberti_prefetch_fill 11
Core_0_STLB_vberti_prefetch_miss_rate 0.647059
Core_0_STLB_vberti_prefetch_mpki 0.00011

=== STLB_vBerti Same/Cross-page Prefetch Stats ===
Core_0_STLB_vberti_same_page_prefetch 0
Core_0_STLB_vberti_same_page_prefetch_hit 0
Core_0_STLB_vberti_same_page_prefetch_miss 0
Core_0_STLB_vberti_same_page_prefetch_mshr_merge 0
Core_0_STLB_vberti_same_page_prefetch_fill 0
Core_0_STLB_vberti_same_page_prefetch_miss_rate 0
Core_0_STLB_vberti_same_page_prefetch_mpki 0
Core_0_STLB_vberti_cross_page_prefetch 17
Core_0_STLB_vberti_cross_page_prefetch_hit 6
Core_0_STLB_vberti_cross_page_prefetch_miss 11
Core_0_STLB_vberti_cross_page_prefetch_mshr_merge 0
Core_0_STLB_vberti_cross_page_prefetch_fill 11
Core_0_STLB_vberti_cross_page_prefetch_miss_rate 0.647059
Core_0_STLB_vberti_cross_page_prefetch_mpki 0.00011
Core_0_STLB_same_page_prefetch_miss_rate 0
Core_0_STLB_same_page_prefetch_mpki 0
Core_0_STLB_cross_page_prefetch_miss_rate 0.647059
Core_0_STLB_cross_page_prefetch_mpki 0.00011
Core_0_STLB_cross_page_prefetch_issued 17
Core_0_STLB_cross_page_prefetch_lookups 17
Core_0_STLB_cross_page_prefetch_useful 0
Core_0_STLB_cross_page_prefetch_useless 11
Core_0_STLB_cross_page_prefetch_late 0
Core_0_STLB_cross_page_prefetch_too_early 0
Core_0_STLB_cross_page_prefetch_too_early_among_fill 0
Core_0_STLB_cross_page_prefetch_too_early_among_useless 0
Core_0_STLB_cross_page_prefetch_pollution_evict 9
Core_0_STLB_cross_page_prefetch_pollution_demand 9
Core_0_STLB_cross_page_prefetch_pollution_among_prefetch_fill 0.818182
Core_0_STLB_cross_page_prefetch_accuracy 0
Core_0_STLB_cross_page_prefetch_coverage 0

========= STLB Cross-page Prefetch Buffer Stats =========
Core_0_STLB_raw_demand_miss 108260
Core_0_CP_PB_insert 0
Core_0_CP_PB_demand_hit 0
Core_0_STLB_PB_demand_miss 108260
Core_0_CP_PB_coverage 0
Core_0_STLB_raw_demand_mpki 1.0826
Core_0_STLB_PB_demand_mpki 1.0826
Core_0_CP_PB_demand_hit_mpki 0

Core_0_TLB_demand_miss_rate 0.00765254
Core_0_TLB_demand_mpki 1.65468
Core_0_TLB_same_page_prefetch_miss_rate 0
Core_0_TLB_same_page_prefetch_mpki 0
Core_0_TLB_cross_page_prefetch_miss_rate 0.0154712
Core_0_TLB_cross_page_prefetch_mpki 0.00011
Core_0_TLB_cross_page_prefetch_issued 711
Core_0_TLB_cross_page_prefetch_lookups 711
Core_0_TLB_cross_page_prefetch_useful 0
Core_0_TLB_cross_page_prefetch_useless 17
Core_0_TLB_cross_page_prefetch_late 0
Core_0_TLB_cross_page_prefetch_too_early 0
Core_0_TLB_cross_page_prefetch_too_early_among_fill 0
Core_0_TLB_cross_page_prefetch_too_early_among_useless 0
Core_0_TLB_cross_page_prefetch_accuracy 0
Core_0_TLB_cross_page_prefetch_coverage 0
BERTI TO_L1: 77092 TO_L2: 67973 TO_L2_BC_MSHR: 0
BERTI AVG_LAT: 24.7879 NUM_TRACK_LATENCY: 1876128 NUM_CANT_TRACK_LATENCY: 0
BERTI CROSS_PAGE 19833 NO_CROSS_PAGE: 125232
BERTI FOUND_BERTI: 889511 NO_FOUND_BERTI: 31931178
BERTI AVERAGE_ISSUED: 3.42883
