[VMEM] WARNING: physical memory size is smaller than virtual memory size.

*** ChampSim Multicore Out-of-Order Simulator ***
Warmup Instructions: 50000000
Simulation Instructions: 100000000
Number of CPUs: 1
Page size: 4096
Core 0: /data2/zcq/champsim_traces_gap/tc.urand-1112B.champsimtrace.xz
VBerti Prefetcher
BERTI HASH ENTANGLING
BERTI IP MASK ffff
Off-chip DRAM Size: 16 GiB Channels: 1 Width: 64-bit Data Rate: 3205 MT/s
Warmup halting CPU 0 at instruction 50000003 cycle 30779025 for remainder of phase
Warmup finished CPU 0 instructions: 50000003 cycles: 30779025 cumulative IPC: 1.624 (Simulation time: 00 hr 04 min 45 sec)
Warmup complete CPU 0 instructions: 50000003 cycles: 30779025 cumulative IPC: 1.624 (Simulation time: 00 hr 04 min 45 sec)
Simulation finished CPU 0 instructions: 100000002 cycles: 645439141 cumulative IPC: 0.1549 (Simulation time: 00 hr 39 min 48 sec)
Simulation complete CPU 0 instructions: 100000002 cycles: 645439141 cumulative IPC: 0.1549 (Simulation time: 00 hr 39 min 48 sec)

ChampSim completed all CPUs

=== Simulation ===
CPU 0 runs /data2/zcq/champsim_traces_gap/tc.urand-1112B.champsimtrace.xz

Region of Interest Statistics

CPU 0 cumulative IPC: 0.1549 instructions: 100000002 cycles: 645439141
CPU 0 Branch Prediction Accuracy: 76.59% MPKI: 56.23 Average ROB Occupancy at Mispredict: 5.564
Branch type MPKI
BRANCH_DIRECT_JUMP: 0
BRANCH_INDIRECT: 0
BRANCH_CONDITIONAL: 56.23
BRANCH_DIRECT_CALL: 0
BRANCH_INDIRECT_CALL: 0
BRANCH_RETURN: 0

cpu0->cpu0_STLB TOTAL        ACCESS:     829447 HIT:      16993 MISS:     812454 MSHR_MERGE:          0
cpu0->cpu0_STLB LOAD         ACCESS:     829447 HIT:      16993 MISS:     812454 MSHR_MERGE:          0
cpu0->cpu0_STLB RFO          ACCESS:          0 HIT:          0 MISS:          0 MSHR_MERGE:          0
cpu0->cpu0_STLB PREFETCH     ACCESS:          0 HIT:          0 MISS:          0 MSHR_MERGE:          0
cpu0->cpu0_STLB WRITE        ACCESS:          0 HIT:          0 MISS:          0 MSHR_MERGE:          0
cpu0->cpu0_STLB TRANSLATION  ACCESS:          0 HIT:          0 MISS:          0 MSHR_MERGE:          0
cpu0->cpu0_STLB PREFETCH REQUESTED:          0 ISSUED:          0 USEFUL:          0 USELESS:          0 LATE:          0 TOO_EARLY:          0
cpu0->cpu0_STLB AVERAGE MISS LATENCY: 295.8 cycles
cpu0->cpu0_L2C TOTAL        ACCESS:    5115987 HIT:    2152976 MISS:    2963011 MSHR_MERGE:     691590
cpu0->cpu0_L2C LOAD         ACCESS:    1212346 HIT:      78840 MISS:    1133506 MSHR_MERGE:      24459
cpu0->cpu0_L2C RFO          ACCESS:        222 HIT:         60 MISS:        162 MSHR_MERGE:          0
cpu0->cpu0_L2C PREFETCH     ACCESS:    2687458 HIT:    1743811 MISS:     943647 MSHR_MERGE:     667131
cpu0->cpu0_L2C WRITE        ACCESS:        224 HIT:        222 MISS:          2 MSHR_MERGE:          0
cpu0->cpu0_L2C TRANSLATION  ACCESS:    1215737 HIT:     330043 MISS:     885694 MSHR_MERGE:          0
cpu0->cpu0_L2C PREFETCH REQUESTED:     167651 ISSUED:     167651 USEFUL:       6470 USELESS:       5128 LATE:          0 TOO_EARLY:          9
cpu0->cpu0_L2C AVERAGE MISS LATENCY: 169.1 cycles
cpu0->cpu0_L1I TOTAL        ACCESS:          4 HIT:          4 MISS:          0 MSHR_MERGE:          0
cpu0->cpu0_L1I LOAD         ACCESS:          4 HIT:          4 MISS:          0 MSHR_MERGE:          0
cpu0->cpu0_L1I RFO          ACCESS:          0 HIT:          0 MISS:          0 MSHR_MERGE:          0
cpu0->cpu0_L1I PREFETCH     ACCESS:          0 HIT:          0 MISS:          0 MSHR_MERGE:          0
cpu0->cpu0_L1I WRITE        ACCESS:          0 HIT:          0 MISS:          0 MSHR_MERGE:          0
cpu0->cpu0_L1I TRANSLATION  ACCESS:          0 HIT:          0 MISS:          0 MSHR_MERGE:          0
cpu0->cpu0_L1I PREFETCH REQUESTED:          0 ISSUED:          0 USEFUL:          0 USELESS:          0 LATE:          0 TOO_EARLY:          0
cpu0->cpu0_L1I AVERAGE MISS LATENCY: - cycles
cpu0->cpu0_L1D TOTAL        ACCESS:   19947273 HIT:   14456093 MISS:    5491180 MSHR_MERGE:     523880
cpu0->cpu0_L1D LOAD         ACCESS:   12281582 HIT:   10593114 MISS:    1688468 MSHR_MERGE:     476122
cpu0->cpu0_L1D RFO          ACCESS:          0 HIT:          0 MISS:          0 MSHR_MERGE:          0
cpu0->cpu0_L1D PREFETCH     ACCESS:    5067256 HIT:    2480875 MISS:    2586381 MSHR_MERGE:      47386
cpu0->cpu0_L1D WRITE        ACCESS:       1110 HIT:        888 MISS:        222 MSHR_MERGE:          0
cpu0->cpu0_L1D TRANSLATION  ACCESS:    2597325 HIT:    1381216 MISS:    1216109 MSHR_MERGE:        372
cpu0->cpu0_L1D PREFETCH REQUESTED:    5932914 ISSUED:    5067253 USEFUL:      29067 USELESS:       6745 LATE:        862 TOO_EARLY:        918
cpu0->cpu0_L1D AVERAGE MISS LATENCY: 149.5 cycles
cpu0->cpu0_ITLB TOTAL        ACCESS:          3 HIT:          3 MISS:          0 MSHR_MERGE:          0
cpu0->cpu0_ITLB LOAD         ACCESS:          3 HIT:          3 MISS:          0 MSHR_MERGE:          0
cpu0->cpu0_ITLB RFO          ACCESS:          0 HIT:          0 MISS:          0 MSHR_MERGE:          0
cpu0->cpu0_ITLB PREFETCH     ACCESS:          0 HIT:          0 MISS:          0 MSHR_MERGE:          0
cpu0->cpu0_ITLB WRITE        ACCESS:          0 HIT:          0 MISS:          0 MSHR_MERGE:          0
cpu0->cpu0_ITLB TRANSLATION  ACCESS:          0 HIT:          0 MISS:          0 MSHR_MERGE:          0
cpu0->cpu0_ITLB PREFETCH REQUESTED:          0 ISSUED:          0 USEFUL:          0 USELESS:          0 LATE:          0 TOO_EARLY:          0
cpu0->cpu0_ITLB AVERAGE MISS LATENCY: - cycles
cpu0->cpu0_DTLB TOTAL        ACCESS:   15213332 HIT:   14057559 MISS:    1155773 MSHR_MERGE:     326326
cpu0->cpu0_DTLB LOAD         ACCESS:   15213332 HIT:   14057559 MISS:    1155773 MSHR_MERGE:     326326
cpu0->cpu0_DTLB RFO          ACCESS:          0 HIT:          0 MISS:          0 MSHR_MERGE:          0
cpu0->cpu0_DTLB PREFETCH     ACCESS:          0 HIT:          0 MISS:          0 MSHR_MERGE:          0
cpu0->cpu0_DTLB WRITE        ACCESS:          0 HIT:          0 MISS:          0 MSHR_MERGE:          0
cpu0->cpu0_DTLB TRANSLATION  ACCESS:          0 HIT:          0 MISS:          0 MSHR_MERGE:          0
cpu0->cpu0_DTLB PREFETCH REQUESTED:          0 ISSUED:          0 USEFUL:          0 USELESS:          0 LATE:          0 TOO_EARLY:          0
cpu0->cpu0_DTLB AVERAGE MISS LATENCY: 295.7 cycles
cpu0->LLC TOTAL        ACCESS:    2271616 HIT:     238182 MISS:    2033434 MSHR_MERGE:          0
cpu0->LLC LOAD         ACCESS:    1109047 HIT:       1429 MISS:    1107618 MSHR_MERGE:          0
cpu0->LLC RFO          ACCESS:        162 HIT:        162 MISS:          0 MSHR_MERGE:          0
cpu0->LLC PREFETCH     ACCESS:     276516 HIT:         49 MISS:     276467 MSHR_MERGE:          0
cpu0->LLC WRITE        ACCESS:        197 HIT:        195 MISS:          2 MSHR_MERGE:          0
cpu0->LLC TRANSLATION  ACCESS:     885694 HIT:     236347 MISS:     649347 MSHR_MERGE:          0
cpu0->LLC PREFETCH REQUESTED:          0 ISSUED:          0 USEFUL:          0 USELESS:          0 LATE:          0 TOO_EARLY:          0
cpu0->LLC AVERAGE MISS LATENCY: 174.8 cycles

DRAM Statistics

Channel 0 RQ ROW_BUFFER_HIT:         76
  ROW_BUFFER_MISS:    2033356
  AVG DBUS CONGESTED CYCLE: 2.808
Channel 0 WQ ROW_BUFFER_HIT:          0
  ROW_BUFFER_MISS:          1
  FULL:          0
Channel 0 REFRESHES ISSUED:      53787

[ROI Statistics]
[System Configuration]
num_cpus 1
cpu_freq 4000
fetch_width 6
decode_width 6
dispatch_width 6
execute_width 6
lq_width 2
sq_width 2
retire_width 6
scheduler_size 128
branch_mispredict_penalty 15
rob_size 352
lq_size 128
sq_size 72
ifetch_buffer_size 64
decode_buffer_size 32
dispatch_buffer_size 32
register_file_size 288
decode_latency 1
dispatch_latency 1
schedule_latency 1
execute_latency 1
page_size 4096
block_size 64
core_0_itlb_set 16
core_0_itlb_way 4
core_0_itlb_rq_size 16
core_0_itlb_wq_size 16
core_0_itlb_pq_size 0
core_0_itlb_mshr_size 8
core_0_itlb_hit_latency 1
core_0_itlb_fill_latency 1
core_0_itlb_max_tag_check 2
core_0_itlb_max_fill 2
core_0_dtlb_set 16
core_0_dtlb_way 4
core_0_dtlb_rq_size 16
core_0_dtlb_wq_size 16
core_0_dtlb_pq_size 0
core_0_dtlb_mshr_size 8
core_0_dtlb_hit_latency 1
core_0_dtlb_fill_latency 1
core_0_dtlb_max_tag_check 2
core_0_dtlb_max_fill 2
core_0_stlb_set 128
core_0_stlb_way 12
core_0_stlb_rq_size 32
core_0_stlb_wq_size 32
core_0_stlb_pq_size 0
core_0_stlb_mshr_size 16
core_0_stlb_hit_latency 4
core_0_stlb_fill_latency 4
core_0_stlb_max_tag_check 1
core_0_stlb_max_fill 1
core_0_l1i_set 64
core_0_l1i_way 8
core_0_l1i_rq_size 64
core_0_l1i_wq_size 64
core_0_l1i_pq_size 32
core_0_l1i_mshr_size 8
core_0_l1i_hit_latency 2
core_0_l1i_fill_latency 2
core_0_l1i_max_tag_check 2
core_0_l1i_max_fill 2
core_0_l1d_set 64
core_0_l1d_way 12
core_0_l1d_rq_size 64
core_0_l1d_wq_size 64
core_0_l1d_pq_size 8
core_0_l1d_mshr_size 16
core_0_l1d_hit_latency 2
core_0_l1d_fill_latency 3
core_0_l1d_max_tag_check 2
core_0_l1d_max_fill 2
core_0_l2c_set 1024
core_0_l2c_way 8
core_0_l2c_rq_size 32
core_0_l2c_wq_size 32
core_0_l2c_pq_size 16
core_0_l2c_mshr_size 32
core_0_l2c_hit_latency 5
core_0_l2c_fill_latency 5
core_0_l2c_max_tag_check 1
core_0_l2c_max_fill 1
llc_set 2048
llc_way 16
llc_rq_size 32
llc_wq_size 32
llc_pq_size 32
llc_mshr_size 64
llc_hit_latency 10
llc_fill_latency 10
llc_max_tag_check 1
llc_max_fill 1
dram_channels 1
dram_ranks 1
dram_bankgroups 8
dram_banks 4
dram_rows 65536
dram_columns 1024
dram_channel_width 8
dram_rq_size 64
dram_wq_size 64
dram_size 17179869184
core_0_itlb_prefetcher no
core_0_dtlb_prefetcher no
core_0_stlb_prefetcher no
core_0_l1i_prefetcher next_line
core_0_l1d_prefetcher vberti
core_0_l2c_prefetcher ip_stride
llc_prefetcher no
llc_replacement drrip

Core_0_instructions 100000002
Core_0_cycles 645439141
Core_0_IPC 0.154933
Core_0_branch_prediction_accuracy 76.5886
Core_0_branch_MPKI 56.2315
Core_0_average_ROB_occupancy_at_mispredict 5.56398

Core_0_ITLB_total_access 3
Core_0_ITLB_total_hit 3
Core_0_ITLB_total_miss 0
Core_0_ITLB_total_MPKI 0
Core_0_ITLB_total_miss_rate 0
Core_0_ITLB_demand_access 3
Core_0_ITLB_demand_hit 3
Core_0_ITLB_demand_miss 0
Core_0_ITLB_demand_MPKI 0
Core_0_ITLB_demand_miss_rate 0
Core_0_ITLB_load_access 3
Core_0_ITLB_load_hit 3
Core_0_ITLB_load_miss 0
Core_0_ITLB_load_MPKI 0
Core_0_ITLB_load_miss_rate 0
Core_0_ITLB_rfo_access 0
Core_0_ITLB_rfo_hit 0
Core_0_ITLB_rfo_miss 0
Core_0_ITLB_rfo_MPKI 0
Core_0_ITLB_rfo_miss_rate 0
Core_0_ITLB_prefetch_access 0
Core_0_ITLB_prefetch_hit 0
Core_0_ITLB_prefetch_miss 0
Core_0_ITLB_prefetch_MPKI 0
Core_0_ITLB_prefetch_miss_rate 0
Core_0_ITLB_writeback_access 0
Core_0_ITLB_writeback_hit 0
Core_0_ITLB_writeback_miss 0
Core_0_ITLB_writeback_MPKI 0
Core_0_ITLB_writeback_miss_rate 0
Core_0_ITLB_prefetch_requested 0
Core_0_ITLB_prefetch_issued 0
Core_0_ITLB_prefetch_useful 0
Core_0_ITLB_prefetch_useless 0
Core_0_ITLB_prefetch_late 0
Core_0_ITLB_prefetch_fill 0
Core_0_ITLB_prefetch_too_early 0
Core_0_ITLB_prefetch_too_early_among_fill 0
Core_0_ITLB_prefetch_too_early_among_useless 0
Core_0_ITLB_prefetch_pollution_evict 0
Core_0_ITLB_prefetch_pollution_demand 0
Core_0_ITLB_prefetch_pollution_among_prefetch_fill 0
Core_0_ITLB_prefetch_accuracy 0
Core_0_ITLB_prefetch_coverage 0

Core_0_DTLB_total_access 15213332
Core_0_DTLB_total_hit 14057559
Core_0_DTLB_total_miss 1155773
Core_0_DTLB_total_MPKI 11.5577
Core_0_DTLB_total_miss_rate 0.0759711
Core_0_DTLB_demand_access 15213332
Core_0_DTLB_demand_hit 14057559
Core_0_DTLB_demand_miss 1155773
Core_0_DTLB_demand_MPKI 11.5577
Core_0_DTLB_demand_miss_rate 0.0759711
Core_0_DTLB_load_access 15213332
Core_0_DTLB_load_hit 14057559
Core_0_DTLB_load_miss 1155773
Core_0_DTLB_load_MPKI 11.5577
Core_0_DTLB_load_miss_rate 0.0759711
Core_0_DTLB_rfo_access 0
Core_0_DTLB_rfo_hit 0
Core_0_DTLB_rfo_miss 0
Core_0_DTLB_rfo_MPKI 0
Core_0_DTLB_rfo_miss_rate 0
Core_0_DTLB_prefetch_access 0
Core_0_DTLB_prefetch_hit 0
Core_0_DTLB_prefetch_miss 0
Core_0_DTLB_prefetch_MPKI 0
Core_0_DTLB_prefetch_miss_rate 0
Core_0_DTLB_writeback_access 0
Core_0_DTLB_writeback_hit 0
Core_0_DTLB_writeback_miss 0
Core_0_DTLB_writeback_MPKI 0
Core_0_DTLB_writeback_miss_rate 0
Core_0_DTLB_prefetch_requested 0
Core_0_DTLB_prefetch_issued 0
Core_0_DTLB_prefetch_useful 0
Core_0_DTLB_prefetch_useless 0
Core_0_DTLB_prefetch_late 0
Core_0_DTLB_prefetch_fill 0
Core_0_DTLB_prefetch_too_early 0
Core_0_DTLB_prefetch_too_early_among_fill 0
Core_0_DTLB_prefetch_too_early_among_useless 0
Core_0_DTLB_prefetch_pollution_evict 0
Core_0_DTLB_prefetch_pollution_demand 0
Core_0_DTLB_prefetch_pollution_among_prefetch_fill 0
Core_0_DTLB_prefetch_accuracy 0
Core_0_DTLB_prefetch_coverage 0

Core_0_STLB_total_access 829447
Core_0_STLB_total_hit 16993
Core_0_STLB_total_miss 812454
Core_0_STLB_total_MPKI 8.12454
Core_0_STLB_total_miss_rate 0.979513
Core_0_STLB_demand_access 829447
Core_0_STLB_demand_hit 16993
Core_0_STLB_demand_miss 812454
Core_0_STLB_demand_MPKI 8.12454
Core_0_STLB_demand_miss_rate 0.979513
Core_0_STLB_load_access 829447
Core_0_STLB_load_hit 16993
Core_0_STLB_load_miss 812454
Core_0_STLB_load_MPKI 8.12454
Core_0_STLB_load_miss_rate 0.979513
Core_0_STLB_rfo_access 0
Core_0_STLB_rfo_hit 0
Core_0_STLB_rfo_miss 0
Core_0_STLB_rfo_MPKI 0
Core_0_STLB_rfo_miss_rate 0
Core_0_STLB_prefetch_access 0
Core_0_STLB_prefetch_hit 0
Core_0_STLB_prefetch_miss 0
Core_0_STLB_prefetch_MPKI 0
Core_0_STLB_prefetch_miss_rate 0
Core_0_STLB_writeback_access 0
Core_0_STLB_writeback_hit 0
Core_0_STLB_writeback_miss 0
Core_0_STLB_writeback_MPKI 0
Core_0_STLB_writeback_miss_rate 0
Core_0_STLB_prefetch_requested 0
Core_0_STLB_prefetch_issued 0
Core_0_STLB_prefetch_useful 0
Core_0_STLB_prefetch_useless 0
Core_0_STLB_prefetch_late 0
Core_0_STLB_prefetch_fill 0
Core_0_STLB_prefetch_too_early 0
Core_0_STLB_prefetch_too_early_among_fill 0
Core_0_STLB_prefetch_too_early_among_useless 0
Core_0_STLB_prefetch_pollution_evict 0
Core_0_STLB_prefetch_pollution_demand 0
Core_0_STLB_prefetch_pollution_among_prefetch_fill 0
Core_0_STLB_prefetch_accuracy 0
Core_0_STLB_prefetch_coverage 0

Core_0_L1I_total_access 4
Core_0_L1I_total_hit 4
Core_0_L1I_total_miss 0
Core_0_L1I_total_MPKI 0
Core_0_L1I_total_miss_rate 0
Core_0_L1I_demand_access 4
Core_0_L1I_demand_hit 4
Core_0_L1I_demand_miss 0
Core_0_L1I_demand_MPKI 0
Core_0_L1I_demand_miss_rate 0
Core_0_L1I_load_access 4
Core_0_L1I_load_hit 4
Core_0_L1I_load_miss 0
Core_0_L1I_load_MPKI 0
Core_0_L1I_load_miss_rate 0
Core_0_L1I_rfo_access 0
Core_0_L1I_rfo_hit 0
Core_0_L1I_rfo_miss 0
Core_0_L1I_rfo_MPKI 0
Core_0_L1I_rfo_miss_rate 0
Core_0_L1I_prefetch_access 0
Core_0_L1I_prefetch_hit 0
Core_0_L1I_prefetch_miss 0
Core_0_L1I_prefetch_MPKI 0
Core_0_L1I_prefetch_miss_rate 0
Core_0_L1I_writeback_access 0
Core_0_L1I_writeback_hit 0
Core_0_L1I_writeback_miss 0
Core_0_L1I_writeback_MPKI 0
Core_0_L1I_writeback_miss_rate 0
Core_0_L1I_prefetch_requested 0
Core_0_L1I_prefetch_issued 0
Core_0_L1I_prefetch_useful 0
Core_0_L1I_prefetch_useless 0
Core_0_L1I_prefetch_late 0
Core_0_L1I_prefetch_fill 0
Core_0_L1I_prefetch_too_early 0
Core_0_L1I_prefetch_too_early_among_fill 0
Core_0_L1I_prefetch_too_early_among_useless 0
Core_0_L1I_prefetch_pollution_evict 0
Core_0_L1I_prefetch_pollution_demand 0
Core_0_L1I_prefetch_pollution_among_prefetch_fill 0
Core_0_L1I_prefetch_accuracy 0
Core_0_L1I_prefetch_coverage 0

Core_0_L1D_total_access 17349948
Core_0_L1D_total_hit 13074877
Core_0_L1D_total_miss 4275071
Core_0_L1D_total_MPKI 42.7507
Core_0_L1D_total_miss_rate 0.246403
Core_0_L1D_demand_access 12281582
Core_0_L1D_demand_hit 10593114
Core_0_L1D_demand_miss 1688468
Core_0_L1D_demand_MPKI 16.8847
Core_0_L1D_demand_miss_rate 0.13748
Core_0_L1D_load_access 12281582
Core_0_L1D_load_hit 10593114
Core_0_L1D_load_miss 1688468
Core_0_L1D_load_MPKI 16.8847
Core_0_L1D_load_miss_rate 0.13748
Core_0_L1D_rfo_access 0
Core_0_L1D_rfo_hit 0
Core_0_L1D_rfo_miss 0
Core_0_L1D_rfo_MPKI 0
Core_0_L1D_rfo_miss_rate 0
Core_0_L1D_prefetch_access 5067256
Core_0_L1D_prefetch_hit 2480875
Core_0_L1D_prefetch_miss 2586381
Core_0_L1D_prefetch_MPKI 25.8638
Core_0_L1D_prefetch_miss_rate 0.510411
Core_0_L1D_writeback_access 1110
Core_0_L1D_writeback_hit 888
Core_0_L1D_writeback_miss 222
Core_0_L1D_writeback_MPKI 0.00222
Core_0_L1D_writeback_miss_rate 0.2
Core_0_L1D_prefetch_requested 5932914
Core_0_L1D_prefetch_issued 5067253
Core_0_L1D_prefetch_useful 29067
Core_0_L1D_prefetch_useless 6745
Core_0_L1D_prefetch_late 862
Core_0_L1D_prefetch_fill 34944
Core_0_L1D_prefetch_too_early 918
Core_0_L1D_prefetch_too_early_among_fill 0.0262706
Core_0_L1D_prefetch_too_early_among_useless 0.136101
Core_0_L1D_prefetch_pollution_evict 52
Core_0_L1D_prefetch_pollution_demand 41
Core_0_L1D_prefetch_pollution_among_prefetch_fill 0.0014881
Core_0_L1D_prefetch_accuracy 0.00573624
Core_0_L1D_prefetch_coverage 0.0169237

Core_0_L2C_total_access 3900250
Core_0_L2C_total_hit 1822933
Core_0_L2C_total_miss 2077317
Core_0_L2C_total_MPKI 20.7732
Core_0_L2C_total_miss_rate 0.532611
Core_0_L2C_demand_access 1212568
Core_0_L2C_demand_hit 78900
Core_0_L2C_demand_miss 1133668
Core_0_L2C_demand_MPKI 11.3367
Core_0_L2C_demand_miss_rate 0.934931
Core_0_L2C_load_access 1212346
Core_0_L2C_load_hit 78840
Core_0_L2C_load_miss 1133506
Core_0_L2C_load_MPKI 11.3351
Core_0_L2C_load_miss_rate 0.934969
Core_0_L2C_rfo_access 222
Core_0_L2C_rfo_hit 60
Core_0_L2C_rfo_miss 162
Core_0_L2C_rfo_MPKI 0.00162
Core_0_L2C_rfo_miss_rate 0.72973
Core_0_L2C_prefetch_access 2687458
Core_0_L2C_prefetch_hit 1743811
Core_0_L2C_prefetch_miss 943647
Core_0_L2C_prefetch_MPKI 9.43647
Core_0_L2C_prefetch_miss_rate 0.35113
Core_0_L2C_writeback_access 224
Core_0_L2C_writeback_hit 222
Core_0_L2C_writeback_miss 2
Core_0_L2C_writeback_MPKI 2e-05
Core_0_L2C_writeback_miss_rate 0.00892857
Core_0_L2C_prefetch_requested 167651
Core_0_L2C_prefetch_issued 167651
Core_0_L2C_prefetch_useful 6470
Core_0_L2C_prefetch_useless 5128
Core_0_L2C_prefetch_late 0
Core_0_L2C_prefetch_fill 252057
Core_0_L2C_prefetch_too_early 9
Core_0_L2C_prefetch_too_early_among_fill 3.57062e-05
Core_0_L2C_prefetch_too_early_among_useless 0.00175507
Core_0_L2C_prefetch_pollution_evict 191
Core_0_L2C_prefetch_pollution_demand 191
Core_0_L2C_prefetch_pollution_among_prefetch_fill 0.000757765
Core_0_L2C_prefetch_accuracy 0.0385921
Core_0_L2C_prefetch_coverage 0.00567475

Core_0_LLC_total_access 1385922
Core_0_LLC_total_hit 1835
Core_0_LLC_total_miss 1384087
Core_0_LLC_total_MPKI 13.8409
Core_0_LLC_total_miss_rate 0.998676
Core_0_LLC_demand_access 1109209
Core_0_LLC_demand_hit 1591
Core_0_LLC_demand_miss 1107618
Core_0_LLC_demand_MPKI 11.0762
Core_0_LLC_demand_miss_rate 0.998566
Core_0_LLC_load_access 1109047
Core_0_LLC_load_hit 1429
Core_0_LLC_load_miss 1107618
Core_0_LLC_load_MPKI 11.0762
Core_0_LLC_load_miss_rate 0.998712
Core_0_LLC_rfo_access 162
Core_0_LLC_rfo_hit 162
Core_0_LLC_rfo_miss 0
Core_0_LLC_rfo_MPKI 0
Core_0_LLC_rfo_miss_rate 0
Core_0_LLC_prefetch_access 276516
Core_0_LLC_prefetch_hit 49
Core_0_LLC_prefetch_miss 276467
Core_0_LLC_prefetch_MPKI 2.76467
Core_0_LLC_prefetch_miss_rate 0.999823
Core_0_LLC_writeback_access 197
Core_0_LLC_writeback_hit 195
Core_0_LLC_writeback_miss 2
Core_0_LLC_writeback_MPKI 2e-05
Core_0_LLC_writeback_miss_rate 0.0101523
Core_0_LLC_prefetch_requested 0
Core_0_LLC_prefetch_issued 0
Core_0_LLC_prefetch_useful 0
Core_0_LLC_prefetch_useless 0
Core_0_LLC_prefetch_late 0
Core_0_LLC_prefetch_fill 276467
Core_0_LLC_prefetch_too_early 0
Core_0_LLC_prefetch_too_early_among_fill 0
Core_0_LLC_prefetch_too_early_among_useless 0
Core_0_LLC_prefetch_pollution_evict 232
Core_0_LLC_prefetch_pollution_demand 232
Core_0_LLC_prefetch_pollution_among_prefetch_fill 0.00083916
Core_0_LLC_prefetch_accuracy 0
Core_0_LLC_prefetch_coverage 0

[DRAM Statistics]
Channel_0_RQ_row_buffer_hit 76
Channel_0_RQ_row_buffer_miss 2033356
Channel_0_WQ_row_buffer_hit 0
Channel_0_WQ_row_buffer_miss 1
Channel_0_WQ_full 0
Channel_0_dbus_congested 285963
DRAM_total_RQ_row_buffer_hit 76
DRAM_total_RQ_row_buffer_miss 2033356
DRAM_total_WQ_row_buffer_hit 0
DRAM_total_WQ_row_buffer_miss 1
DRAM_total_WQ_full 0
DRAM_total_dbus_congested 285963
DRAM_avg_congested_cycle 2.80802

====== DRAM_RQ_TRAFFIC ========
DRAM_RQ_READ_TRAFFIC_BREAKDOWN:
data_demand_read.count = 1107618
data_demand_read.share = 54.47%

inst_demand_read.count = 0
inst_demand_read.share = 0.00%

cache_inst_prefetch.count = 0
cache_inst_prefetch.share = 0.00%

cache_data_prefetch.count = 276467
cache_data_prefetch.share = 13.60%

stlb_data_demand.count = 648735
stlb_data_demand.share = 31.90%

stlb_inst_demand.count = 0
stlb_inst_demand.share = 0.00%

stlb_l1i_pref.count = 0
stlb_l1i_pref.share = 0.00%

stlb_l1d_pref.count = 612
stlb_l1d_pref.share = 0.03%

DRAM_RQ_READ_TRAFFIC_SUMMARY:
cache_demand.count = 1107618
cache_demand.share = 54.47%

cache_prefetch.count = 276467
cache_prefetch.share = 13.60%

stlb_demand.count = 648735
stlb_demand.share = 31.90%

stlb_prefetch.count = 612
stlb_prefetch.share = 0.03%

DRAM_RQ_READ_TRAFFIC_DEBUG:
total_classified_read.count = 2033432
unclassified_read.count = 0
total_read_with_other.count = 2033432

classified_plus_unclassified_check.count = 2033432
dram_rq_read_total_observed.count = 2033432
dram_rq_read_total_observed.per_1K_instructions = 20.3343

STLB_MISS_PTW_DRAM_TOUCH_BREAKDOWN:
stlb_miss_total.count = 812454

stlb_miss_touch_dram.count = 649528
stlb_miss_touch_dram.share = 79.95%

stlb_miss_no_dram_touch.count = 162926
stlb_miss_no_dram_touch.share = 20.05%

STLB_MISS_PTW_DRAM_TOUCH_DEBUG:
stlb_miss_touch_plus_no_touch.count = 812454
stlb_miss_total_check.count = 812454

======STLB miss causes ========
Core_0_STLB_miss_cause_breakdown
Core_0_STLB_cause_Demand_Data_miss 808297
Core_0_STLB_cause_Demand_Data_miss_rate 0.974501
Core_0_STLB_cause_Demand_Instruction_miss 0
Core_0_STLB_cause_Demand_Instruction_miss_rate 0
Core_0_STLB_cause_L1D_Prefetch_miss 4157
Core_0_STLB_cause_L1D_Prefetch_miss_rate 0.00501177
Core_0_STLB_cause_L1D_Prefetch_Same_Page_miss 0
Core_0_STLB_cause_L1D_Prefetch_Same_Page_miss_rate 0
Core_0_STLB_cause_L1D_Prefetch_Cross_Page_miss 4157
Core_0_STLB_cause_L1D_Prefetch_Cross_Page_miss_rate 0.00501177
Core_0_STLB_cause_L1I_Prefetch_miss 0
Core_0_STLB_cause_L1I_Prefetch_miss_rate 0
Core_0_STLB_cause_Other_miss 0
Core_0_STLB_cause_Other_miss_rate 0
Core_0_STLB_Demand_miss 808297
Core_0_STLB_Demand_miss_rate 0.974501
Core_0_STLB_L1D_Prefetch_miss 4157
Core_0_STLB_L1D_Prefetch_miss_rate 0.00501177
Core_0_STLB_Other_miss 0
Core_0_STLB_Other_miss_rate 0

========== vBerti-TLB Cross-page Flow Stats ==========

Core_0_vBerti_Requested 5932914
Core_0_vBerti_Cross_page_prefetch_in_Requested 569737
Core_0_vBerti_Same_page_prefetch_in_Requested 5363177
Core_0_vBerti_Cross_page_prefetch_of_Requested 0.0960299
Core_0_vBerti_Issued 5067253
Core_0_vBerti_InPQ_Same_page_prefetch 4647171
Core_0_vBerti_InPQ_Cross_page_prefetch 420082
Core_0_vBerti_PQ_Drop_Rate 0.145908
Core_0_vBerti_InPQ_Cross_page_prefetch_of_Requested 0.0708053
Core_0_vBerti_Cross_page_PQ_Drop_rate 0.262674
Core_0_vBerti_Cross_page_prefetch_of_Issued 0.0829013
Core_0_CP_PF_PQFULL_drop 149655
Core_0_CP_PF_PQFULL_TLB_rescue_enqueued 149655
Core_0_CP_PF_PQFULL_TLB_rescue_issued 149655
Core_0_CP_PF_PQFULL_TLB_rescue_translated 149655

========= DTLB_vBerti Prefetch Stats =========
Core_0_DTLB_demand_access 12277452
Core_0_DTLB_demand_hit 11141063
Core_0_DTLB_demand_miss 1136389
Core_0_DTLB_demand_mshr_merge 312543
Core_0_DTLB_demand_fill 824331
Core_0_DTLB_demand_miss_rate 0.092559
Core_0_DTLB_demand_mpki 11.3639
Core_0_DTLB_vberti_prefetch_access 2935880
Core_0_DTLB_vberti_prefetch_hit 2916496
Core_0_DTLB_vberti_prefetch_miss 19384
Core_0_DTLB_vberti_prefetch_mshr_merge 13783
Core_0_DTLB_vberti_prefetch_fill 5118
Core_0_DTLB_vberti_prefetch_miss_rate 0.00660245
Core_0_DTLB_vberti_prefetch_mpki 0.19384

=== DTLB_vBerti Same/Cross-page Prefetch Stats ===
Core_0_DTLB_vberti_same_page_prefetch 2580198
Core_0_DTLB_vberti_same_page_prefetch_hit 2580198
Core_0_DTLB_vberti_same_page_prefetch_miss 0
Core_0_DTLB_vberti_same_page_prefetch_mshr_merge 0
Core_0_DTLB_vberti_same_page_prefetch_fill 0
Core_0_DTLB_vberti_same_page_prefetch_miss_rate 0
Core_0_DTLB_vberti_same_page_prefetch_mpki 0
Core_0_DTLB_vberti_cross_page_prefetch 355682
Core_0_DTLB_vberti_cross_page_prefetch_hit 336298
Core_0_DTLB_vberti_cross_page_prefetch_miss 19384
Core_0_DTLB_vberti_cross_page_prefetch_mshr_merge 13783
Core_0_DTLB_vberti_cross_page_prefetch_fill 5118
Core_0_DTLB_vberti_cross_page_prefetch_miss_rate 0.0544981
Core_0_DTLB_vberti_cross_page_prefetch_mpki 0.19384
Core_0_DTLB_same_page_prefetch_miss_rate 0
Core_0_DTLB_same_page_prefetch_mpki 0
Core_0_DTLB_cross_page_prefetch_miss_rate 0.0544981
Core_0_DTLB_cross_page_prefetch_mpki 0.19384
Core_0_DTLB_cross_page_prefetch_issued 355682
Core_0_DTLB_cross_page_prefetch_lookups 355682
Core_0_DTLB_cross_page_prefetch_useful 2035
Core_0_DTLB_cross_page_prefetch_useless 3566
Core_0_DTLB_cross_page_prefetch_late 483
Core_0_DTLB_cross_page_prefetch_too_early 21
Core_0_DTLB_cross_page_prefetch_too_early_among_fill 0.00410317
Core_0_DTLB_cross_page_prefetch_too_early_among_useless 0.00588895
Core_0_DTLB_cross_page_prefetch_pollution_evict 131
Core_0_DTLB_cross_page_prefetch_pollution_demand 130
Core_0_DTLB_cross_page_prefetch_pollution_among_prefetch_fill 0.0255959
Core_0_DTLB_cross_page_prefetch_accuracy 0.0057214
Core_0_DTLB_cross_page_prefetch_coverage 0.00178756

========= STLB_vBerti Prefetch Stats =========
Core_0_STLB_demand_access 823846
Core_0_STLB_demand_hit 15549
Core_0_STLB_demand_miss 808297
Core_0_STLB_demand_mshr_merge 0
Core_0_STLB_demand_fill 808299
Core_0_STLB_demand_miss_rate 0.981126
Core_0_STLB_demand_mpki 8.08297
Core_0_STLB_vberti_prefetch_access 5601
Core_0_STLB_vberti_prefetch_hit 1444
Core_0_STLB_vberti_prefetch_miss 4157
Core_0_STLB_vberti_prefetch_mshr_merge 0
Core_0_STLB_vberti_prefetch_fill 4157
Core_0_STLB_vberti_prefetch_miss_rate 0.742189
Core_0_STLB_vberti_prefetch_mpki 0.04157

=== STLB_vBerti Same/Cross-page Prefetch Stats ===
Core_0_STLB_vberti_same_page_prefetch 0
Core_0_STLB_vberti_same_page_prefetch_hit 0
Core_0_STLB_vberti_same_page_prefetch_miss 0
Core_0_STLB_vberti_same_page_prefetch_mshr_merge 0
Core_0_STLB_vberti_same_page_prefetch_fill 0
Core_0_STLB_vberti_same_page_prefetch_miss_rate 0
Core_0_STLB_vberti_same_page_prefetch_mpki 0
Core_0_STLB_vberti_cross_page_prefetch 5601
Core_0_STLB_vberti_cross_page_prefetch_hit 1444
Core_0_STLB_vberti_cross_page_prefetch_miss 4157
Core_0_STLB_vberti_cross_page_prefetch_mshr_merge 0
Core_0_STLB_vberti_cross_page_prefetch_fill 4157
Core_0_STLB_vberti_cross_page_prefetch_miss_rate 0.742189
Core_0_STLB_vberti_cross_page_prefetch_mpki 0.04157
Core_0_STLB_same_page_prefetch_miss_rate 0
Core_0_STLB_same_page_prefetch_mpki 0
Core_0_STLB_cross_page_prefetch_miss_rate 0.742189
Core_0_STLB_cross_page_prefetch_mpki 0.04157
Core_0_STLB_cross_page_prefetch_issued 5601
Core_0_STLB_cross_page_prefetch_lookups 5601
Core_0_STLB_cross_page_prefetch_useful 30
Core_0_STLB_cross_page_prefetch_useless 4127
Core_0_STLB_cross_page_prefetch_late 0
Core_0_STLB_cross_page_prefetch_too_early 121
Core_0_STLB_cross_page_prefetch_too_early_among_fill 0.0291075
Core_0_STLB_cross_page_prefetch_too_early_among_useless 0.0293191
Core_0_STLB_cross_page_prefetch_pollution_evict 836
Core_0_STLB_cross_page_prefetch_pollution_demand 836
Core_0_STLB_cross_page_prefetch_pollution_among_prefetch_fill 0.201107
Core_0_STLB_cross_page_prefetch_accuracy 0.00535619
Core_0_STLB_cross_page_prefetch_coverage 3.71137e-05

========= STLB Cross-page Prefetch Buffer Stats =========
Core_0_STLB_raw_demand_miss 808297
Core_0_CP_PB_insert 0
Core_0_CP_PB_demand_hit 0
Core_0_STLB_PB_demand_miss 808297
Core_0_CP_PB_coverage 0
Core_0_STLB_raw_demand_mpki 8.08297
Core_0_STLB_PB_demand_mpki 8.08297
Core_0_CP_PB_demand_hit_mpki 0

Core_0_TLB_demand_miss_rate 0.0658359
Core_0_TLB_demand_mpki 8.08297
Core_0_TLB_same_page_prefetch_miss_rate 0
Core_0_TLB_same_page_prefetch_mpki 0
Core_0_TLB_cross_page_prefetch_miss_rate 0.0116874
Core_0_TLB_cross_page_prefetch_mpki 0.04157
Core_0_TLB_cross_page_prefetch_issued 355682
Core_0_TLB_cross_page_prefetch_lookups 355682
Core_0_TLB_cross_page_prefetch_useful 2034
Core_0_TLB_cross_page_prefetch_useless 3567
Core_0_TLB_cross_page_prefetch_late 483
Core_0_TLB_cross_page_prefetch_too_early 21
Core_0_TLB_cross_page_prefetch_too_early_among_fill 0.00226415
Core_0_TLB_cross_page_prefetch_too_early_among_useless 0.0058873
Core_0_TLB_cross_page_prefetch_accuracy 0.00571859
Core_0_TLB_cross_page_prefetch_coverage 0.00251009
BERTI TO_L1: 2664061 TO_L2: 6050548 TO_L2_BC_MSHR: 0
BERTI AVG_LAT: 124.679 NUM_TRACK_LATENCY: 1870661 NUM_CANT_TRACK_LATENCY: 0
BERTI CROSS_PAGE 831904 NO_CROSS_PAGE: 7882705
BERTI FOUND_BERTI: 16767588 NO_FOUND_BERTI: 40265
BERTI AVERAGE_ISSUED: 2.36358
