[VMEM] WARNING: physical memory size is smaller than virtual memory size.

*** ChampSim Multicore Out-of-Order Simulator ***
Warmup Instructions: 50000000
Simulation Instructions: 100000000
Number of CPUs: 1
Page size: 4096
Core 0: /data2/zcq/champsim_traces_xsbench/xs.XXL100nuclide-861B.champsimtrace.xz
VBerti Prefetcher
BERTI HASH ENTANGLING
BERTI IP MASK ffff
Off-chip DRAM Size: 16 GiB Channels: 1 Width: 64-bit Data Rate: 3205 MT/s
Warmup halting CPU 0 at instruction 50000003 cycle 36707282 for remainder of phase
Warmup finished CPU 0 instructions: 50000003 cycles: 36707282 cumulative IPC: 1.362 (Simulation time: 00 hr 06 min 08 sec)
Warmup complete CPU 0 instructions: 50000003 cycles: 36707282 cumulative IPC: 1.362 (Simulation time: 00 hr 06 min 08 sec)
Simulation finished CPU 0 instructions: 100000001 cycles: 691902601 cumulative IPC: 0.1445 (Simulation time: 00 hr 46 min 37 sec)
Simulation complete CPU 0 instructions: 100000001 cycles: 691902601 cumulative IPC: 0.1445 (Simulation time: 00 hr 46 min 37 sec)

ChampSim completed all CPUs

=== Simulation ===
CPU 0 runs /data2/zcq/champsim_traces_xsbench/xs.XXL100nuclide-861B.champsimtrace.xz

Region of Interest Statistics

CPU 0 cumulative IPC: 0.1445 instructions: 100000001 cycles: 691902601
CPU 0 Branch Prediction Accuracy: 87.26% MPKI: 21.5 Average ROB Occupancy at Mispredict: 25.77
Branch type MPKI
BRANCH_DIRECT_JUMP: 0
BRANCH_INDIRECT: 0
BRANCH_CONDITIONAL: 21.5
BRANCH_DIRECT_CALL: 0
BRANCH_INDIRECT_CALL: 0
BRANCH_RETURN: 0

cpu0->cpu0_STLB TOTAL        ACCESS:    3983850 HIT:     126700 MISS:    3857150 MSHR_MERGE:          0
cpu0->cpu0_STLB LOAD         ACCESS:    3983850 HIT:     126700 MISS:    3857150 MSHR_MERGE:          0
cpu0->cpu0_STLB RFO          ACCESS:          0 HIT:          0 MISS:          0 MSHR_MERGE:          0
cpu0->cpu0_STLB PREFETCH     ACCESS:          0 HIT:          0 MISS:          0 MSHR_MERGE:          0
cpu0->cpu0_STLB WRITE        ACCESS:          0 HIT:          0 MISS:          0 MSHR_MERGE:          0
cpu0->cpu0_STLB TRANSLATION  ACCESS:          0 HIT:          0 MISS:          0 MSHR_MERGE:          0
cpu0->cpu0_STLB PREFETCH REQUESTED:          0 ISSUED:          0 USEFUL:          0 USELESS:          0 LATE:          0 TOO_EARLY:          0
cpu0->cpu0_STLB AVERAGE MISS LATENCY: 175.1 cycles
cpu0->cpu0_L2C TOTAL        ACCESS:   10610452 HIT:    1468724 MISS:    9141728 MSHR_MERGE:       8827
cpu0->cpu0_L2C LOAD         ACCESS:    5975325 HIT:     198710 MISS:    5776615 MSHR_MERGE:          0
cpu0->cpu0_L2C RFO          ACCESS:      22936 HIT:      22219 MISS:        717 MSHR_MERGE:          0
cpu0->cpu0_L2C PREFETCH     ACCESS:    1266361 HIT:    1037036 MISS:     229325 MSHR_MERGE:       8827
cpu0->cpu0_L2C WRITE        ACCESS:      27792 HIT:      27774 MISS:         18 MSHR_MERGE:          0
cpu0->cpu0_L2C TRANSLATION  ACCESS:    3318038 HIT:     182985 MISS:    3135053 MSHR_MERGE:          0
cpu0->cpu0_L2C PREFETCH REQUESTED:     338479 ISSUED:     338479 USEFUL:      13228 USELESS:     136490 LATE:          0 TOO_EARLY:         43
cpu0->cpu0_L2C AVERAGE MISS LATENCY: 149.5 cycles
cpu0->cpu0_L1I TOTAL        ACCESS:      21994 HIT:      21994 MISS:          0 MSHR_MERGE:          0
cpu0->cpu0_L1I LOAD         ACCESS:      21994 HIT:      21994 MISS:          0 MSHR_MERGE:          0
cpu0->cpu0_L1I RFO          ACCESS:          0 HIT:          0 MISS:          0 MSHR_MERGE:          0
cpu0->cpu0_L1I PREFETCH     ACCESS:          0 HIT:          0 MISS:          0 MSHR_MERGE:          0
cpu0->cpu0_L1I WRITE        ACCESS:          0 HIT:          0 MISS:          0 MSHR_MERGE:          0
cpu0->cpu0_L1I TRANSLATION  ACCESS:          0 HIT:          0 MISS:          0 MSHR_MERGE:          0
cpu0->cpu0_L1I PREFETCH REQUESTED:          0 ISSUED:          0 USEFUL:          0 USELESS:          0 LATE:          0 TOO_EARLY:          0
cpu0->cpu0_L1I AVERAGE MISS LATENCY: - cycles
cpu0->cpu0_L1D TOTAL        ACCESS:   21897961 HIT:    9723541 MISS:   12174420 MSHR_MERGE:    1930200
cpu0->cpu0_L1D LOAD         ACCESS:    9562685 HIT:    3487790 MISS:    6074895 MSHR_MERGE:      99570
cpu0->cpu0_L1D RFO          ACCESS:          0 HIT:          0 MISS:          0 MSHR_MERGE:          0
cpu0->cpu0_L1D PREFETCH     ACCESS:    2065177 HIT:    1137294 MISS:     927883 MSHR_MERGE:          1
cpu0->cpu0_L1D WRITE        ACCESS:    1814798 HIT:    1755972 MISS:      58826 MSHR_MERGE:      35851
cpu0->cpu0_L1D TRANSLATION  ACCESS:    8455301 HIT:    3342485 MISS:    5112816 MSHR_MERGE:    1794778
cpu0->cpu0_L1D PREFETCH REQUESTED:    2353158 ISSUED:    2065173 USEFUL:      35885 USELESS:      44224 LATE:          0 TOO_EARLY:       2428
cpu0->cpu0_L1D AVERAGE MISS LATENCY: 152.1 cycles
cpu0->cpu0_ITLB TOTAL        ACCESS:      17882 HIT:      17882 MISS:          0 MSHR_MERGE:          0
cpu0->cpu0_ITLB LOAD         ACCESS:      17882 HIT:      17882 MISS:          0 MSHR_MERGE:          0
cpu0->cpu0_ITLB RFO          ACCESS:          0 HIT:          0 MISS:          0 MSHR_MERGE:          0
cpu0->cpu0_ITLB PREFETCH     ACCESS:          0 HIT:          0 MISS:          0 MSHR_MERGE:          0
cpu0->cpu0_ITLB WRITE        ACCESS:          0 HIT:          0 MISS:          0 MSHR_MERGE:          0
cpu0->cpu0_ITLB TRANSLATION  ACCESS:          0 HIT:          0 MISS:          0 MSHR_MERGE:          0
cpu0->cpu0_ITLB PREFETCH REQUESTED:          0 ISSUED:          0 USEFUL:          0 USELESS:          0 LATE:          0 TOO_EARLY:          0
cpu0->cpu0_ITLB AVERAGE MISS LATENCY: - cycles
cpu0->cpu0_DTLB TOTAL        ACCESS:   12820387 HIT:    8633451 MISS:    4186936 MSHR_MERGE:     203086
cpu0->cpu0_DTLB LOAD         ACCESS:   12820387 HIT:    8633451 MISS:    4186936 MSHR_MERGE:     203086
cpu0->cpu0_DTLB RFO          ACCESS:          0 HIT:          0 MISS:          0 MSHR_MERGE:          0
cpu0->cpu0_DTLB PREFETCH     ACCESS:          0 HIT:          0 MISS:          0 MSHR_MERGE:          0
cpu0->cpu0_DTLB WRITE        ACCESS:          0 HIT:          0 MISS:          0 MSHR_MERGE:          0
cpu0->cpu0_DTLB TRANSLATION  ACCESS:          0 HIT:          0 MISS:          0 MSHR_MERGE:          0
cpu0->cpu0_DTLB PREFETCH REQUESTED:          0 ISSUED:          0 USEFUL:          0 USELESS:          0 LATE:          0 TOO_EARLY:          0
cpu0->cpu0_DTLB AVERAGE MISS LATENCY: 175.5 cycles
cpu0->LLC TOTAL        ACCESS:    9135663 HIT:    3085330 MISS:    6050333 MSHR_MERGE:          0
cpu0->LLC LOAD         ACCESS:    5776615 HIT:    1336737 MISS:    4439878 MSHR_MERGE:          0
cpu0->LLC RFO          ACCESS:        717 HIT:        716 MISS:          1 MSHR_MERGE:          0
cpu0->LLC PREFETCH     ACCESS:     220498 HIT:      85175 MISS:     135323 MSHR_MERGE:          0
cpu0->LLC WRITE        ACCESS:       2780 HIT:       2765 MISS:         15 MSHR_MERGE:          0
cpu0->LLC TRANSLATION  ACCESS:    3135053 HIT:    1659937 MISS:    1475116 MSHR_MERGE:          0
cpu0->LLC PREFETCH REQUESTED:          0 ISSUED:          0 USEFUL:          0 USELESS:          0 LATE:          0 TOO_EARLY:          0
cpu0->LLC AVERAGE MISS LATENCY: 201.6 cycles

DRAM Statistics

Channel 0 RQ ROW_BUFFER_HIT:      30958
  ROW_BUFFER_MISS:    6019360
  AVG DBUS CONGESTED CYCLE: 2.932
Channel 0 WQ ROW_BUFFER_HIT:          2
  ROW_BUFFER_MISS:         13
  FULL:          0
Channel 0 REFRESHES ISSUED:      57659

[ROI Statistics]
[System Configuration]
num_cpus 1
cpu_freq 4000
fetch_width 6
decode_width 6
dispatch_width 6
execute_width 6
lq_width 2
sq_width 2
retire_width 6
scheduler_size 128
branch_mispredict_penalty 15
rob_size 352
lq_size 128
sq_size 72
ifetch_buffer_size 64
decode_buffer_size 32
dispatch_buffer_size 32
register_file_size 288
decode_latency 1
dispatch_latency 1
schedule_latency 1
execute_latency 1
page_size 4096
block_size 64
core_0_itlb_set 16
core_0_itlb_way 4
core_0_itlb_rq_size 16
core_0_itlb_wq_size 16
core_0_itlb_pq_size 0
core_0_itlb_mshr_size 8
core_0_itlb_hit_latency 1
core_0_itlb_fill_latency 1
core_0_itlb_max_tag_check 2
core_0_itlb_max_fill 2
core_0_dtlb_set 16
core_0_dtlb_way 4
core_0_dtlb_rq_size 16
core_0_dtlb_wq_size 16
core_0_dtlb_pq_size 0
core_0_dtlb_mshr_size 8
core_0_dtlb_hit_latency 1
core_0_dtlb_fill_latency 1
core_0_dtlb_max_tag_check 2
core_0_dtlb_max_fill 2
core_0_stlb_set 128
core_0_stlb_way 12
core_0_stlb_rq_size 32
core_0_stlb_wq_size 32
core_0_stlb_pq_size 0
core_0_stlb_mshr_size 16
core_0_stlb_hit_latency 4
core_0_stlb_fill_latency 4
core_0_stlb_max_tag_check 1
core_0_stlb_max_fill 1
core_0_l1i_set 64
core_0_l1i_way 8
core_0_l1i_rq_size 64
core_0_l1i_wq_size 64
core_0_l1i_pq_size 32
core_0_l1i_mshr_size 8
core_0_l1i_hit_latency 2
core_0_l1i_fill_latency 2
core_0_l1i_max_tag_check 2
core_0_l1i_max_fill 2
core_0_l1d_set 64
core_0_l1d_way 12
core_0_l1d_rq_size 64
core_0_l1d_wq_size 64
core_0_l1d_pq_size 8
core_0_l1d_mshr_size 16
core_0_l1d_hit_latency 2
core_0_l1d_fill_latency 3
core_0_l1d_max_tag_check 2
core_0_l1d_max_fill 2
core_0_l2c_set 1024
core_0_l2c_way 8
core_0_l2c_rq_size 32
core_0_l2c_wq_size 32
core_0_l2c_pq_size 16
core_0_l2c_mshr_size 32
core_0_l2c_hit_latency 5
core_0_l2c_fill_latency 5
core_0_l2c_max_tag_check 1
core_0_l2c_max_fill 1
llc_set 2048
llc_way 16
llc_rq_size 32
llc_wq_size 32
llc_pq_size 32
llc_mshr_size 64
llc_hit_latency 10
llc_fill_latency 10
llc_max_tag_check 1
llc_max_fill 1
dram_channels 1
dram_ranks 1
dram_bankgroups 8
dram_banks 4
dram_rows 65536
dram_columns 1024
dram_channel_width 8
dram_rq_size 64
dram_wq_size 64
dram_size 17179869184
core_0_itlb_prefetcher no
core_0_dtlb_prefetcher no
core_0_stlb_prefetcher no
core_0_l1i_prefetcher next_line
core_0_l1d_prefetcher vberti
core_0_l2c_prefetcher ip_stride
llc_prefetcher no
llc_replacement drrip

Core_0_instructions 100000001
Core_0_cycles 691902601
Core_0_IPC 0.144529
Core_0_branch_prediction_accuracy 87.2628
Core_0_branch_MPKI 21.5018
Core_0_average_ROB_occupancy_at_mispredict 25.7713

Core_0_ITLB_total_access 17882
Core_0_ITLB_total_hit 17882
Core_0_ITLB_total_miss 0
Core_0_ITLB_total_MPKI 0
Core_0_ITLB_total_miss_rate 0
Core_0_ITLB_demand_access 17882
Core_0_ITLB_demand_hit 17882
Core_0_ITLB_demand_miss 0
Core_0_ITLB_demand_MPKI 0
Core_0_ITLB_demand_miss_rate 0
Core_0_ITLB_load_access 17882
Core_0_ITLB_load_hit 17882
Core_0_ITLB_load_miss 0
Core_0_ITLB_load_MPKI 0
Core_0_ITLB_load_miss_rate 0
Core_0_ITLB_rfo_access 0
Core_0_ITLB_rfo_hit 0
Core_0_ITLB_rfo_miss 0
Core_0_ITLB_rfo_MPKI 0
Core_0_ITLB_rfo_miss_rate 0
Core_0_ITLB_prefetch_access 0
Core_0_ITLB_prefetch_hit 0
Core_0_ITLB_prefetch_miss 0
Core_0_ITLB_prefetch_MPKI 0
Core_0_ITLB_prefetch_miss_rate 0
Core_0_ITLB_writeback_access 0
Core_0_ITLB_writeback_hit 0
Core_0_ITLB_writeback_miss 0
Core_0_ITLB_writeback_MPKI 0
Core_0_ITLB_writeback_miss_rate 0
Core_0_ITLB_prefetch_requested 0
Core_0_ITLB_prefetch_issued 0
Core_0_ITLB_prefetch_useful 0
Core_0_ITLB_prefetch_useless 0
Core_0_ITLB_prefetch_late 0
Core_0_ITLB_prefetch_fill 0
Core_0_ITLB_prefetch_too_early 0
Core_0_ITLB_prefetch_too_early_among_fill 0
Core_0_ITLB_prefetch_too_early_among_useless 0
Core_0_ITLB_prefetch_pollution_evict 0
Core_0_ITLB_prefetch_pollution_demand 0
Core_0_ITLB_prefetch_pollution_among_prefetch_fill 0
Core_0_ITLB_prefetch_accuracy 0
Core_0_ITLB_prefetch_coverage 0

Core_0_DTLB_total_access 12820387
Core_0_DTLB_total_hit 8633451
Core_0_DTLB_total_miss 4186936
Core_0_DTLB_total_MPKI 41.8694
Core_0_DTLB_total_miss_rate 0.326584
Core_0_DTLB_demand_access 12820387
Core_0_DTLB_demand_hit 8633451
Core_0_DTLB_demand_miss 4186936
Core_0_DTLB_demand_MPKI 41.8694
Core_0_DTLB_demand_miss_rate 0.326584
Core_0_DTLB_load_access 12820387
Core_0_DTLB_load_hit 8633451
Core_0_DTLB_load_miss 4186936
Core_0_DTLB_load_MPKI 41.8694
Core_0_DTLB_load_miss_rate 0.326584
Core_0_DTLB_rfo_access 0
Core_0_DTLB_rfo_hit 0
Core_0_DTLB_rfo_miss 0
Core_0_DTLB_rfo_MPKI 0
Core_0_DTLB_rfo_miss_rate 0
Core_0_DTLB_prefetch_access 0
Core_0_DTLB_prefetch_hit 0
Core_0_DTLB_prefetch_miss 0
Core_0_DTLB_prefetch_MPKI 0
Core_0_DTLB_prefetch_miss_rate 0
Core_0_DTLB_writeback_access 0
Core_0_DTLB_writeback_hit 0
Core_0_DTLB_writeback_miss 0
Core_0_DTLB_writeback_MPKI 0
Core_0_DTLB_writeback_miss_rate 0
Core_0_DTLB_prefetch_requested 0
Core_0_DTLB_prefetch_issued 0
Core_0_DTLB_prefetch_useful 0
Core_0_DTLB_prefetch_useless 0
Core_0_DTLB_prefetch_late 0
Core_0_DTLB_prefetch_fill 0
Core_0_DTLB_prefetch_too_early 0
Core_0_DTLB_prefetch_too_early_among_fill 0
Core_0_DTLB_prefetch_too_early_among_useless 0
Core_0_DTLB_prefetch_pollution_evict 0
Core_0_DTLB_prefetch_pollution_demand 0
Core_0_DTLB_prefetch_pollution_among_prefetch_fill 0
Core_0_DTLB_prefetch_accuracy 0
Core_0_DTLB_prefetch_coverage 0

Core_0_STLB_total_access 3983850
Core_0_STLB_total_hit 126700
Core_0_STLB_total_miss 3857150
Core_0_STLB_total_MPKI 38.5715
Core_0_STLB_total_miss_rate 0.968197
Core_0_STLB_demand_access 3983850
Core_0_STLB_demand_hit 126700
Core_0_STLB_demand_miss 3857150
Core_0_STLB_demand_MPKI 38.5715
Core_0_STLB_demand_miss_rate 0.968197
Core_0_STLB_load_access 3983850
Core_0_STLB_load_hit 126700
Core_0_STLB_load_miss 3857150
Core_0_STLB_load_MPKI 38.5715
Core_0_STLB_load_miss_rate 0.968197
Core_0_STLB_rfo_access 0
Core_0_STLB_rfo_hit 0
Core_0_STLB_rfo_miss 0
Core_0_STLB_rfo_MPKI 0
Core_0_STLB_rfo_miss_rate 0
Core_0_STLB_prefetch_access 0
Core_0_STLB_prefetch_hit 0
Core_0_STLB_prefetch_miss 0
Core_0_STLB_prefetch_MPKI 0
Core_0_STLB_prefetch_miss_rate 0
Core_0_STLB_writeback_access 0
Core_0_STLB_writeback_hit 0
Core_0_STLB_writeback_miss 0
Core_0_STLB_writeback_MPKI 0
Core_0_STLB_writeback_miss_rate 0
Core_0_STLB_prefetch_requested 0
Core_0_STLB_prefetch_issued 0
Core_0_STLB_prefetch_useful 0
Core_0_STLB_prefetch_useless 0
Core_0_STLB_prefetch_late 0
Core_0_STLB_prefetch_fill 0
Core_0_STLB_prefetch_too_early 0
Core_0_STLB_prefetch_too_early_among_fill 0
Core_0_STLB_prefetch_too_early_among_useless 0
Core_0_STLB_prefetch_pollution_evict 0
Core_0_STLB_prefetch_pollution_demand 0
Core_0_STLB_prefetch_pollution_among_prefetch_fill 0
Core_0_STLB_prefetch_accuracy 0
Core_0_STLB_prefetch_coverage 0

Core_0_L1I_total_access 21994
Core_0_L1I_total_hit 21994
Core_0_L1I_total_miss 0
Core_0_L1I_total_MPKI 0
Core_0_L1I_total_miss_rate 0
Core_0_L1I_demand_access 21994
Core_0_L1I_demand_hit 21994
Core_0_L1I_demand_miss 0
Core_0_L1I_demand_MPKI 0
Core_0_L1I_demand_miss_rate 0
Core_0_L1I_load_access 21994
Core_0_L1I_load_hit 21994
Core_0_L1I_load_miss 0
Core_0_L1I_load_MPKI 0
Core_0_L1I_load_miss_rate 0
Core_0_L1I_rfo_access 0
Core_0_L1I_rfo_hit 0
Core_0_L1I_rfo_miss 0
Core_0_L1I_rfo_MPKI 0
Core_0_L1I_rfo_miss_rate 0
Core_0_L1I_prefetch_access 0
Core_0_L1I_prefetch_hit 0
Core_0_L1I_prefetch_miss 0
Core_0_L1I_prefetch_MPKI 0
Core_0_L1I_prefetch_miss_rate 0
Core_0_L1I_writeback_access 0
Core_0_L1I_writeback_hit 0
Core_0_L1I_writeback_miss 0
Core_0_L1I_writeback_MPKI 0
Core_0_L1I_writeback_miss_rate 0
Core_0_L1I_prefetch_requested 0
Core_0_L1I_prefetch_issued 0
Core_0_L1I_prefetch_useful 0
Core_0_L1I_prefetch_useless 0
Core_0_L1I_prefetch_late 0
Core_0_L1I_prefetch_fill 0
Core_0_L1I_prefetch_too_early 0
Core_0_L1I_prefetch_too_early_among_fill 0
Core_0_L1I_prefetch_too_early_among_useless 0
Core_0_L1I_prefetch_pollution_evict 0
Core_0_L1I_prefetch_pollution_demand 0
Core_0_L1I_prefetch_pollution_among_prefetch_fill 0
Core_0_L1I_prefetch_accuracy 0
Core_0_L1I_prefetch_coverage 0

Core_0_L1D_total_access 13442660
Core_0_L1D_total_hit 6381056
Core_0_L1D_total_miss 7061604
Core_0_L1D_total_MPKI 70.616
Core_0_L1D_total_miss_rate 0.525313
Core_0_L1D_demand_access 9562685
Core_0_L1D_demand_hit 3487790
Core_0_L1D_demand_miss 6074895
Core_0_L1D_demand_MPKI 60.7489
Core_0_L1D_demand_miss_rate 0.635271
Core_0_L1D_load_access 9562685
Core_0_L1D_load_hit 3487790
Core_0_L1D_load_miss 6074895
Core_0_L1D_load_MPKI 60.7489
Core_0_L1D_load_miss_rate 0.635271
Core_0_L1D_rfo_access 0
Core_0_L1D_rfo_hit 0
Core_0_L1D_rfo_miss 0
Core_0_L1D_rfo_MPKI 0
Core_0_L1D_rfo_miss_rate 0
Core_0_L1D_prefetch_access 2065177
Core_0_L1D_prefetch_hit 1137294
Core_0_L1D_prefetch_miss 927883
Core_0_L1D_prefetch_MPKI 9.27883
Core_0_L1D_prefetch_miss_rate 0.4493
Core_0_L1D_writeback_access 1814798
Core_0_L1D_writeback_hit 1755972
Core_0_L1D_writeback_miss 58826
Core_0_L1D_writeback_MPKI 0.58826
Core_0_L1D_writeback_miss_rate 0.0324146
Core_0_L1D_prefetch_requested 2353158
Core_0_L1D_prefetch_issued 2065173
Core_0_L1D_prefetch_useful 35885
Core_0_L1D_prefetch_useless 44224
Core_0_L1D_prefetch_late 0
Core_0_L1D_prefetch_fill 80113
Core_0_L1D_prefetch_too_early 2428
Core_0_L1D_prefetch_too_early_among_fill 0.0303072
Core_0_L1D_prefetch_too_early_among_useless 0.0549023
Core_0_L1D_prefetch_pollution_evict 12847
Core_0_L1D_prefetch_pollution_demand 12835
Core_0_L1D_prefetch_pollution_among_prefetch_fill 0.160361
Core_0_L1D_prefetch_accuracy 0.0173763
Core_0_L1D_prefetch_coverage 0.00587241

Core_0_L2C_total_access 7292414
Core_0_L2C_total_hit 1285739
Core_0_L2C_total_miss 6006675
Core_0_L2C_total_MPKI 60.0667
Core_0_L2C_total_miss_rate 0.823688
Core_0_L2C_demand_access 5998261
Core_0_L2C_demand_hit 220929
Core_0_L2C_demand_miss 5777332
Core_0_L2C_demand_MPKI 57.7733
Core_0_L2C_demand_miss_rate 0.963168
Core_0_L2C_load_access 5975325
Core_0_L2C_load_hit 198710
Core_0_L2C_load_miss 5776615
Core_0_L2C_load_MPKI 57.7661
Core_0_L2C_load_miss_rate 0.966745
Core_0_L2C_rfo_access 22936
Core_0_L2C_rfo_hit 22219
Core_0_L2C_rfo_miss 717
Core_0_L2C_rfo_MPKI 0.00717
Core_0_L2C_rfo_miss_rate 0.0312609
Core_0_L2C_prefetch_access 1266361
Core_0_L2C_prefetch_hit 1037036
Core_0_L2C_prefetch_miss 229325
Core_0_L2C_prefetch_MPKI 2.29325
Core_0_L2C_prefetch_miss_rate 0.18109
Core_0_L2C_writeback_access 27792
Core_0_L2C_writeback_hit 27774
Core_0_L2C_writeback_miss 18
Core_0_L2C_writeback_MPKI 0.00018
Core_0_L2C_writeback_miss_rate 0.000647668
Core_0_L2C_prefetch_requested 338479
Core_0_L2C_prefetch_issued 338479
Core_0_L2C_prefetch_useful 13228
Core_0_L2C_prefetch_useless 136490
Core_0_L2C_prefetch_late 0
Core_0_L2C_prefetch_fill 220498
Core_0_L2C_prefetch_too_early 43
Core_0_L2C_prefetch_too_early_among_fill 0.000195013
Core_0_L2C_prefetch_too_early_among_useless 0.000315041
Core_0_L2C_prefetch_pollution_evict 44526
Core_0_L2C_prefetch_pollution_demand 44525
Core_0_L2C_prefetch_pollution_among_prefetch_fill 0.201934
Core_0_L2C_prefetch_accuracy 0.0390807
Core_0_L2C_prefetch_coverage 0.00228441

Core_0_LLC_total_access 6000610
Core_0_LLC_total_hit 1425393
Core_0_LLC_total_miss 4575217
Core_0_LLC_total_MPKI 45.7522
Core_0_LLC_total_miss_rate 0.762459
Core_0_LLC_demand_access 5777332
Core_0_LLC_demand_hit 1337453
Core_0_LLC_demand_miss 4439879
Core_0_LLC_demand_MPKI 44.3988
Core_0_LLC_demand_miss_rate 0.7685
Core_0_LLC_load_access 5776615
Core_0_LLC_load_hit 1336737
Core_0_LLC_load_miss 4439878
Core_0_LLC_load_MPKI 44.3988
Core_0_LLC_load_miss_rate 0.768595
Core_0_LLC_rfo_access 717
Core_0_LLC_rfo_hit 716
Core_0_LLC_rfo_miss 1
Core_0_LLC_rfo_MPKI 1e-05
Core_0_LLC_rfo_miss_rate 0.0013947
Core_0_LLC_prefetch_access 220498
Core_0_LLC_prefetch_hit 85175
Core_0_LLC_prefetch_miss 135323
Core_0_LLC_prefetch_MPKI 1.35323
Core_0_LLC_prefetch_miss_rate 0.613715
Core_0_LLC_writeback_access 2780
Core_0_LLC_writeback_hit 2765
Core_0_LLC_writeback_miss 15
Core_0_LLC_writeback_MPKI 0.00015
Core_0_LLC_writeback_miss_rate 0.00539568
Core_0_LLC_prefetch_requested 0
Core_0_LLC_prefetch_issued 0
Core_0_LLC_prefetch_useful 0
Core_0_LLC_prefetch_useless 0
Core_0_LLC_prefetch_late 0
Core_0_LLC_prefetch_fill 135323
Core_0_LLC_prefetch_too_early 0
Core_0_LLC_prefetch_too_early_among_fill 0
Core_0_LLC_prefetch_too_early_among_useless 0
Core_0_LLC_prefetch_pollution_evict 29197
Core_0_LLC_prefetch_pollution_demand 29197
Core_0_LLC_prefetch_pollution_among_prefetch_fill 0.215758
Core_0_LLC_prefetch_accuracy 0
Core_0_LLC_prefetch_coverage 0

[DRAM Statistics]
Channel_0_RQ_row_buffer_hit 30958
Channel_0_RQ_row_buffer_miss 6019360
Channel_0_WQ_row_buffer_hit 2
Channel_0_WQ_row_buffer_miss 13
Channel_0_WQ_full 0
Channel_0_dbus_congested 6322098
DRAM_total_RQ_row_buffer_hit 30958
DRAM_total_RQ_row_buffer_miss 6019360
DRAM_total_WQ_row_buffer_hit 2
DRAM_total_WQ_row_buffer_miss 13
DRAM_total_WQ_full 0
DRAM_total_dbus_congested 6322098
DRAM_avg_congested_cycle 2.93192

====== DRAM_RQ_TRAFFIC ========
DRAM_RQ_READ_TRAFFIC_BREAKDOWN:
data_demand_read.count = 4439879
data_demand_read.share = 73.38%

inst_demand_read.count = 0
inst_demand_read.share = 0.00%

cache_inst_prefetch.count = 0
cache_inst_prefetch.share = 0.00%

cache_data_prefetch.count = 135323
cache_data_prefetch.share = 2.24%

stlb_data_demand.count = 1475116
stlb_data_demand.share = 24.38%

stlb_inst_demand.count = 0
stlb_inst_demand.share = 0.00%

stlb_l1i_pref.count = 0
stlb_l1i_pref.share = 0.00%

stlb_l1d_pref.count = 0
stlb_l1d_pref.share = 0.00%

DRAM_RQ_READ_TRAFFIC_SUMMARY:
cache_demand.count = 4439879
cache_demand.share = 73.38%

cache_prefetch.count = 135323
cache_prefetch.share = 2.24%

stlb_demand.count = 1475116
stlb_demand.share = 24.38%

stlb_prefetch.count = 0
stlb_prefetch.share = 0.00%

DRAM_RQ_READ_TRAFFIC_DEBUG:
total_classified_read.count = 6050318
unclassified_read.count = 0
total_read_with_other.count = 6050318

classified_plus_unclassified_check.count = 6050318
dram_rq_read_total_observed.count = 6050318
dram_rq_read_total_observed.per_1K_instructions = 60.5032

STLB_MISS_PTW_DRAM_TOUCH_BREAKDOWN:
stlb_miss_total.count = 3857150

stlb_miss_touch_dram.count = 1476767
stlb_miss_touch_dram.share = 38.29%

stlb_miss_no_dram_touch.count = 2380383
stlb_miss_no_dram_touch.share = 61.71%

STLB_MISS_PTW_DRAM_TOUCH_DEBUG:
stlb_miss_touch_plus_no_touch.count = 3857150
stlb_miss_total_check.count = 3857150

======STLB miss causes ========
Core_0_STLB_miss_cause_breakdown
Core_0_STLB_cause_Demand_Data_miss 3855260
Core_0_STLB_cause_Demand_Data_miss_rate 0.967722
Core_0_STLB_cause_Demand_Instruction_miss 0
Core_0_STLB_cause_Demand_Instruction_miss_rate 0
Core_0_STLB_cause_L1D_Prefetch_miss 1890
Core_0_STLB_cause_L1D_Prefetch_miss_rate 0.000474415
Core_0_STLB_cause_L1D_Prefetch_Same_Page_miss 0
Core_0_STLB_cause_L1D_Prefetch_Same_Page_miss_rate 0
Core_0_STLB_cause_L1D_Prefetch_Cross_Page_miss 1890
Core_0_STLB_cause_L1D_Prefetch_Cross_Page_miss_rate 0.000474415
Core_0_STLB_cause_L1I_Prefetch_miss 0
Core_0_STLB_cause_L1I_Prefetch_miss_rate 0
Core_0_STLB_cause_Other_miss 0
Core_0_STLB_cause_Other_miss_rate 0
Core_0_STLB_Demand_miss 3855260
Core_0_STLB_Demand_miss_rate 0.967722
Core_0_STLB_L1D_Prefetch_miss 1890
Core_0_STLB_L1D_Prefetch_miss_rate 0.000474415
Core_0_STLB_Other_miss 0
Core_0_STLB_Other_miss_rate 0

========== vBerti-TLB Cross-page Flow Stats ==========

Core_0_vBerti_Requested 2353158
Core_0_vBerti_Cross_page_prefetch_in_Requested 289943
Core_0_vBerti_Same_page_prefetch_in_Requested 2063215
Core_0_vBerti_Cross_page_prefetch_of_Requested 0.123214
Core_0_vBerti_Issued 2065173
Core_0_vBerti_InPQ_Same_page_prefetch 1844426
Core_0_vBerti_InPQ_Cross_page_prefetch 220747
Core_0_vBerti_PQ_Drop_Rate 0.122382
Core_0_vBerti_InPQ_Cross_page_prefetch_of_Requested 0.0938088
Core_0_vBerti_Cross_page_PQ_Drop_rate 0.238654
Core_0_vBerti_Cross_page_prefetch_of_Issued 0.10689
Core_0_CP_PF_PQFULL_drop 69196
Core_0_CP_PF_PQFULL_TLB_rescue_enqueued 69196
Core_0_CP_PF_PQFULL_TLB_rescue_issued 69196
Core_0_CP_PF_PQFULL_TLB_rescue_translated 69196

========= DTLB_vBerti Prefetch Stats =========
Core_0_DTLB_demand_access 11206066
Core_0_DTLB_demand_hit 7025268
Core_0_DTLB_demand_miss 4180798
Core_0_DTLB_demand_mshr_merge 201481
Core_0_DTLB_demand_fill 3979322
Core_0_DTLB_demand_miss_rate 0.373083
Core_0_DTLB_demand_mpki 41.808
Core_0_DTLB_vberti_prefetch_access 1614321
Core_0_DTLB_vberti_prefetch_hit 1608183
Core_0_DTLB_vberti_prefetch_miss 6138
Core_0_DTLB_vberti_prefetch_mshr_merge 1605
Core_0_DTLB_vberti_prefetch_fill 4533
Core_0_DTLB_vberti_prefetch_miss_rate 0.00380222
Core_0_DTLB_vberti_prefetch_mpki 0.06138

=== DTLB_vBerti Same/Cross-page Prefetch Stats ===
Core_0_DTLB_vberti_same_page_prefetch 1402403
Core_0_DTLB_vberti_same_page_prefetch_hit 1402403
Core_0_DTLB_vberti_same_page_prefetch_miss 0
Core_0_DTLB_vberti_same_page_prefetch_mshr_merge 0
Core_0_DTLB_vberti_same_page_prefetch_fill 0
Core_0_DTLB_vberti_same_page_prefetch_miss_rate 0
Core_0_DTLB_vberti_same_page_prefetch_mpki 0
Core_0_DTLB_vberti_cross_page_prefetch 211918
Core_0_DTLB_vberti_cross_page_prefetch_hit 205780
Core_0_DTLB_vberti_cross_page_prefetch_miss 6138
Core_0_DTLB_vberti_cross_page_prefetch_mshr_merge 1605
Core_0_DTLB_vberti_cross_page_prefetch_fill 4533
Core_0_DTLB_vberti_cross_page_prefetch_miss_rate 0.028964
Core_0_DTLB_vberti_cross_page_prefetch_mpki 0.06138
Core_0_DTLB_same_page_prefetch_miss_rate 0
Core_0_DTLB_same_page_prefetch_mpki 0
Core_0_DTLB_cross_page_prefetch_miss_rate 0.028964
Core_0_DTLB_cross_page_prefetch_mpki 0.06138
Core_0_DTLB_cross_page_prefetch_issued 211918
Core_0_DTLB_cross_page_prefetch_lookups 211918
Core_0_DTLB_cross_page_prefetch_useful 801
Core_0_DTLB_cross_page_prefetch_useless 3732
Core_0_DTLB_cross_page_prefetch_late 0
Core_0_DTLB_cross_page_prefetch_too_early 378
Core_0_DTLB_cross_page_prefetch_too_early_among_fill 0.0833885
Core_0_DTLB_cross_page_prefetch_too_early_among_useless 0.101286
Core_0_DTLB_cross_page_prefetch_pollution_evict 2142
Core_0_DTLB_cross_page_prefetch_pollution_demand 2142
Core_0_DTLB_cross_page_prefetch_pollution_among_prefetch_fill 0.472535
Core_0_DTLB_cross_page_prefetch_accuracy 0.00377976
Core_0_DTLB_cross_page_prefetch_coverage 0.000191554

========= STLB_vBerti Prefetch Stats =========
Core_0_STLB_demand_access 3979317
Core_0_STLB_demand_hit 124057
Core_0_STLB_demand_miss 3855260
Core_0_STLB_demand_mshr_merge 0
Core_0_STLB_demand_fill 3855265
Core_0_STLB_demand_miss_rate 0.968825
Core_0_STLB_demand_mpki 38.5526
Core_0_STLB_vberti_prefetch_access 4533
Core_0_STLB_vberti_prefetch_hit 2643
Core_0_STLB_vberti_prefetch_miss 1890
Core_0_STLB_vberti_prefetch_mshr_merge 0
Core_0_STLB_vberti_prefetch_fill 1890
Core_0_STLB_vberti_prefetch_miss_rate 0.416942
Core_0_STLB_vberti_prefetch_mpki 0.0189

=== STLB_vBerti Same/Cross-page Prefetch Stats ===
Core_0_STLB_vberti_same_page_prefetch 0
Core_0_STLB_vberti_same_page_prefetch_hit 0
Core_0_STLB_vberti_same_page_prefetch_miss 0
Core_0_STLB_vberti_same_page_prefetch_mshr_merge 0
Core_0_STLB_vberti_same_page_prefetch_fill 0
Core_0_STLB_vberti_same_page_prefetch_miss_rate 0
Core_0_STLB_vberti_same_page_prefetch_mpki 0
Core_0_STLB_vberti_cross_page_prefetch 4533
Core_0_STLB_vberti_cross_page_prefetch_hit 2643
Core_0_STLB_vberti_cross_page_prefetch_miss 1890
Core_0_STLB_vberti_cross_page_prefetch_mshr_merge 0
Core_0_STLB_vberti_cross_page_prefetch_fill 1890
Core_0_STLB_vberti_cross_page_prefetch_miss_rate 0.416942
Core_0_STLB_vberti_cross_page_prefetch_mpki 0.0189
Core_0_STLB_same_page_prefetch_miss_rate 0
Core_0_STLB_same_page_prefetch_mpki 0
Core_0_STLB_cross_page_prefetch_miss_rate 0.416942
Core_0_STLB_cross_page_prefetch_mpki 0.0189
Core_0_STLB_cross_page_prefetch_issued 4533
Core_0_STLB_cross_page_prefetch_lookups 4533
Core_0_STLB_cross_page_prefetch_useful 149
Core_0_STLB_cross_page_prefetch_useless 1741
Core_0_STLB_cross_page_prefetch_late 0
Core_0_STLB_cross_page_prefetch_too_early 389
Core_0_STLB_cross_page_prefetch_too_early_among_fill 0.20582
Core_0_STLB_cross_page_prefetch_too_early_among_useless 0.223435
Core_0_STLB_cross_page_prefetch_pollution_evict 1437
Core_0_STLB_cross_page_prefetch_pollution_demand 1437
Core_0_STLB_cross_page_prefetch_pollution_among_prefetch_fill 0.760317
Core_0_STLB_cross_page_prefetch_accuracy 0.0328701
Core_0_STLB_cross_page_prefetch_coverage 3.8647e-05

========= STLB Cross-page Prefetch Buffer Stats =========
Core_0_STLB_raw_demand_miss 3855260
Core_0_CP_PB_insert 0
Core_0_CP_PB_demand_hit 0
Core_0_STLB_PB_demand_miss 3855260
Core_0_CP_PB_coverage 0
Core_0_STLB_raw_demand_mpki 38.5526
Core_0_STLB_PB_demand_mpki 38.5526
Core_0_CP_PB_demand_hit_mpki 0

Core_0_TLB_demand_miss_rate 0.344033
Core_0_TLB_demand_mpki 38.5526
Core_0_TLB_same_page_prefetch_miss_rate 0
Core_0_TLB_same_page_prefetch_mpki 0
Core_0_TLB_cross_page_prefetch_miss_rate 0.00891854
Core_0_TLB_cross_page_prefetch_mpki 0.0189
Core_0_TLB_cross_page_prefetch_issued 211918
Core_0_TLB_cross_page_prefetch_lookups 211918
Core_0_TLB_cross_page_prefetch_useful 47
Core_0_TLB_cross_page_prefetch_useless 3228
Core_0_TLB_cross_page_prefetch_late 0
Core_0_TLB_cross_page_prefetch_too_early 234
Core_0_TLB_cross_page_prefetch_too_early_among_fill 0.0364316
Core_0_TLB_cross_page_prefetch_too_early_among_useless 0.0724907
Core_0_TLB_cross_page_prefetch_accuracy 0.000221784
Core_0_TLB_cross_page_prefetch_coverage 1.2191e-05
BERTI TO_L1: 1455067 TO_L2: 1602876 TO_L2_BC_MSHR: 2
BERTI AVG_LAT: 119.712 NUM_TRACK_LATENCY: 9085647 NUM_CANT_TRACK_LATENCY: 0
BERTI CROSS_PAGE 309909 NO_CROSS_PAGE: 2748034
BERTI FOUND_BERTI: 12859264 NO_FOUND_BERTI: 3627528
BERTI AVERAGE_ISSUED: 2.91487
