[VMEM] WARNING: physical memory size is smaller than virtual memory size.

*** ChampSim Multicore Out-of-Order Simulator ***
Warmup Instructions: 50000000
Simulation Instructions: 100000000
Number of CPUs: 1
Page size: 4096
Core 0: /data2/zcq/champsim_traces_xsbench/xs.XXL100nuclide-324B.champsimtrace.xz
VBerti Prefetcher
BERTI HASH ENTANGLING
BERTI IP MASK ffff
Off-chip DRAM Size: 16 GiB Channels: 1 Width: 64-bit Data Rate: 3205 MT/s
Warmup halting CPU 0 at instruction 50000003 cycle 37078908 for remainder of phase
Warmup finished CPU 0 instructions: 50000003 cycles: 37078908 cumulative IPC: 1.348 (Simulation time: 00 hr 06 min 06 sec)
Warmup complete CPU 0 instructions: 50000003 cycles: 37078908 cumulative IPC: 1.348 (Simulation time: 00 hr 06 min 06 sec)
Simulation finished CPU 0 instructions: 100000001 cycles: 691403322 cumulative IPC: 0.1446 (Simulation time: 00 hr 47 min 03 sec)
Simulation complete CPU 0 instructions: 100000001 cycles: 691403322 cumulative IPC: 0.1446 (Simulation time: 00 hr 47 min 03 sec)

ChampSim completed all CPUs

=== Simulation ===
CPU 0 runs /data2/zcq/champsim_traces_xsbench/xs.XXL100nuclide-324B.champsimtrace.xz

Region of Interest Statistics

CPU 0 cumulative IPC: 0.1446 instructions: 100000001 cycles: 691403322
CPU 0 Branch Prediction Accuracy: 87.24% MPKI: 21.5 Average ROB Occupancy at Mispredict: 25.75
Branch type MPKI
BRANCH_DIRECT_JUMP: 0
BRANCH_INDIRECT: 0
BRANCH_CONDITIONAL: 21.5
BRANCH_DIRECT_CALL: 0
BRANCH_INDIRECT_CALL: 0
BRANCH_RETURN: 0

cpu0->cpu0_STLB TOTAL        ACCESS:    3997762 HIT:     144354 MISS:    3853408 MSHR_MERGE:          0
cpu0->cpu0_STLB LOAD         ACCESS:    3997762 HIT:     144354 MISS:    3853408 MSHR_MERGE:          0
cpu0->cpu0_STLB RFO          ACCESS:          0 HIT:          0 MISS:          0 MSHR_MERGE:          0
cpu0->cpu0_STLB PREFETCH     ACCESS:          0 HIT:          0 MISS:          0 MSHR_MERGE:          0
cpu0->cpu0_STLB WRITE        ACCESS:          0 HIT:          0 MISS:          0 MSHR_MERGE:          0
cpu0->cpu0_STLB TRANSLATION  ACCESS:          0 HIT:          0 MISS:          0 MSHR_MERGE:          0
cpu0->cpu0_STLB PREFETCH REQUESTED:          0 ISSUED:          0 USEFUL:          0 USELESS:          0 LATE:          0 TOO_EARLY:          0
cpu0->cpu0_STLB AVERAGE MISS LATENCY: 175.3 cycles
cpu0->cpu0_L2C TOTAL        ACCESS:   10611244 HIT:    1479027 MISS:    9132217 MSHR_MERGE:       8665
cpu0->cpu0_L2C LOAD         ACCESS:    5972278 HIT:     203079 MISS:    5769199 MSHR_MERGE:          0
cpu0->cpu0_L2C RFO          ACCESS:      12667 HIT:      11619 MISS:       1048 MSHR_MERGE:          0
cpu0->cpu0_L2C PREFETCH     ACCESS:    1288440 HIT:    1061084 MISS:     227356 MSHR_MERGE:       8665
cpu0->cpu0_L2C WRITE        ACCESS:      19918 HIT:      19868 MISS:         50 MSHR_MERGE:          0
cpu0->cpu0_L2C TRANSLATION  ACCESS:    3317941 HIT:     183377 MISS:    3134564 MSHR_MERGE:          0
cpu0->cpu0_L2C PREFETCH REQUESTED:     335583 ISSUED:     335583 USEFUL:      12148 USELESS:     136610 LATE:          0 TOO_EARLY:         33
cpu0->cpu0_L2C AVERAGE MISS LATENCY: 149.8 cycles
cpu0->cpu0_L1I TOTAL        ACCESS:      21672 HIT:      21672 MISS:          0 MSHR_MERGE:          0
cpu0->cpu0_L1I LOAD         ACCESS:      21672 HIT:      21672 MISS:          0 MSHR_MERGE:          0
cpu0->cpu0_L1I RFO          ACCESS:          0 HIT:          0 MISS:          0 MSHR_MERGE:          0
cpu0->cpu0_L1I PREFETCH     ACCESS:          0 HIT:          0 MISS:          0 MSHR_MERGE:          0
cpu0->cpu0_L1I WRITE        ACCESS:          0 HIT:          0 MISS:          0 MSHR_MERGE:          0
cpu0->cpu0_L1I TRANSLATION  ACCESS:          0 HIT:          0 MISS:          0 MSHR_MERGE:          0
cpu0->cpu0_L1I PREFETCH REQUESTED:          0 ISSUED:          0 USEFUL:          0 USELESS:          0 LATE:          0 TOO_EARLY:          0
cpu0->cpu0_L1I AVERAGE MISS LATENCY: - cycles
cpu0->cpu0_L1D TOTAL        ACCESS:   21978377 HIT:    9767362 MISS:   12211015 MSHR_MERGE:    1955205
cpu0->cpu0_L1D LOAD         ACCESS:    9562836 HIT:    3489416 MISS:    6073420 MSHR_MERGE:     101142
cpu0->cpu0_L1D RFO          ACCESS:          0 HIT:          0 MISS:          0 MSHR_MERGE:          0
cpu0->cpu0_L1D PREFETCH     ACCESS:    2138411 HIT:    1184087 MISS:     954324 MSHR_MERGE:       1467
cpu0->cpu0_L1D WRITE        ACCESS:    1815399 HIT:    1762407 MISS:      52992 MSHR_MERGE:      40258
cpu0->cpu0_L1D TRANSLATION  ACCESS:    8461731 HIT:    3331452 MISS:    5130279 MSHR_MERGE:    1812338
cpu0->cpu0_L1D PREFETCH REQUESTED:    2429490 ISSUED:    2138411 USEFUL:      36331 USELESS:      46770 LATE:        249 TOO_EARLY:       2475
cpu0->cpu0_L1D AVERAGE MISS LATENCY: 152.4 cycles
cpu0->cpu0_ITLB TOTAL        ACCESS:      17645 HIT:      17645 MISS:          0 MSHR_MERGE:          0
cpu0->cpu0_ITLB LOAD         ACCESS:      17645 HIT:      17645 MISS:          0 MSHR_MERGE:          0
cpu0->cpu0_ITLB RFO          ACCESS:          0 HIT:          0 MISS:          0 MSHR_MERGE:          0
cpu0->cpu0_ITLB PREFETCH     ACCESS:          0 HIT:          0 MISS:          0 MSHR_MERGE:          0
cpu0->cpu0_ITLB WRITE        ACCESS:          0 HIT:          0 MISS:          0 MSHR_MERGE:          0
cpu0->cpu0_ITLB TRANSLATION  ACCESS:          0 HIT:          0 MISS:          0 MSHR_MERGE:          0
cpu0->cpu0_ITLB PREFETCH REQUESTED:          0 ISSUED:          0 USEFUL:          0 USELESS:          0 LATE:          0 TOO_EARLY:          0
cpu0->cpu0_ITLB AVERAGE MISS LATENCY: - cycles
cpu0->cpu0_DTLB TOTAL        ACCESS:   12859915 HIT:    8656427 MISS:    4203488 MSHR_MERGE:     205726
cpu0->cpu0_DTLB LOAD         ACCESS:   12859915 HIT:    8656427 MISS:    4203488 MSHR_MERGE:     205726
cpu0->cpu0_DTLB RFO          ACCESS:          0 HIT:          0 MISS:          0 MSHR_MERGE:          0
cpu0->cpu0_DTLB PREFETCH     ACCESS:          0 HIT:          0 MISS:          0 MSHR_MERGE:          0
cpu0->cpu0_DTLB WRITE        ACCESS:          0 HIT:          0 MISS:          0 MSHR_MERGE:          0
cpu0->cpu0_DTLB TRANSLATION  ACCESS:          0 HIT:          0 MISS:          0 MSHR_MERGE:          0
cpu0->cpu0_DTLB PREFETCH REQUESTED:          0 ISSUED:          0 USEFUL:          0 USELESS:          0 LATE:          0 TOO_EARLY:          0
cpu0->cpu0_DTLB AVERAGE MISS LATENCY: 175 cycles
cpu0->LLC TOTAL        ACCESS:    9127410 HIT:    3071519 MISS:    6055891 MSHR_MERGE:          0
cpu0->LLC LOAD         ACCESS:    5769199 HIT:    1328513 MISS:    4440686 MSHR_MERGE:          0
cpu0->LLC RFO          ACCESS:       1048 HIT:       1048 MISS:          0 MSHR_MERGE:          0
cpu0->LLC PREFETCH     ACCESS:     218691 HIT:      83637 MISS:     135054 MSHR_MERGE:          0
cpu0->LLC WRITE        ACCESS:       3908 HIT:       3893 MISS:         15 MSHR_MERGE:          0
cpu0->LLC TRANSLATION  ACCESS:    3134564 HIT:    1654428 MISS:    1480136 MSHR_MERGE:          0
cpu0->LLC PREFETCH REQUESTED:          0 ISSUED:          0 USEFUL:          0 USELESS:          0 LATE:          0 TOO_EARLY:          0
cpu0->LLC AVERAGE MISS LATENCY: 201.7 cycles

DRAM Statistics

Channel 0 RQ ROW_BUFFER_HIT:      30614
  ROW_BUFFER_MISS:    6025262
  AVG DBUS CONGESTED CYCLE: 2.933
Channel 0 WQ ROW_BUFFER_HIT:          1
  ROW_BUFFER_MISS:         15
  FULL:          0
Channel 0 REFRESHES ISSUED:      57617

[ROI Statistics]
[System Configuration]
num_cpus 1
cpu_freq 4000
fetch_width 6
decode_width 6
dispatch_width 6
execute_width 6
lq_width 2
sq_width 2
retire_width 6
scheduler_size 128
branch_mispredict_penalty 15
rob_size 352
lq_size 128
sq_size 72
ifetch_buffer_size 64
decode_buffer_size 32
dispatch_buffer_size 32
register_file_size 288
decode_latency 1
dispatch_latency 1
schedule_latency 1
execute_latency 1
page_size 4096
block_size 64
core_0_itlb_set 16
core_0_itlb_way 4
core_0_itlb_rq_size 16
core_0_itlb_wq_size 16
core_0_itlb_pq_size 0
core_0_itlb_mshr_size 8
core_0_itlb_hit_latency 1
core_0_itlb_fill_latency 1
core_0_itlb_max_tag_check 2
core_0_itlb_max_fill 2
core_0_dtlb_set 16
core_0_dtlb_way 4
core_0_dtlb_rq_size 16
core_0_dtlb_wq_size 16
core_0_dtlb_pq_size 0
core_0_dtlb_mshr_size 8
core_0_dtlb_hit_latency 1
core_0_dtlb_fill_latency 1
core_0_dtlb_max_tag_check 2
core_0_dtlb_max_fill 2
core_0_stlb_set 128
core_0_stlb_way 12
core_0_stlb_rq_size 32
core_0_stlb_wq_size 32
core_0_stlb_pq_size 0
core_0_stlb_mshr_size 16
core_0_stlb_hit_latency 4
core_0_stlb_fill_latency 4
core_0_stlb_max_tag_check 1
core_0_stlb_max_fill 1
core_0_l1i_set 64
core_0_l1i_way 8
core_0_l1i_rq_size 64
core_0_l1i_wq_size 64
core_0_l1i_pq_size 32
core_0_l1i_mshr_size 8
core_0_l1i_hit_latency 2
core_0_l1i_fill_latency 2
core_0_l1i_max_tag_check 2
core_0_l1i_max_fill 2
core_0_l1d_set 64
core_0_l1d_way 12
core_0_l1d_rq_size 64
core_0_l1d_wq_size 64
core_0_l1d_pq_size 8
core_0_l1d_mshr_size 16
core_0_l1d_hit_latency 2
core_0_l1d_fill_latency 3
core_0_l1d_max_tag_check 2
core_0_l1d_max_fill 2
core_0_l2c_set 1024
core_0_l2c_way 8
core_0_l2c_rq_size 32
core_0_l2c_wq_size 32
core_0_l2c_pq_size 16
core_0_l2c_mshr_size 32
core_0_l2c_hit_latency 5
core_0_l2c_fill_latency 5
core_0_l2c_max_tag_check 1
core_0_l2c_max_fill 1
llc_set 2048
llc_way 16
llc_rq_size 32
llc_wq_size 32
llc_pq_size 32
llc_mshr_size 64
llc_hit_latency 10
llc_fill_latency 10
llc_max_tag_check 1
llc_max_fill 1
dram_channels 1
dram_ranks 1
dram_bankgroups 8
dram_banks 4
dram_rows 65536
dram_columns 1024
dram_channel_width 8
dram_rq_size 64
dram_wq_size 64
dram_size 17179869184
core_0_itlb_prefetcher no
core_0_dtlb_prefetcher no
core_0_stlb_prefetcher no
core_0_l1i_prefetcher next_line
core_0_l1d_prefetcher vberti
core_0_l2c_prefetcher ip_stride
llc_prefetcher no
llc_replacement drrip

Core_0_instructions 100000001
Core_0_cycles 691403322
Core_0_IPC 0.144633
Core_0_branch_prediction_accuracy 87.2419
Core_0_branch_MPKI 21.5023
Core_0_average_ROB_occupancy_at_mispredict 25.7467

Core_0_ITLB_total_access 17645
Core_0_ITLB_total_hit 17645
Core_0_ITLB_total_miss 0
Core_0_ITLB_total_MPKI 0
Core_0_ITLB_total_miss_rate 0
Core_0_ITLB_demand_access 17645
Core_0_ITLB_demand_hit 17645
Core_0_ITLB_demand_miss 0
Core_0_ITLB_demand_MPKI 0
Core_0_ITLB_demand_miss_rate 0
Core_0_ITLB_load_access 17645
Core_0_ITLB_load_hit 17645
Core_0_ITLB_load_miss 0
Core_0_ITLB_load_MPKI 0
Core_0_ITLB_load_miss_rate 0
Core_0_ITLB_rfo_access 0
Core_0_ITLB_rfo_hit 0
Core_0_ITLB_rfo_miss 0
Core_0_ITLB_rfo_MPKI 0
Core_0_ITLB_rfo_miss_rate 0
Core_0_ITLB_prefetch_access 0
Core_0_ITLB_prefetch_hit 0
Core_0_ITLB_prefetch_miss 0
Core_0_ITLB_prefetch_MPKI 0
Core_0_ITLB_prefetch_miss_rate 0
Core_0_ITLB_writeback_access 0
Core_0_ITLB_writeback_hit 0
Core_0_ITLB_writeback_miss 0
Core_0_ITLB_writeback_MPKI 0
Core_0_ITLB_writeback_miss_rate 0
Core_0_ITLB_prefetch_requested 0
Core_0_ITLB_prefetch_issued 0
Core_0_ITLB_prefetch_useful 0
Core_0_ITLB_prefetch_useless 0
Core_0_ITLB_prefetch_late 0
Core_0_ITLB_prefetch_fill 0
Core_0_ITLB_prefetch_too_early 0
Core_0_ITLB_prefetch_too_early_among_fill 0
Core_0_ITLB_prefetch_too_early_among_useless 0
Core_0_ITLB_prefetch_pollution_evict 0
Core_0_ITLB_prefetch_pollution_demand 0
Core_0_ITLB_prefetch_pollution_among_prefetch_fill 0
Core_0_ITLB_prefetch_accuracy 0
Core_0_ITLB_prefetch_coverage 0

Core_0_DTLB_total_access 12859915
Core_0_DTLB_total_hit 8656427
Core_0_DTLB_total_miss 4203488
Core_0_DTLB_total_MPKI 42.0349
Core_0_DTLB_total_miss_rate 0.326867
Core_0_DTLB_demand_access 12859915
Core_0_DTLB_demand_hit 8656427
Core_0_DTLB_demand_miss 4203488
Core_0_DTLB_demand_MPKI 42.0349
Core_0_DTLB_demand_miss_rate 0.326867
Core_0_DTLB_load_access 12859915
Core_0_DTLB_load_hit 8656427
Core_0_DTLB_load_miss 4203488
Core_0_DTLB_load_MPKI 42.0349
Core_0_DTLB_load_miss_rate 0.326867
Core_0_DTLB_rfo_access 0
Core_0_DTLB_rfo_hit 0
Core_0_DTLB_rfo_miss 0
Core_0_DTLB_rfo_MPKI 0
Core_0_DTLB_rfo_miss_rate 0
Core_0_DTLB_prefetch_access 0
Core_0_DTLB_prefetch_hit 0
Core_0_DTLB_prefetch_miss 0
Core_0_DTLB_prefetch_MPKI 0
Core_0_DTLB_prefetch_miss_rate 0
Core_0_DTLB_writeback_access 0
Core_0_DTLB_writeback_hit 0
Core_0_DTLB_writeback_miss 0
Core_0_DTLB_writeback_MPKI 0
Core_0_DTLB_writeback_miss_rate 0
Core_0_DTLB_prefetch_requested 0
Core_0_DTLB_prefetch_issued 0
Core_0_DTLB_prefetch_useful 0
Core_0_DTLB_prefetch_useless 0
Core_0_DTLB_prefetch_late 0
Core_0_DTLB_prefetch_fill 0
Core_0_DTLB_prefetch_too_early 0
Core_0_DTLB_prefetch_too_early_among_fill 0
Core_0_DTLB_prefetch_too_early_among_useless 0
Core_0_DTLB_prefetch_pollution_evict 0
Core_0_DTLB_prefetch_pollution_demand 0
Core_0_DTLB_prefetch_pollution_among_prefetch_fill 0
Core_0_DTLB_prefetch_accuracy 0
Core_0_DTLB_prefetch_coverage 0

Core_0_STLB_total_access 3997762
Core_0_STLB_total_hit 144354
Core_0_STLB_total_miss 3853408
Core_0_STLB_total_MPKI 38.5341
Core_0_STLB_total_miss_rate 0.963891
Core_0_STLB_demand_access 3997762
Core_0_STLB_demand_hit 144354
Core_0_STLB_demand_miss 3853408
Core_0_STLB_demand_MPKI 38.5341
Core_0_STLB_demand_miss_rate 0.963891
Core_0_STLB_load_access 3997762
Core_0_STLB_load_hit 144354
Core_0_STLB_load_miss 3853408
Core_0_STLB_load_MPKI 38.5341
Core_0_STLB_load_miss_rate 0.963891
Core_0_STLB_rfo_access 0
Core_0_STLB_rfo_hit 0
Core_0_STLB_rfo_miss 0
Core_0_STLB_rfo_MPKI 0
Core_0_STLB_rfo_miss_rate 0
Core_0_STLB_prefetch_access 0
Core_0_STLB_prefetch_hit 0
Core_0_STLB_prefetch_miss 0
Core_0_STLB_prefetch_MPKI 0
Core_0_STLB_prefetch_miss_rate 0
Core_0_STLB_writeback_access 0
Core_0_STLB_writeback_hit 0
Core_0_STLB_writeback_miss 0
Core_0_STLB_writeback_MPKI 0
Core_0_STLB_writeback_miss_rate 0
Core_0_STLB_prefetch_requested 0
Core_0_STLB_prefetch_issued 0
Core_0_STLB_prefetch_useful 0
Core_0_STLB_prefetch_useless 0
Core_0_STLB_prefetch_late 0
Core_0_STLB_prefetch_fill 0
Core_0_STLB_prefetch_too_early 0
Core_0_STLB_prefetch_too_early_among_fill 0
Core_0_STLB_prefetch_too_early_among_useless 0
Core_0_STLB_prefetch_pollution_evict 0
Core_0_STLB_prefetch_pollution_demand 0
Core_0_STLB_prefetch_pollution_among_prefetch_fill 0
Core_0_STLB_prefetch_accuracy 0
Core_0_STLB_prefetch_coverage 0

Core_0_L1I_total_access 21672
Core_0_L1I_total_hit 21672
Core_0_L1I_total_miss 0
Core_0_L1I_total_MPKI 0
Core_0_L1I_total_miss_rate 0
Core_0_L1I_demand_access 21672
Core_0_L1I_demand_hit 21672
Core_0_L1I_demand_miss 0
Core_0_L1I_demand_MPKI 0
Core_0_L1I_demand_miss_rate 0
Core_0_L1I_load_access 21672
Core_0_L1I_load_hit 21672
Core_0_L1I_load_miss 0
Core_0_L1I_load_MPKI 0
Core_0_L1I_load_miss_rate 0
Core_0_L1I_rfo_access 0
Core_0_L1I_rfo_hit 0
Core_0_L1I_rfo_miss 0
Core_0_L1I_rfo_MPKI 0
Core_0_L1I_rfo_miss_rate 0
Core_0_L1I_prefetch_access 0
Core_0_L1I_prefetch_hit 0
Core_0_L1I_prefetch_miss 0
Core_0_L1I_prefetch_MPKI 0
Core_0_L1I_prefetch_miss_rate 0
Core_0_L1I_writeback_access 0
Core_0_L1I_writeback_hit 0
Core_0_L1I_writeback_miss 0
Core_0_L1I_writeback_MPKI 0
Core_0_L1I_writeback_miss_rate 0
Core_0_L1I_prefetch_requested 0
Core_0_L1I_prefetch_issued 0
Core_0_L1I_prefetch_useful 0
Core_0_L1I_prefetch_useless 0
Core_0_L1I_prefetch_late 0
Core_0_L1I_prefetch_fill 0
Core_0_L1I_prefetch_too_early 0
Core_0_L1I_prefetch_too_early_among_fill 0
Core_0_L1I_prefetch_too_early_among_useless 0
Core_0_L1I_prefetch_pollution_evict 0
Core_0_L1I_prefetch_pollution_demand 0
Core_0_L1I_prefetch_pollution_among_prefetch_fill 0
Core_0_L1I_prefetch_accuracy 0
Core_0_L1I_prefetch_coverage 0

Core_0_L1D_total_access 13516646
Core_0_L1D_total_hit 6435910
Core_0_L1D_total_miss 7080736
Core_0_L1D_total_MPKI 70.8074
Core_0_L1D_total_miss_rate 0.523853
Core_0_L1D_demand_access 9562836
Core_0_L1D_demand_hit 3489416
Core_0_L1D_demand_miss 6073420
Core_0_L1D_demand_MPKI 60.7342
Core_0_L1D_demand_miss_rate 0.635107
Core_0_L1D_load_access 9562836
Core_0_L1D_load_hit 3489416
Core_0_L1D_load_miss 6073420
Core_0_L1D_load_MPKI 60.7342
Core_0_L1D_load_miss_rate 0.635107
Core_0_L1D_rfo_access 0
Core_0_L1D_rfo_hit 0
Core_0_L1D_rfo_miss 0
Core_0_L1D_rfo_MPKI 0
Core_0_L1D_rfo_miss_rate 0
Core_0_L1D_prefetch_access 2138411
Core_0_L1D_prefetch_hit 1184087
Core_0_L1D_prefetch_miss 954324
Core_0_L1D_prefetch_MPKI 9.54324
Core_0_L1D_prefetch_miss_rate 0.446277
Core_0_L1D_writeback_access 1815399
Core_0_L1D_writeback_hit 1762407
Core_0_L1D_writeback_miss 52992
Core_0_L1D_writeback_MPKI 0.52992
Core_0_L1D_writeback_miss_rate 0.0291903
Core_0_L1D_prefetch_requested 2429490
Core_0_L1D_prefetch_issued 2138411
Core_0_L1D_prefetch_useful 36331
Core_0_L1D_prefetch_useless 46770
Core_0_L1D_prefetch_late 249
Core_0_L1D_prefetch_fill 82853
Core_0_L1D_prefetch_too_early 2475
Core_0_L1D_prefetch_too_early_among_fill 0.0298722
Core_0_L1D_prefetch_too_early_among_useless 0.0529185
Core_0_L1D_prefetch_pollution_evict 13237
Core_0_L1D_prefetch_pollution_demand 13225
Core_0_L1D_prefetch_pollution_among_prefetch_fill 0.159765
Core_0_L1D_prefetch_accuracy 0.0169897
Core_0_L1D_prefetch_coverage 0.0059464

Core_0_L2C_total_access 7293303
Core_0_L2C_total_hit 1295650
Core_0_L2C_total_miss 5997653
Core_0_L2C_total_MPKI 59.9765
Core_0_L2C_total_miss_rate 0.822351
Core_0_L2C_demand_access 5984945
Core_0_L2C_demand_hit 214698
Core_0_L2C_demand_miss 5770247
Core_0_L2C_demand_MPKI 57.7025
Core_0_L2C_demand_miss_rate 0.964127
Core_0_L2C_load_access 5972278
Core_0_L2C_load_hit 203079
Core_0_L2C_load_miss 5769199
Core_0_L2C_load_MPKI 57.692
Core_0_L2C_load_miss_rate 0.965996
Core_0_L2C_rfo_access 12667
Core_0_L2C_rfo_hit 11619
Core_0_L2C_rfo_miss 1048
Core_0_L2C_rfo_MPKI 0.01048
Core_0_L2C_rfo_miss_rate 0.0827347
Core_0_L2C_prefetch_access 1288440
Core_0_L2C_prefetch_hit 1061084
Core_0_L2C_prefetch_miss 227356
Core_0_L2C_prefetch_MPKI 2.27356
Core_0_L2C_prefetch_miss_rate 0.176458
Core_0_L2C_writeback_access 19918
Core_0_L2C_writeback_hit 19868
Core_0_L2C_writeback_miss 50
Core_0_L2C_writeback_MPKI 0.0005
Core_0_L2C_writeback_miss_rate 0.00251029
Core_0_L2C_prefetch_requested 335583
Core_0_L2C_prefetch_issued 335583
Core_0_L2C_prefetch_useful 12148
Core_0_L2C_prefetch_useless 136610
Core_0_L2C_prefetch_late 0
Core_0_L2C_prefetch_fill 218691
Core_0_L2C_prefetch_too_early 33
Core_0_L2C_prefetch_too_early_among_fill 0.000150898
Core_0_L2C_prefetch_too_early_among_useless 0.000241564
Core_0_L2C_prefetch_pollution_evict 45956
Core_0_L2C_prefetch_pollution_demand 45954
Core_0_L2C_prefetch_pollution_among_prefetch_fill 0.210141
Core_0_L2C_prefetch_accuracy 0.0361997
Core_0_L2C_prefetch_coverage 0.00210086

Core_0_LLC_total_access 5992846
Core_0_LLC_total_hit 1417091
Core_0_LLC_total_miss 4575755
Core_0_LLC_total_MPKI 45.7575
Core_0_LLC_total_miss_rate 0.763536
Core_0_LLC_demand_access 5770247
Core_0_LLC_demand_hit 1329561
Core_0_LLC_demand_miss 4440686
Core_0_LLC_demand_MPKI 44.4069
Core_0_LLC_demand_miss_rate 0.769583
Core_0_LLC_load_access 5769199
Core_0_LLC_load_hit 1328513
Core_0_LLC_load_miss 4440686
Core_0_LLC_load_MPKI 44.4069
Core_0_LLC_load_miss_rate 0.769723
Core_0_LLC_rfo_access 1048
Core_0_LLC_rfo_hit 1048
Core_0_LLC_rfo_miss 0
Core_0_LLC_rfo_MPKI 0
Core_0_LLC_rfo_miss_rate 0
Core_0_LLC_prefetch_access 218691
Core_0_LLC_prefetch_hit 83637
Core_0_LLC_prefetch_miss 135054
Core_0_LLC_prefetch_MPKI 1.35054
Core_0_LLC_prefetch_miss_rate 0.617556
Core_0_LLC_writeback_access 3908
Core_0_LLC_writeback_hit 3893
Core_0_LLC_writeback_miss 15
Core_0_LLC_writeback_MPKI 0.00015
Core_0_LLC_writeback_miss_rate 0.00383828
Core_0_LLC_prefetch_requested 0
Core_0_LLC_prefetch_issued 0
Core_0_LLC_prefetch_useful 0
Core_0_LLC_prefetch_useless 0
Core_0_LLC_prefetch_late 0
Core_0_LLC_prefetch_fill 135054
Core_0_LLC_prefetch_too_early 0
Core_0_LLC_prefetch_too_early_among_fill 0
Core_0_LLC_prefetch_too_early_among_useless 0
Core_0_LLC_prefetch_pollution_evict 29437
Core_0_LLC_prefetch_pollution_demand 29437
Core_0_LLC_prefetch_pollution_among_prefetch_fill 0.217965
Core_0_LLC_prefetch_accuracy 0
Core_0_LLC_prefetch_coverage 0

[DRAM Statistics]
Channel_0_RQ_row_buffer_hit 30614
Channel_0_RQ_row_buffer_miss 6025262
Channel_0_WQ_row_buffer_hit 1
Channel_0_WQ_row_buffer_miss 15
Channel_0_WQ_full 0
Channel_0_dbus_congested 6336944
DRAM_total_RQ_row_buffer_hit 30614
DRAM_total_RQ_row_buffer_miss 6025262
DRAM_total_WQ_row_buffer_hit 1
DRAM_total_WQ_row_buffer_miss 15
DRAM_total_WQ_full 0
DRAM_total_dbus_congested 6336944
DRAM_avg_congested_cycle 2.93263

====== DRAM_RQ_TRAFFIC ========
DRAM_RQ_READ_TRAFFIC_BREAKDOWN:
data_demand_read.count = 4440686
data_demand_read.share = 73.33%

inst_demand_read.count = 0
inst_demand_read.share = 0.00%

cache_inst_prefetch.count = 0
cache_inst_prefetch.share = 0.00%

cache_data_prefetch.count = 135054
cache_data_prefetch.share = 2.23%

stlb_data_demand.count = 1480136
stlb_data_demand.share = 24.44%

stlb_inst_demand.count = 0
stlb_inst_demand.share = 0.00%

stlb_l1i_pref.count = 0
stlb_l1i_pref.share = 0.00%

stlb_l1d_pref.count = 0
stlb_l1d_pref.share = 0.00%

DRAM_RQ_READ_TRAFFIC_SUMMARY:
cache_demand.count = 4440686
cache_demand.share = 73.33%

cache_prefetch.count = 135054
cache_prefetch.share = 2.23%

stlb_demand.count = 1480136
stlb_demand.share = 24.44%

stlb_prefetch.count = 0
stlb_prefetch.share = 0.00%

DRAM_RQ_READ_TRAFFIC_DEBUG:
total_classified_read.count = 6055876
unclassified_read.count = 0
total_read_with_other.count = 6055876

classified_plus_unclassified_check.count = 6055876
dram_rq_read_total_observed.count = 6055876
dram_rq_read_total_observed.per_1K_instructions = 60.5588

STLB_MISS_PTW_DRAM_TOUCH_BREAKDOWN:
stlb_miss_total.count = 3853408

stlb_miss_touch_dram.count = 1482156
stlb_miss_touch_dram.share = 38.46%

stlb_miss_no_dram_touch.count = 2371252
stlb_miss_no_dram_touch.share = 61.54%

STLB_MISS_PTW_DRAM_TOUCH_DEBUG:
stlb_miss_touch_plus_no_touch.count = 3853408
stlb_miss_total_check.count = 3853408

======STLB miss causes ========
Core_0_STLB_miss_cause_breakdown
Core_0_STLB_cause_Demand_Data_miss 3851568
Core_0_STLB_cause_Demand_Data_miss_rate 0.963431
Core_0_STLB_cause_Demand_Instruction_miss 0
Core_0_STLB_cause_Demand_Instruction_miss_rate 0
Core_0_STLB_cause_L1D_Prefetch_miss 1840
Core_0_STLB_cause_L1D_Prefetch_miss_rate 0.000460258
Core_0_STLB_cause_L1D_Prefetch_Same_Page_miss 0
Core_0_STLB_cause_L1D_Prefetch_Same_Page_miss_rate 0
Core_0_STLB_cause_L1D_Prefetch_Cross_Page_miss 1840
Core_0_STLB_cause_L1D_Prefetch_Cross_Page_miss_rate 0.000460258
Core_0_STLB_cause_L1I_Prefetch_miss 0
Core_0_STLB_cause_L1I_Prefetch_miss_rate 0
Core_0_STLB_cause_Other_miss 0
Core_0_STLB_cause_Other_miss_rate 0
Core_0_STLB_Demand_miss 3851568
Core_0_STLB_Demand_miss_rate 0.963431
Core_0_STLB_L1D_Prefetch_miss 1840
Core_0_STLB_L1D_Prefetch_miss_rate 0.000460258
Core_0_STLB_Other_miss 0
Core_0_STLB_Other_miss_rate 0

========== vBerti-TLB Cross-page Flow Stats ==========

Core_0_vBerti_Requested 2429490
Core_0_vBerti_Cross_page_prefetch_in_Requested 298089
Core_0_vBerti_Same_page_prefetch_in_Requested 2131401
Core_0_vBerti_Cross_page_prefetch_of_Requested 0.122696
Core_0_vBerti_Issued 2138411
Core_0_vBerti_InPQ_Same_page_prefetch 1908015
Core_0_vBerti_InPQ_Cross_page_prefetch 230396
Core_0_vBerti_PQ_Drop_Rate 0.119811
Core_0_vBerti_InPQ_Cross_page_prefetch_of_Requested 0.0948331
Core_0_vBerti_Cross_page_PQ_Drop_rate 0.22709
Core_0_vBerti_Cross_page_prefetch_of_Issued 0.107742
Core_0_CP_PF_PQFULL_drop 67693
Core_0_CP_PF_PQFULL_TLB_rescue_enqueued 67693
Core_0_CP_PF_PQFULL_TLB_rescue_issued 67693
Core_0_CP_PF_PQFULL_TLB_rescue_translated 67693

========= DTLB_vBerti Prefetch Stats =========
Core_0_DTLB_demand_access 11205540
Core_0_DTLB_demand_hit 7009557
Core_0_DTLB_demand_miss 4195983
Core_0_DTLB_demand_mshr_merge 203619
Core_0_DTLB_demand_fill 3992371
Core_0_DTLB_demand_miss_rate 0.374456
Core_0_DTLB_demand_mpki 41.9598
Core_0_DTLB_vberti_prefetch_access 1654375
Core_0_DTLB_vberti_prefetch_hit 1646870
Core_0_DTLB_vberti_prefetch_miss 7505
Core_0_DTLB_vberti_prefetch_mshr_merge 2107
Core_0_DTLB_vberti_prefetch_fill 5398
Core_0_DTLB_vberti_prefetch_miss_rate 0.00453646
Core_0_DTLB_vberti_prefetch_mpki 0.07505

=== DTLB_vBerti Same/Cross-page Prefetch Stats ===
Core_0_DTLB_vberti_same_page_prefetch 1436953
Core_0_DTLB_vberti_same_page_prefetch_hit 1436953
Core_0_DTLB_vberti_same_page_prefetch_miss 0
Core_0_DTLB_vberti_same_page_prefetch_mshr_merge 0
Core_0_DTLB_vberti_same_page_prefetch_fill 0
Core_0_DTLB_vberti_same_page_prefetch_miss_rate 0
Core_0_DTLB_vberti_same_page_prefetch_mpki 0
Core_0_DTLB_vberti_cross_page_prefetch 217422
Core_0_DTLB_vberti_cross_page_prefetch_hit 209917
Core_0_DTLB_vberti_cross_page_prefetch_miss 7505
Core_0_DTLB_vberti_cross_page_prefetch_mshr_merge 2107
Core_0_DTLB_vberti_cross_page_prefetch_fill 5398
Core_0_DTLB_vberti_cross_page_prefetch_miss_rate 0.0345181
Core_0_DTLB_vberti_cross_page_prefetch_mpki 0.07505
Core_0_DTLB_same_page_prefetch_miss_rate 0
Core_0_DTLB_same_page_prefetch_mpki 0
Core_0_DTLB_cross_page_prefetch_miss_rate 0.0345181
Core_0_DTLB_cross_page_prefetch_mpki 0.07505
Core_0_DTLB_cross_page_prefetch_issued 217422
Core_0_DTLB_cross_page_prefetch_lookups 217422
Core_0_DTLB_cross_page_prefetch_useful 832
Core_0_DTLB_cross_page_prefetch_useless 4566
Core_0_DTLB_cross_page_prefetch_late 0
Core_0_DTLB_cross_page_prefetch_too_early 352
Core_0_DTLB_cross_page_prefetch_too_early_among_fill 0.0652093
Core_0_DTLB_cross_page_prefetch_too_early_among_useless 0.0770915
Core_0_DTLB_cross_page_prefetch_pollution_evict 2367
Core_0_DTLB_cross_page_prefetch_pollution_demand 2367
Core_0_DTLB_cross_page_prefetch_pollution_among_prefetch_fill 0.438496
Core_0_DTLB_cross_page_prefetch_accuracy 0.00382666
Core_0_DTLB_cross_page_prefetch_coverage 0.000198246

========= STLB_vBerti Prefetch Stats =========
Core_0_STLB_demand_access 3992364
Core_0_STLB_demand_hit 140796
Core_0_STLB_demand_miss 3851568
Core_0_STLB_demand_mshr_merge 0
Core_0_STLB_demand_fill 3851575
Core_0_STLB_demand_miss_rate 0.964734
Core_0_STLB_demand_mpki 38.5157
Core_0_STLB_vberti_prefetch_access 5398
Core_0_STLB_vberti_prefetch_hit 3558
Core_0_STLB_vberti_prefetch_miss 1840
Core_0_STLB_vberti_prefetch_mshr_merge 0
Core_0_STLB_vberti_prefetch_fill 1840
Core_0_STLB_vberti_prefetch_miss_rate 0.340867
Core_0_STLB_vberti_prefetch_mpki 0.0184

=== STLB_vBerti Same/Cross-page Prefetch Stats ===
Core_0_STLB_vberti_same_page_prefetch 0
Core_0_STLB_vberti_same_page_prefetch_hit 0
Core_0_STLB_vberti_same_page_prefetch_miss 0
Core_0_STLB_vberti_same_page_prefetch_mshr_merge 0
Core_0_STLB_vberti_same_page_prefetch_fill 0
Core_0_STLB_vberti_same_page_prefetch_miss_rate 0
Core_0_STLB_vberti_same_page_prefetch_mpki 0
Core_0_STLB_vberti_cross_page_prefetch 5398
Core_0_STLB_vberti_cross_page_prefetch_hit 3558
Core_0_STLB_vberti_cross_page_prefetch_miss 1840
Core_0_STLB_vberti_cross_page_prefetch_mshr_merge 0
Core_0_STLB_vberti_cross_page_prefetch_fill 1840
Core_0_STLB_vberti_cross_page_prefetch_miss_rate 0.340867
Core_0_STLB_vberti_cross_page_prefetch_mpki 0.0184
Core_0_STLB_same_page_prefetch_miss_rate 0
Core_0_STLB_same_page_prefetch_mpki 0
Core_0_STLB_cross_page_prefetch_miss_rate 0.340867
Core_0_STLB_cross_page_prefetch_mpki 0.0184
Core_0_STLB_cross_page_prefetch_issued 5398
Core_0_STLB_cross_page_prefetch_lookups 5398
Core_0_STLB_cross_page_prefetch_useful 144
Core_0_STLB_cross_page_prefetch_useless 1696
Core_0_STLB_cross_page_prefetch_late 0
Core_0_STLB_cross_page_prefetch_too_early 378
Core_0_STLB_cross_page_prefetch_too_early_among_fill 0.205435
Core_0_STLB_cross_page_prefetch_too_early_among_useless 0.222877
Core_0_STLB_cross_page_prefetch_pollution_evict 1428
Core_0_STLB_cross_page_prefetch_pollution_demand 1428
Core_0_STLB_cross_page_prefetch_pollution_among_prefetch_fill 0.776087
Core_0_STLB_cross_page_prefetch_accuracy 0.0266765
Core_0_STLB_cross_page_prefetch_coverage 3.7386e-05

========= STLB Cross-page Prefetch Buffer Stats =========
Core_0_STLB_raw_demand_miss 3851568
Core_0_CP_PB_insert 0
Core_0_CP_PB_demand_hit 0
Core_0_STLB_PB_demand_miss 3851568
Core_0_CP_PB_coverage 0
Core_0_STLB_raw_demand_mpki 38.5157
Core_0_STLB_PB_demand_mpki 38.5157
Core_0_CP_PB_demand_hit_mpki 0

Core_0_TLB_demand_miss_rate 0.34372
Core_0_TLB_demand_mpki 38.5157
Core_0_TLB_same_page_prefetch_miss_rate 0
Core_0_TLB_same_page_prefetch_mpki 0
Core_0_TLB_cross_page_prefetch_miss_rate 0.00846281
Core_0_TLB_cross_page_prefetch_mpki 0.0184
Core_0_TLB_cross_page_prefetch_issued 217422
Core_0_TLB_cross_page_prefetch_lookups 217422
Core_0_TLB_cross_page_prefetch_useful 42
Core_0_TLB_cross_page_prefetch_useless 3931
Core_0_TLB_cross_page_prefetch_late 0
Core_0_TLB_cross_page_prefetch_too_early 183
Core_0_TLB_cross_page_prefetch_too_early_among_fill 0.0252832
Core_0_TLB_cross_page_prefetch_too_early_among_useless 0.046553
Core_0_TLB_cross_page_prefetch_accuracy 0.000193173
Core_0_TLB_cross_page_prefetch_coverage 1.09045e-05
BERTI TO_L1: 1478449 TO_L2: 1636714 TO_L2_BC_MSHR: 1
BERTI AVG_LAT: 119.929 NUM_TRACK_LATENCY: 9071926 NUM_CANT_TRACK_LATENCY: 0
BERTI CROSS_PAGE 315714 NO_CROSS_PAGE: 2799449
BERTI FOUND_BERTI: 12814697 NO_FOUND_BERTI: 3673151
BERTI AVERAGE_ISSUED: 2.91316
