[VMEM] WARNING: physical memory size is smaller than virtual memory size.

*** ChampSim Multicore Out-of-Order Simulator ***
Warmup Instructions: 20000000
Simulation Instructions: 50000000
Number of CPUs: 1
Page size: 4096
STLB ideal mode: l1pref
STLB ideal fill: on
Core 0: /data0/tzh/champsim_traces/SPEC06/429.mcf-184B.champsimtrace.xz
VBerti Prefetcher
BERTI HASH ENTANGLING
BERTI IP MASK ffff
Off-chip DRAM Size: 16 GiB Channels: 1 Width: 64-bit Data Rate: 3205 MT/s
Warmup halting CPU 0 at instruction 20000000 cycle 5732113 for remainder of phase
Warmup finished CPU 0 instructions: 20000000 cycles: 5732113 cumulative IPC: 3.489 (Simulation time: 00 hr 01 min 24 sec)
Warmup complete CPU 0 instructions: 20000000 cycles: 5732113 cumulative IPC: 3.489 (Simulation time: 00 hr 01 min 24 sec)
Simulation finished CPU 0 instructions: 50000003 cycles: 453543517 cumulative IPC: 0.1102 (Simulation time: 00 hr 31 min 43 sec)
Simulation complete CPU 0 instructions: 50000003 cycles: 453543517 cumulative IPC: 0.1102 (Simulation time: 00 hr 31 min 43 sec)

ChampSim completed all CPUs

=== Simulation ===
CPU 0 runs /data0/tzh/champsim_traces/SPEC06/429.mcf-184B.champsimtrace.xz

Region of Interest Statistics

CPU 0 cumulative IPC: 0.1102 instructions: 50000003 cycles: 453543517
CPU 0 Branch Prediction Accuracy: 92.05% MPKI: 19.09 Average ROB Occupancy at Mispredict: 37.76
Branch type MPKI
BRANCH_DIRECT_JUMP: 0.2201
BRANCH_INDIRECT: 0
BRANCH_CONDITIONAL: 18.87
BRANCH_DIRECT_CALL: 0
BRANCH_INDIRECT_CALL: 0
BRANCH_RETURN: 0

cpu0->cpu0_STLB TOTAL        ACCESS:    6491654 HIT:    6207091 MISS:     284563 MSHR_MERGE:          0
cpu0->cpu0_STLB LOAD         ACCESS:    6491654 HIT:    6207091 MISS:     284563 MSHR_MERGE:          0
cpu0->cpu0_STLB RFO          ACCESS:          0 HIT:          0 MISS:          0 MSHR_MERGE:          0
cpu0->cpu0_STLB PREFETCH     ACCESS:          0 HIT:          0 MISS:          0 MSHR_MERGE:          0
cpu0->cpu0_STLB WRITE        ACCESS:          0 HIT:          0 MISS:          0 MSHR_MERGE:          0
cpu0->cpu0_STLB TRANSLATION  ACCESS:          0 HIT:          0 MISS:          0 MSHR_MERGE:          0
cpu0->cpu0_STLB PREFETCH REQUESTED:          0 ISSUED:          0 USEFUL:          0 USELESS:          0 LATE:          0
cpu0->cpu0_STLB AVERAGE MISS LATENCY: 133.4 cycles
cpu0->cpu0_L2C TOTAL        ACCESS:    7468767 HIT:    2308658 MISS:    5160109 MSHR_MERGE:        801
cpu0->cpu0_L2C LOAD         ACCESS:    6776380 HIT:    1827216 MISS:    4949164 MSHR_MERGE:         48
cpu0->cpu0_L2C RFO          ACCESS:      30991 HIT:       9330 MISS:      21661 MSHR_MERGE:          0
cpu0->cpu0_L2C PREFETCH     ACCESS:      37185 HIT:      29406 MISS:       7779 MSHR_MERGE:        753
cpu0->cpu0_L2C WRITE        ACCESS:     331528 HIT:     331528 MISS:          0 MSHR_MERGE:          0
cpu0->cpu0_L2C TRANSLATION  ACCESS:     292683 HIT:     111178 MISS:     181505 MSHR_MERGE:          0
cpu0->cpu0_L2C PREFETCH REQUESTED:       4000 ISSUED:       4000 USEFUL:        680 USELESS:       1811 LATE:         26
cpu0->cpu0_L2C AVERAGE MISS LATENCY: 147.4 cycles
cpu0->cpu0_L1I TOTAL        ACCESS:     277084 HIT:     277084 MISS:          0 MSHR_MERGE:          0
cpu0->cpu0_L1I LOAD         ACCESS:     277084 HIT:     277084 MISS:          0 MSHR_MERGE:          0
cpu0->cpu0_L1I RFO          ACCESS:          0 HIT:          0 MISS:          0 MSHR_MERGE:          0
cpu0->cpu0_L1I PREFETCH     ACCESS:          0 HIT:          0 MISS:          0 MSHR_MERGE:          0
cpu0->cpu0_L1I WRITE        ACCESS:          0 HIT:          0 MISS:          0 MSHR_MERGE:          0
cpu0->cpu0_L1I TRANSLATION  ACCESS:          0 HIT:          0 MISS:          0 MSHR_MERGE:          0
cpu0->cpu0_L1I PREFETCH REQUESTED:          0 ISSUED:          0 USEFUL:          0 USELESS:          0 LATE:          0
cpu0->cpu0_L1I AVERAGE MISS LATENCY: - cycles
cpu0->cpu0_L1D TOTAL        ACCESS:   14003957 HIT:    4924971 MISS:    9078986 MSHR_MERGE:    1945559
cpu0->cpu0_L1D LOAD         ACCESS:   12366173 HIT:    3652539 MISS:    8713634 MSHR_MERGE:    1937250
cpu0->cpu0_L1D RFO          ACCESS:          0 HIT:          0 MISS:          0 MSHR_MERGE:          0
cpu0->cpu0_L1D PREFETCH     ACCESS:     331027 HIT:     297027 MISS:      34000 MSHR_MERGE:        631
cpu0->cpu0_L1D WRITE        ACCESS:     644265 HIT:     610785 MISS:      33480 MSHR_MERGE:       2489
cpu0->cpu0_L1D TRANSLATION  ACCESS:     662492 HIT:     364620 MISS:     297872 MSHR_MERGE:       5189
cpu0->cpu0_L1D PREFETCH REQUESTED:     362876 ISSUED:     331027 USEFUL:       3849 USELESS:       2787 LATE:        256
cpu0->cpu0_L1D AVERAGE MISS LATENCY: 115.7 cycles
cpu0->cpu0_ITLB TOTAL        ACCESS:     247534 HIT:     247534 MISS:          0 MSHR_MERGE:          0
cpu0->cpu0_ITLB LOAD         ACCESS:     247534 HIT:     247534 MISS:          0 MSHR_MERGE:          0
cpu0->cpu0_ITLB RFO          ACCESS:          0 HIT:          0 MISS:          0 MSHR_MERGE:          0
cpu0->cpu0_ITLB PREFETCH     ACCESS:          0 HIT:          0 MISS:          0 MSHR_MERGE:          0
cpu0->cpu0_ITLB WRITE        ACCESS:          0 HIT:          0 MISS:          0 MSHR_MERGE:          0
cpu0->cpu0_ITLB TRANSLATION  ACCESS:          0 HIT:          0 MISS:          0 MSHR_MERGE:          0
cpu0->cpu0_ITLB PREFETCH REQUESTED:          0 ISSUED:          0 USEFUL:          0 USELESS:          0 LATE:          0
cpu0->cpu0_ITLB AVERAGE MISS LATENCY: - cycles
cpu0->cpu0_DTLB TOTAL        ACCESS:   13143682 HIT:    4710079 MISS:    8433603 MSHR_MERGE:    1941950
cpu0->cpu0_DTLB LOAD         ACCESS:   13143682 HIT:    4710079 MISS:    8433603 MSHR_MERGE:    1941950
cpu0->cpu0_DTLB RFO          ACCESS:          0 HIT:          0 MISS:          0 MSHR_MERGE:          0
cpu0->cpu0_DTLB PREFETCH     ACCESS:          0 HIT:          0 MISS:          0 MSHR_MERGE:          0
cpu0->cpu0_DTLB WRITE        ACCESS:          0 HIT:          0 MISS:          0 MSHR_MERGE:          0
cpu0->cpu0_DTLB TRANSLATION  ACCESS:          0 HIT:          0 MISS:          0 MSHR_MERGE:          0
cpu0->cpu0_DTLB PREFETCH REQUESTED:          0 ISSUED:          0 USEFUL:          0 USELESS:          0 LATE:          0
cpu0->cpu0_DTLB AVERAGE MISS LATENCY: 10.89 cycles
cpu0->LLC TOTAL        ACCESS:    5425886 HIT:    1984151 MISS:    3441735 MSHR_MERGE:          6
cpu0->LLC LOAD         ACCESS:    4949116 HIT:    1741386 MISS:    3207730 MSHR_MERGE:          1
cpu0->LLC RFO          ACCESS:      21661 HIT:       7581 MISS:      14080 MSHR_MERGE:          0
cpu0->LLC PREFETCH     ACCESS:       7026 HIT:       2614 MISS:       4412 MSHR_MERGE:          5
cpu0->LLC WRITE        ACCESS:     266578 HIT:     147698 MISS:     118880 MSHR_MERGE:          0
cpu0->LLC TRANSLATION  ACCESS:     181505 HIT:      84872 MISS:      96633 MSHR_MERGE:          0
cpu0->LLC PREFETCH REQUESTED:          0 ISSUED:          0 USEFUL:          0 USELESS:          0 LATE:          0
cpu0->LLC AVERAGE MISS LATENCY: 197.8 cycles

DRAM Statistics

Channel 0 RQ ROW_BUFFER_HIT:       1662
  ROW_BUFFER_MISS:    3321098
  AVG DBUS CONGESTED CYCLE: 9.518
Channel 0 WQ ROW_BUFFER_HIT:      52725
  ROW_BUFFER_MISS:     152640
  FULL:          0
Channel 0 REFRESHES ISSUED:      37795

[ROI Statistics]
[System Configuration]
num_cpus 1
cpu_freq 4000
fetch_width 6
decode_width 6
dispatch_width 6
execute_width 6
lq_width 2
sq_width 2
retire_width 6
scheduler_size 128
branch_mispredict_penalty 15
rob_size 352
lq_size 128
sq_size 72
ifetch_buffer_size 64
decode_buffer_size 32
dispatch_buffer_size 32
register_file_size 288
decode_latency 1
dispatch_latency 1
schedule_latency 1
execute_latency 1
page_size 4096
block_size 64
core_0_itlb_set 16
core_0_itlb_way 4
core_0_itlb_rq_size 16
core_0_itlb_wq_size 16
core_0_itlb_pq_size 0
core_0_itlb_mshr_size 8
core_0_itlb_hit_latency 1
core_0_itlb_fill_latency 1
core_0_itlb_max_tag_check 2
core_0_itlb_max_fill 2
core_0_dtlb_set 16
core_0_dtlb_way 4
core_0_dtlb_rq_size 16
core_0_dtlb_wq_size 16
core_0_dtlb_pq_size 0
core_0_dtlb_mshr_size 8
core_0_dtlb_hit_latency 1
core_0_dtlb_fill_latency 1
core_0_dtlb_max_tag_check 2
core_0_dtlb_max_fill 2
core_0_stlb_set 128
core_0_stlb_way 12
core_0_stlb_rq_size 32
core_0_stlb_wq_size 32
core_0_stlb_pq_size 0
core_0_stlb_mshr_size 16
core_0_stlb_hit_latency 4
core_0_stlb_fill_latency 4
core_0_stlb_max_tag_check 1
core_0_stlb_max_fill 1
core_0_l1i_set 64
core_0_l1i_way 8
core_0_l1i_rq_size 64
core_0_l1i_wq_size 64
core_0_l1i_pq_size 32
core_0_l1i_mshr_size 8
core_0_l1i_hit_latency 2
core_0_l1i_fill_latency 2
core_0_l1i_max_tag_check 2
core_0_l1i_max_fill 2
core_0_l1d_set 64
core_0_l1d_way 12
core_0_l1d_rq_size 64
core_0_l1d_wq_size 64
core_0_l1d_pq_size 8
core_0_l1d_mshr_size 16
core_0_l1d_hit_latency 2
core_0_l1d_fill_latency 3
core_0_l1d_max_tag_check 2
core_0_l1d_max_fill 2
core_0_l2c_set 1024
core_0_l2c_way 8
core_0_l2c_rq_size 32
core_0_l2c_wq_size 32
core_0_l2c_pq_size 16
core_0_l2c_mshr_size 32
core_0_l2c_hit_latency 5
core_0_l2c_fill_latency 5
core_0_l2c_max_tag_check 1
core_0_l2c_max_fill 1
llc_set 2048
llc_way 16
llc_rq_size 32
llc_wq_size 32
llc_pq_size 32
llc_mshr_size 64
llc_hit_latency 10
llc_fill_latency 10
llc_max_tag_check 1
llc_max_fill 1
dram_channels 1
dram_ranks 1
dram_bankgroups 8
dram_banks 4
dram_rows 65536
dram_columns 1024
dram_channel_width 8
dram_rq_size 64
dram_wq_size 64
dram_size 17179869184
core_0_itlb_prefetcher no
core_0_dtlb_prefetcher no
core_0_stlb_prefetcher no
core_0_l1i_prefetcher next_line
core_0_l1d_prefetcher vberti
core_0_l2c_prefetcher ip_stride
llc_prefetcher no
llc_replacement drrip

Core_0_instructions 50000003
Core_0_cycles 453543517
Core_0_IPC 0.110243
Core_0_branch_prediction_accuracy 92.0456
Core_0_branch_MPKI 19.0851
Core_0_average_ROB_occupancy_at_mispredict 37.7561

Core_0_ITLB_total_access 247534
Core_0_ITLB_total_hit 247534
Core_0_ITLB_total_miss 0
Core_0_ITLB_total_MPKI 0
Core_0_ITLB_total_miss_rate 0
Core_0_ITLB_demand_access 247534
Core_0_ITLB_demand_hit 247534
Core_0_ITLB_demand_miss 0
Core_0_ITLB_demand_MPKI 0
Core_0_ITLB_demand_miss_rate 0
Core_0_ITLB_load_access 247534
Core_0_ITLB_load_hit 247534
Core_0_ITLB_load_miss 0
Core_0_ITLB_load_MPKI 0
Core_0_ITLB_load_miss_rate 0
Core_0_ITLB_rfo_access 0
Core_0_ITLB_rfo_hit 0
Core_0_ITLB_rfo_miss 0
Core_0_ITLB_rfo_MPKI 0
Core_0_ITLB_rfo_miss_rate 0
Core_0_ITLB_prefetch_access 0
Core_0_ITLB_prefetch_hit 0
Core_0_ITLB_prefetch_miss 0
Core_0_ITLB_prefetch_MPKI 0
Core_0_ITLB_prefetch_miss_rate 0
Core_0_ITLB_writeback_access 0
Core_0_ITLB_writeback_hit 0
Core_0_ITLB_writeback_miss 0
Core_0_ITLB_writeback_MPKI 0
Core_0_ITLB_writeback_miss_rate 0
Core_0_ITLB_prefetch_requested 0
Core_0_ITLB_prefetch_issued 0
Core_0_ITLB_prefetch_useful 0
Core_0_ITLB_prefetch_useless 0
Core_0_ITLB_prefetch_late 0
Core_0_ITLB_prefetch_accuracy 0
Core_0_ITLB_prefetch_coverage 0
Core_0_ITLB_total_eviction 0

Core_0_DTLB_total_access 13143682
Core_0_DTLB_total_hit 4710079
Core_0_DTLB_total_miss 8433603
Core_0_DTLB_total_MPKI 168.672
Core_0_DTLB_total_miss_rate 0.641647
Core_0_DTLB_demand_access 13143682
Core_0_DTLB_demand_hit 4710079
Core_0_DTLB_demand_miss 8433603
Core_0_DTLB_demand_MPKI 168.672
Core_0_DTLB_demand_miss_rate 0.641647
Core_0_DTLB_load_access 13143682
Core_0_DTLB_load_hit 4710079
Core_0_DTLB_load_miss 8433603
Core_0_DTLB_load_MPKI 168.672
Core_0_DTLB_load_miss_rate 0.641647
Core_0_DTLB_rfo_access 0
Core_0_DTLB_rfo_hit 0
Core_0_DTLB_rfo_miss 0
Core_0_DTLB_rfo_MPKI 0
Core_0_DTLB_rfo_miss_rate 0
Core_0_DTLB_prefetch_access 0
Core_0_DTLB_prefetch_hit 0
Core_0_DTLB_prefetch_miss 0
Core_0_DTLB_prefetch_MPKI 0
Core_0_DTLB_prefetch_miss_rate 0
Core_0_DTLB_writeback_access 0
Core_0_DTLB_writeback_hit 0
Core_0_DTLB_writeback_miss 0
Core_0_DTLB_writeback_MPKI 0
Core_0_DTLB_writeback_miss_rate 0
Core_0_DTLB_prefetch_requested 0
Core_0_DTLB_prefetch_issued 0
Core_0_DTLB_prefetch_useful 0
Core_0_DTLB_prefetch_useless 0
Core_0_DTLB_prefetch_late 0
Core_0_DTLB_prefetch_accuracy 0
Core_0_DTLB_prefetch_coverage 0
Core_0_DTLB_total_eviction 6491656

Core_0_STLB_total_access 6491654
Core_0_STLB_total_hit 6207091
Core_0_STLB_total_miss 284563
Core_0_STLB_total_MPKI 5.69126
Core_0_STLB_total_miss_rate 0.0438352
Core_0_STLB_demand_access 6491654
Core_0_STLB_demand_hit 6207091
Core_0_STLB_demand_miss 284563
Core_0_STLB_demand_MPKI 5.69126
Core_0_STLB_demand_miss_rate 0.0438352
Core_0_STLB_load_access 6491654
Core_0_STLB_load_hit 6207091
Core_0_STLB_load_miss 284563
Core_0_STLB_load_MPKI 5.69126
Core_0_STLB_load_miss_rate 0.0438352
Core_0_STLB_rfo_access 0
Core_0_STLB_rfo_hit 0
Core_0_STLB_rfo_miss 0
Core_0_STLB_rfo_MPKI 0
Core_0_STLB_rfo_miss_rate 0
Core_0_STLB_prefetch_access 0
Core_0_STLB_prefetch_hit 0
Core_0_STLB_prefetch_miss 0
Core_0_STLB_prefetch_MPKI 0
Core_0_STLB_prefetch_miss_rate 0
Core_0_STLB_writeback_access 0
Core_0_STLB_writeback_hit 0
Core_0_STLB_writeback_miss 0
Core_0_STLB_writeback_MPKI 0
Core_0_STLB_writeback_miss_rate 0
Core_0_STLB_prefetch_requested 0
Core_0_STLB_prefetch_issued 0
Core_0_STLB_prefetch_useful 0
Core_0_STLB_prefetch_useless 0
Core_0_STLB_prefetch_late 0
Core_0_STLB_prefetch_accuracy 0
Core_0_STLB_prefetch_coverage 0
Core_0_STLB_total_eviction 284638

Core_0_L1I_total_access 277084
Core_0_L1I_total_hit 277084
Core_0_L1I_total_miss 0
Core_0_L1I_total_MPKI 0
Core_0_L1I_total_miss_rate 0
Core_0_L1I_demand_access 277084
Core_0_L1I_demand_hit 277084
Core_0_L1I_demand_miss 0
Core_0_L1I_demand_MPKI 0
Core_0_L1I_demand_miss_rate 0
Core_0_L1I_load_access 277084
Core_0_L1I_load_hit 277084
Core_0_L1I_load_miss 0
Core_0_L1I_load_MPKI 0
Core_0_L1I_load_miss_rate 0
Core_0_L1I_rfo_access 0
Core_0_L1I_rfo_hit 0
Core_0_L1I_rfo_miss 0
Core_0_L1I_rfo_MPKI 0
Core_0_L1I_rfo_miss_rate 0
Core_0_L1I_prefetch_access 0
Core_0_L1I_prefetch_hit 0
Core_0_L1I_prefetch_miss 0
Core_0_L1I_prefetch_MPKI 0
Core_0_L1I_prefetch_miss_rate 0
Core_0_L1I_writeback_access 0
Core_0_L1I_writeback_hit 0
Core_0_L1I_writeback_miss 0
Core_0_L1I_writeback_MPKI 0
Core_0_L1I_writeback_miss_rate 0
Core_0_L1I_prefetch_requested 0
Core_0_L1I_prefetch_issued 0
Core_0_L1I_prefetch_useful 0
Core_0_L1I_prefetch_useless 0
Core_0_L1I_prefetch_late 0
Core_0_L1I_prefetch_accuracy 0
Core_0_L1I_prefetch_coverage 0
Core_0_L1I_total_eviction 0

Core_0_L1D_total_access 13341465
Core_0_L1D_total_hit 4560351
Core_0_L1D_total_miss 8781114
Core_0_L1D_total_MPKI 175.622
Core_0_L1D_total_miss_rate 0.658182
Core_0_L1D_demand_access 12366173
Core_0_L1D_demand_hit 3652539
Core_0_L1D_demand_miss 8713634
Core_0_L1D_demand_MPKI 174.273
Core_0_L1D_demand_miss_rate 0.704635
Core_0_L1D_load_access 12366173
Core_0_L1D_load_hit 3652539
Core_0_L1D_load_miss 8713634
Core_0_L1D_load_MPKI 174.273
Core_0_L1D_load_miss_rate 0.704635
Core_0_L1D_rfo_access 0
Core_0_L1D_rfo_hit 0
Core_0_L1D_rfo_miss 0
Core_0_L1D_rfo_MPKI 0
Core_0_L1D_rfo_miss_rate 0
Core_0_L1D_prefetch_access 331027
Core_0_L1D_prefetch_hit 297027
Core_0_L1D_prefetch_miss 34000
Core_0_L1D_prefetch_MPKI 0.68
Core_0_L1D_prefetch_miss_rate 0.102711
Core_0_L1D_writeback_access 644265
Core_0_L1D_writeback_hit 610785
Core_0_L1D_writeback_miss 33480
Core_0_L1D_writeback_MPKI 0.6696
Core_0_L1D_writeback_miss_rate 0.0519662
Core_0_L1D_prefetch_requested 362876
Core_0_L1D_prefetch_issued 331027
Core_0_L1D_prefetch_useful 3849
Core_0_L1D_prefetch_useless 2787
Core_0_L1D_prefetch_late 256
Core_0_L1D_prefetch_accuracy 0.0116275
Core_0_L1D_prefetch_coverage 0.000441527
Core_0_L1D_total_eviction 7106695

Core_0_L2C_total_access 7176084
Core_0_L2C_total_hit 2197480
Core_0_L2C_total_miss 4978604
Core_0_L2C_total_MPKI 99.5721
Core_0_L2C_total_miss_rate 0.693777
Core_0_L2C_demand_access 6807371
Core_0_L2C_demand_hit 1836546
Core_0_L2C_demand_miss 4970825
Core_0_L2C_demand_MPKI 99.4165
Core_0_L2C_demand_miss_rate 0.730212
Core_0_L2C_load_access 6776380
Core_0_L2C_load_hit 1827216
Core_0_L2C_load_miss 4949164
Core_0_L2C_load_MPKI 98.9833
Core_0_L2C_load_miss_rate 0.730355
Core_0_L2C_rfo_access 30991
Core_0_L2C_rfo_hit 9330
Core_0_L2C_rfo_miss 21661
Core_0_L2C_rfo_MPKI 0.43322
Core_0_L2C_rfo_miss_rate 0.698945
Core_0_L2C_prefetch_access 37185
Core_0_L2C_prefetch_hit 29406
Core_0_L2C_prefetch_miss 7779
Core_0_L2C_prefetch_MPKI 0.15558
Core_0_L2C_prefetch_miss_rate 0.209197
Core_0_L2C_writeback_access 331528
Core_0_L2C_writeback_hit 331528
Core_0_L2C_writeback_miss 0
Core_0_L2C_writeback_MPKI 0
Core_0_L2C_writeback_miss_rate 0
Core_0_L2C_prefetch_requested 4000
Core_0_L2C_prefetch_issued 4000
Core_0_L2C_prefetch_useful 680
Core_0_L2C_prefetch_useless 1811
Core_0_L2C_prefetch_late 26
Core_0_L2C_prefetch_accuracy 0.17
Core_0_L2C_prefetch_coverage 0.00013678
Core_0_L2C_total_eviction 5159268

Core_0_LLC_total_access 5244381
Core_0_LLC_total_hit 1899279
Core_0_LLC_total_miss 3345102
Core_0_LLC_total_MPKI 66.902
Core_0_LLC_total_miss_rate 0.637845
Core_0_LLC_demand_access 4970777
Core_0_LLC_demand_hit 1748967
Core_0_LLC_demand_miss 3221810
Core_0_LLC_demand_MPKI 64.4362
Core_0_LLC_demand_miss_rate 0.64815
Core_0_LLC_load_access 4949116
Core_0_LLC_load_hit 1741386
Core_0_LLC_load_miss 3207730
Core_0_LLC_load_MPKI 64.1546
Core_0_LLC_load_miss_rate 0.648142
Core_0_LLC_rfo_access 21661
Core_0_LLC_rfo_hit 7581
Core_0_LLC_rfo_miss 14080
Core_0_LLC_rfo_MPKI 0.2816
Core_0_LLC_rfo_miss_rate 0.650016
Core_0_LLC_prefetch_access 7026
Core_0_LLC_prefetch_hit 2614
Core_0_LLC_prefetch_miss 4412
Core_0_LLC_prefetch_MPKI 0.08824
Core_0_LLC_prefetch_miss_rate 0.627953
Core_0_LLC_writeback_access 266578
Core_0_LLC_writeback_hit 147698
Core_0_LLC_writeback_miss 118880
Core_0_LLC_writeback_MPKI 2.3776
Core_0_LLC_writeback_miss_rate 0.445948
Core_0_LLC_prefetch_requested 0
Core_0_LLC_prefetch_issued 0
Core_0_LLC_prefetch_useful 0
Core_0_LLC_prefetch_useless 0
Core_0_LLC_prefetch_late 0
Core_0_LLC_prefetch_accuracy 0
Core_0_LLC_prefetch_coverage 0
Core_0_LLC_total_eviction 3441729

[DRAM Statistics]
Channel_0_RQ_row_buffer_hit 1662
Channel_0_RQ_row_buffer_miss 3321098
Channel_0_WQ_row_buffer_hit 52725
Channel_0_WQ_row_buffer_miss 152640
Channel_0_WQ_full 0
Channel_0_dbus_congested 5355308
DRAM_total_RQ_row_buffer_hit 1662
DRAM_total_RQ_row_buffer_miss 3321098
DRAM_total_WQ_row_buffer_hit 52725
DRAM_total_WQ_row_buffer_miss 152640
DRAM_total_WQ_full 0
DRAM_total_dbus_congested 5355308
DRAM_avg_congested_cycle 9.51817

======STLB miss causes ========
Core_0_STLB_miss_cause_breakdown
Core_0_STLB_cause_Demand_Data_miss 284563
Core_0_STLB_cause_Demand_Data_miss_rate 0.0438352
Core_0_STLB_cause_Demand_Instruction_miss 0
Core_0_STLB_cause_Demand_Instruction_miss_rate 0
Core_0_STLB_cause_L1D_Prefetch_miss 0
Core_0_STLB_cause_L1D_Prefetch_miss_rate 0
Core_0_STLB_cause_L1I_Prefetch_miss 0
Core_0_STLB_cause_L1I_Prefetch_miss_rate 0
Core_0_STLB_cause_Other_miss 0
Core_0_STLB_cause_Other_miss_rate 0
Core_0_STLB_Demand_miss 284563
Core_0_STLB_Demand_miss_rate 0.0438352
Core_0_STLB_L1D_Prefetch_miss 0
Core_0_STLB_L1D_Prefetch_miss_rate 0
Core_0_STLB_Other_miss 0
Core_0_STLB_Other_miss_rate 0
BERTI TO_L1: 264445 TO_L2: 147011 TO_L2_BC_MSHR: 185
BERTI AVG_LAT: 84.0366 NUM_TRACK_LATENCY: 9533462 NUM_CANT_TRACK_LATENCY: 0
BERTI CROSS_PAGE 106806 NO_CROSS_PAGE: 304650
BERTI FOUND_BERTI: 12211802 NO_FOUND_BERTI: 4526333
BERTI AVERAGE_ISSUED: 1.8591
