[VMEM] WARNING: physical memory size is smaller than virtual memory size.

*** ChampSim Multicore Out-of-Order Simulator ***
Warmup Instructions: 20000000
Simulation Instructions: 50000000
Number of CPUs: 1
Page size: 4096
STLB ideal mode: l1pref
STLB ideal fill: on
Core 0: /data0/tzh/champsim_traces/SPEC06/471.omnetpp-188B.champsimtrace.xz
VBerti Prefetcher
BERTI HASH ENTANGLING
BERTI IP MASK ffff
Off-chip DRAM Size: 16 GiB Channels: 1 Width: 64-bit Data Rate: 3205 MT/s
Warmup halting CPU 0 at instruction 20000003 cycle 6465439 for remainder of phase
Warmup finished CPU 0 instructions: 20000003 cycles: 6465439 cumulative IPC: 3.093 (Simulation time: 00 hr 01 min 23 sec)
Warmup complete CPU 0 instructions: 20000003 cycles: 6465439 cumulative IPC: 3.093 (Simulation time: 00 hr 01 min 23 sec)
Simulation finished CPU 0 instructions: 50000005 cycles: 114724059 cumulative IPC: 0.4358 (Simulation time: 00 hr 13 min 04 sec)
Simulation complete CPU 0 instructions: 50000005 cycles: 114724059 cumulative IPC: 0.4358 (Simulation time: 00 hr 13 min 04 sec)

ChampSim completed all CPUs

=== Simulation ===
CPU 0 runs /data0/tzh/champsim_traces/SPEC06/471.omnetpp-188B.champsimtrace.xz

Region of Interest Statistics

CPU 0 cumulative IPC: 0.4358 instructions: 50000005 cycles: 114724059
CPU 0 Branch Prediction Accuracy: 97.85% MPKI: 5.178 Average ROB Occupancy at Mispredict: 109.2
Branch type MPKI
BRANCH_DIRECT_JUMP: 0.00076
BRANCH_INDIRECT: 0.1129
BRANCH_CONDITIONAL: 4.446
BRANCH_DIRECT_CALL: 0.00018
BRANCH_INDIRECT_CALL: 0.1187
BRANCH_RETURN: 0.4993

cpu0->cpu0_STLB TOTAL        ACCESS:    1159271 HIT:     980821 MISS:     178450 MSHR_MERGE:          0
cpu0->cpu0_STLB LOAD         ACCESS:    1159271 HIT:     980821 MISS:     178450 MSHR_MERGE:          0
cpu0->cpu0_STLB RFO          ACCESS:          0 HIT:          0 MISS:          0 MSHR_MERGE:          0
cpu0->cpu0_STLB PREFETCH     ACCESS:          0 HIT:          0 MISS:          0 MSHR_MERGE:          0
cpu0->cpu0_STLB WRITE        ACCESS:          0 HIT:          0 MISS:          0 MSHR_MERGE:          0
cpu0->cpu0_STLB TRANSLATION  ACCESS:          0 HIT:          0 MISS:          0 MSHR_MERGE:          0
cpu0->cpu0_STLB PREFETCH REQUESTED:          0 ISSUED:          0 USEFUL:          0 USELESS:          0 LATE:          0
cpu0->cpu0_STLB AVERAGE MISS LATENCY: 62.27 cycles
cpu0->cpu0_L2C TOTAL        ACCESS:    2391493 HIT:     965806 MISS:    1425687 MSHR_MERGE:      89441
cpu0->cpu0_L2C LOAD         ACCESS:     970650 HIT:     227672 MISS:     742978 MSHR_MERGE:       2544
cpu0->cpu0_L2C RFO          ACCESS:     128276 HIT:      25997 MISS:     102279 MSHR_MERGE:         57
cpu0->cpu0_L2C PREFETCH     ACCESS:     657298 HIT:     162370 MISS:     494928 MSHR_MERGE:      86840
cpu0->cpu0_L2C WRITE        ACCESS:     499542 HIT:     498188 MISS:       1354 MSHR_MERGE:          0
cpu0->cpu0_L2C TRANSLATION  ACCESS:     135727 HIT:      51579 MISS:      84148 MSHR_MERGE:          0
cpu0->cpu0_L2C PREFETCH REQUESTED:      38132 ISSUED:      38132 USEFUL:       6599 USELESS:      19841 LATE:         45
cpu0->cpu0_L2C AVERAGE MISS LATENCY: 168.6 cycles
cpu0->cpu0_L1I TOTAL        ACCESS:    7177659 HIT:    7175351 MISS:       2308 MSHR_MERGE:        587
cpu0->cpu0_L1I LOAD         ACCESS:    7177659 HIT:    7175351 MISS:       2308 MSHR_MERGE:        587
cpu0->cpu0_L1I RFO          ACCESS:          0 HIT:          0 MISS:          0 MSHR_MERGE:          0
cpu0->cpu0_L1I PREFETCH     ACCESS:          0 HIT:          0 MISS:          0 MSHR_MERGE:          0
cpu0->cpu0_L1I WRITE        ACCESS:          0 HIT:          0 MISS:          0 MSHR_MERGE:          0
cpu0->cpu0_L1I TRANSLATION  ACCESS:          0 HIT:          0 MISS:          0 MSHR_MERGE:          0
cpu0->cpu0_L1I PREFETCH REQUESTED:          0 ISSUED:          0 USEFUL:          0 USELESS:          0 LATE:          0
cpu0->cpu0_L1I AVERAGE MISS LATENCY: 150.1 cycles
cpu0->cpu0_L1D TOTAL        ACCESS:   17651278 HIT:   14776045 MISS:    2875233 MSHR_MERGE:    1003847
cpu0->cpu0_L1D LOAD         ACCESS:    8549776 HIT:    7095423 MISS:    1454353 MSHR_MERGE:     485422
cpu0->cpu0_L1D RFO          ACCESS:          0 HIT:          0 MISS:          0 MSHR_MERGE:          0
cpu0->cpu0_L1D PREFETCH     ACCESS:     831183 HIT:     191784 MISS:     639399 MSHR_MERGE:        959
cpu0->cpu0_L1D WRITE        ACCESS:    7908345 HIT:    7265046 MISS:     643299 MSHR_MERGE:     515011
cpu0->cpu0_L1D TRANSLATION  ACCESS:     361974 HIT:     223792 MISS:     138182 MSHR_MERGE:       2455
cpu0->cpu0_L1D PREFETCH REQUESTED:     879477 ISSUED:     831179 USEFUL:      75825 USELESS:      59331 LATE:        337
cpu0->cpu0_L1D AVERAGE MISS LATENCY: 135.9 cycles
cpu0->cpu0_ITLB TOTAL        ACCESS:    6314776 HIT:    6266386 MISS:      48390 MSHR_MERGE:      26969
cpu0->cpu0_ITLB LOAD         ACCESS:    6314776 HIT:    6266386 MISS:      48390 MSHR_MERGE:      26969
cpu0->cpu0_ITLB RFO          ACCESS:          0 HIT:          0 MISS:          0 MSHR_MERGE:          0
cpu0->cpu0_ITLB PREFETCH     ACCESS:          0 HIT:          0 MISS:          0 MSHR_MERGE:          0
cpu0->cpu0_ITLB WRITE        ACCESS:          0 HIT:          0 MISS:          0 MSHR_MERGE:          0
cpu0->cpu0_ITLB TRANSLATION  ACCESS:          0 HIT:          0 MISS:          0 MSHR_MERGE:          0
cpu0->cpu0_ITLB PREFETCH REQUESTED:          0 ISSUED:          0 USEFUL:          0 USELESS:          0 LATE:          0
cpu0->cpu0_ITLB AVERAGE MISS LATENCY: 6.177 cycles
cpu0->cpu0_DTLB TOTAL        ACCESS:   16444877 HIT:   14864241 MISS:    1580636 MSHR_MERGE:     442786
cpu0->cpu0_DTLB LOAD         ACCESS:   16444877 HIT:   14864241 MISS:    1580636 MSHR_MERGE:     442786
cpu0->cpu0_DTLB RFO          ACCESS:          0 HIT:          0 MISS:          0 MSHR_MERGE:          0
cpu0->cpu0_DTLB PREFETCH     ACCESS:          0 HIT:          0 MISS:          0 MSHR_MERGE:          0
cpu0->cpu0_DTLB WRITE        ACCESS:          0 HIT:          0 MISS:          0 MSHR_MERGE:          0
cpu0->cpu0_DTLB TRANSLATION  ACCESS:          0 HIT:          0 MISS:          0 MSHR_MERGE:          0
cpu0->cpu0_DTLB PREFETCH REQUESTED:          0 ISSUED:          0 USEFUL:          0 USELESS:          0 LATE:          0
cpu0->cpu0_DTLB AVERAGE MISS LATENCY: 14.91 cycles
cpu0->LLC TOTAL        ACCESS:    1775340 HIT:     588522 MISS:    1186818 MSHR_MERGE:         10
cpu0->LLC LOAD         ACCESS:     740434 HIT:     154556 MISS:     585878 MSHR_MERGE:          0
cpu0->LLC RFO          ACCESS:     102222 HIT:      14374 MISS:      87848 MSHR_MERGE:          0
cpu0->LLC PREFETCH     ACCESS:     408088 HIT:      35100 MISS:     372988 MSHR_MERGE:         10
cpu0->LLC WRITE        ACCESS:     440448 HIT:     326792 MISS:     113656 MSHR_MERGE:          0
cpu0->LLC TRANSLATION  ACCESS:      84148 HIT:      57700 MISS:      26448 MSHR_MERGE:          0
cpu0->LLC PREFETCH REQUESTED:          0 ISSUED:          0 USEFUL:          0 USELESS:          0 LATE:          0
cpu0->LLC AVERAGE MISS LATENCY: 175.8 cycles

DRAM Statistics

Channel 0 RQ ROW_BUFFER_HIT:      16684
  ROW_BUFFER_MISS:    1056352
  AVG DBUS CONGESTED CYCLE: 13.16
Channel 0 WQ ROW_BUFFER_HIT:     101583
  ROW_BUFFER_MISS:     243258
  FULL:          0
Channel 0 REFRESHES ISSUED:       9561

[ROI Statistics]
[System Configuration]
num_cpus 1
cpu_freq 4000
fetch_width 6
decode_width 6
dispatch_width 6
execute_width 6
lq_width 2
sq_width 2
retire_width 6
scheduler_size 128
branch_mispredict_penalty 15
rob_size 352
lq_size 128
sq_size 72
ifetch_buffer_size 64
decode_buffer_size 32
dispatch_buffer_size 32
register_file_size 288
decode_latency 1
dispatch_latency 1
schedule_latency 1
execute_latency 1
page_size 4096
block_size 64
core_0_itlb_set 16
core_0_itlb_way 4
core_0_itlb_rq_size 16
core_0_itlb_wq_size 16
core_0_itlb_pq_size 0
core_0_itlb_mshr_size 8
core_0_itlb_hit_latency 1
core_0_itlb_fill_latency 1
core_0_itlb_max_tag_check 2
core_0_itlb_max_fill 2
core_0_dtlb_set 16
core_0_dtlb_way 4
core_0_dtlb_rq_size 16
core_0_dtlb_wq_size 16
core_0_dtlb_pq_size 0
core_0_dtlb_mshr_size 8
core_0_dtlb_hit_latency 1
core_0_dtlb_fill_latency 1
core_0_dtlb_max_tag_check 2
core_0_dtlb_max_fill 2
core_0_stlb_set 128
core_0_stlb_way 12
core_0_stlb_rq_size 32
core_0_stlb_wq_size 32
core_0_stlb_pq_size 0
core_0_stlb_mshr_size 16
core_0_stlb_hit_latency 4
core_0_stlb_fill_latency 4
core_0_stlb_max_tag_check 1
core_0_stlb_max_fill 1
core_0_l1i_set 64
core_0_l1i_way 8
core_0_l1i_rq_size 64
core_0_l1i_wq_size 64
core_0_l1i_pq_size 32
core_0_l1i_mshr_size 8
core_0_l1i_hit_latency 2
core_0_l1i_fill_latency 2
core_0_l1i_max_tag_check 2
core_0_l1i_max_fill 2
core_0_l1d_set 64
core_0_l1d_way 12
core_0_l1d_rq_size 64
core_0_l1d_wq_size 64
core_0_l1d_pq_size 8
core_0_l1d_mshr_size 16
core_0_l1d_hit_latency 2
core_0_l1d_fill_latency 3
core_0_l1d_max_tag_check 2
core_0_l1d_max_fill 2
core_0_l2c_set 1024
core_0_l2c_way 8
core_0_l2c_rq_size 32
core_0_l2c_wq_size 32
core_0_l2c_pq_size 16
core_0_l2c_mshr_size 32
core_0_l2c_hit_latency 5
core_0_l2c_fill_latency 5
core_0_l2c_max_tag_check 1
core_0_l2c_max_fill 1
llc_set 2048
llc_way 16
llc_rq_size 32
llc_wq_size 32
llc_pq_size 32
llc_mshr_size 64
llc_hit_latency 10
llc_fill_latency 10
llc_max_tag_check 1
llc_max_fill 1
dram_channels 1
dram_ranks 1
dram_bankgroups 8
dram_banks 4
dram_rows 65536
dram_columns 1024
dram_channel_width 8
dram_rq_size 64
dram_wq_size 64
dram_size 17179869184
core_0_itlb_prefetcher no
core_0_dtlb_prefetcher no
core_0_stlb_prefetcher no
core_0_l1i_prefetcher next_line
core_0_l1d_prefetcher vberti
core_0_l2c_prefetcher ip_stride
llc_prefetcher no
llc_replacement drrip

Core_0_instructions 50000005
Core_0_cycles 114724059
Core_0_IPC 0.435828
Core_0_branch_prediction_accuracy 97.8525
Core_0_branch_MPKI 5.17782
Core_0_average_ROB_occupancy_at_mispredict 109.187

Core_0_ITLB_total_access 6314776
Core_0_ITLB_total_hit 6266386
Core_0_ITLB_total_miss 48390
Core_0_ITLB_total_MPKI 0.9678
Core_0_ITLB_total_miss_rate 0.00766298
Core_0_ITLB_demand_access 6314776
Core_0_ITLB_demand_hit 6266386
Core_0_ITLB_demand_miss 48390
Core_0_ITLB_demand_MPKI 0.9678
Core_0_ITLB_demand_miss_rate 0.00766298
Core_0_ITLB_load_access 6314776
Core_0_ITLB_load_hit 6266386
Core_0_ITLB_load_miss 48390
Core_0_ITLB_load_MPKI 0.9678
Core_0_ITLB_load_miss_rate 0.00766298
Core_0_ITLB_rfo_access 0
Core_0_ITLB_rfo_hit 0
Core_0_ITLB_rfo_miss 0
Core_0_ITLB_rfo_MPKI 0
Core_0_ITLB_rfo_miss_rate 0
Core_0_ITLB_prefetch_access 0
Core_0_ITLB_prefetch_hit 0
Core_0_ITLB_prefetch_miss 0
Core_0_ITLB_prefetch_MPKI 0
Core_0_ITLB_prefetch_miss_rate 0
Core_0_ITLB_writeback_access 0
Core_0_ITLB_writeback_hit 0
Core_0_ITLB_writeback_miss 0
Core_0_ITLB_writeback_MPKI 0
Core_0_ITLB_writeback_miss_rate 0
Core_0_ITLB_prefetch_requested 0
Core_0_ITLB_prefetch_issued 0
Core_0_ITLB_prefetch_useful 0
Core_0_ITLB_prefetch_useless 0
Core_0_ITLB_prefetch_late 0
Core_0_ITLB_prefetch_accuracy 0
Core_0_ITLB_prefetch_coverage 0
Core_0_ITLB_total_eviction 21421

Core_0_DTLB_total_access 16444877
Core_0_DTLB_total_hit 14864241
Core_0_DTLB_total_miss 1580636
Core_0_DTLB_total_MPKI 31.6127
Core_0_DTLB_total_miss_rate 0.0961172
Core_0_DTLB_demand_access 16444877
Core_0_DTLB_demand_hit 14864241
Core_0_DTLB_demand_miss 1580636
Core_0_DTLB_demand_MPKI 31.6127
Core_0_DTLB_demand_miss_rate 0.0961172
Core_0_DTLB_load_access 16444877
Core_0_DTLB_load_hit 14864241
Core_0_DTLB_load_miss 1580636
Core_0_DTLB_load_MPKI 31.6127
Core_0_DTLB_load_miss_rate 0.0961172
Core_0_DTLB_rfo_access 0
Core_0_DTLB_rfo_hit 0
Core_0_DTLB_rfo_miss 0
Core_0_DTLB_rfo_MPKI 0
Core_0_DTLB_rfo_miss_rate 0
Core_0_DTLB_prefetch_access 0
Core_0_DTLB_prefetch_hit 0
Core_0_DTLB_prefetch_miss 0
Core_0_DTLB_prefetch_MPKI 0
Core_0_DTLB_prefetch_miss_rate 0
Core_0_DTLB_writeback_access 0
Core_0_DTLB_writeback_hit 0
Core_0_DTLB_writeback_miss 0
Core_0_DTLB_writeback_MPKI 0
Core_0_DTLB_writeback_miss_rate 0
Core_0_DTLB_prefetch_requested 0
Core_0_DTLB_prefetch_issued 0
Core_0_DTLB_prefetch_useful 0
Core_0_DTLB_prefetch_useless 0
Core_0_DTLB_prefetch_late 0
Core_0_DTLB_prefetch_accuracy 0
Core_0_DTLB_prefetch_coverage 0
Core_0_DTLB_total_eviction 1137850

Core_0_STLB_total_access 1159271
Core_0_STLB_total_hit 980821
Core_0_STLB_total_miss 178450
Core_0_STLB_total_MPKI 3.569
Core_0_STLB_total_miss_rate 0.153933
Core_0_STLB_demand_access 1159271
Core_0_STLB_demand_hit 980821
Core_0_STLB_demand_miss 178450
Core_0_STLB_demand_MPKI 3.569
Core_0_STLB_demand_miss_rate 0.153933
Core_0_STLB_load_access 1159271
Core_0_STLB_load_hit 980821
Core_0_STLB_load_miss 178450
Core_0_STLB_load_MPKI 3.569
Core_0_STLB_load_miss_rate 0.153933
Core_0_STLB_rfo_access 0
Core_0_STLB_rfo_hit 0
Core_0_STLB_rfo_miss 0
Core_0_STLB_rfo_MPKI 0
Core_0_STLB_rfo_miss_rate 0
Core_0_STLB_prefetch_access 0
Core_0_STLB_prefetch_hit 0
Core_0_STLB_prefetch_miss 0
Core_0_STLB_prefetch_MPKI 0
Core_0_STLB_prefetch_miss_rate 0
Core_0_STLB_writeback_access 0
Core_0_STLB_writeback_hit 0
Core_0_STLB_writeback_miss 0
Core_0_STLB_writeback_MPKI 0
Core_0_STLB_writeback_miss_rate 0
Core_0_STLB_prefetch_requested 0
Core_0_STLB_prefetch_issued 0
Core_0_STLB_prefetch_useful 0
Core_0_STLB_prefetch_useless 0
Core_0_STLB_prefetch_late 0
Core_0_STLB_prefetch_accuracy 0
Core_0_STLB_prefetch_coverage 0
Core_0_STLB_total_eviction 255331

Core_0_L1I_total_access 7177659
Core_0_L1I_total_hit 7175351
Core_0_L1I_total_miss 2308
Core_0_L1I_total_MPKI 0.04616
Core_0_L1I_total_miss_rate 0.000321553
Core_0_L1I_demand_access 7177659
Core_0_L1I_demand_hit 7175351
Core_0_L1I_demand_miss 2308
Core_0_L1I_demand_MPKI 0.04616
Core_0_L1I_demand_miss_rate 0.000321553
Core_0_L1I_load_access 7177659
Core_0_L1I_load_hit 7175351
Core_0_L1I_load_miss 2308
Core_0_L1I_load_MPKI 0.04616
Core_0_L1I_load_miss_rate 0.000321553
Core_0_L1I_rfo_access 0
Core_0_L1I_rfo_hit 0
Core_0_L1I_rfo_miss 0
Core_0_L1I_rfo_MPKI 0
Core_0_L1I_rfo_miss_rate 0
Core_0_L1I_prefetch_access 0
Core_0_L1I_prefetch_hit 0
Core_0_L1I_prefetch_miss 0
Core_0_L1I_prefetch_MPKI 0
Core_0_L1I_prefetch_miss_rate 0
Core_0_L1I_writeback_access 0
Core_0_L1I_writeback_hit 0
Core_0_L1I_writeback_miss 0
Core_0_L1I_writeback_MPKI 0
Core_0_L1I_writeback_miss_rate 0
Core_0_L1I_prefetch_requested 0
Core_0_L1I_prefetch_issued 0
Core_0_L1I_prefetch_useful 0
Core_0_L1I_prefetch_useless 0
Core_0_L1I_prefetch_late 0
Core_0_L1I_prefetch_accuracy 0
Core_0_L1I_prefetch_coverage 0
Core_0_L1I_total_eviction 1713

Core_0_L1D_total_access 17289304
Core_0_L1D_total_hit 14552253
Core_0_L1D_total_miss 2737051
Core_0_L1D_total_MPKI 54.741
Core_0_L1D_total_miss_rate 0.158309
Core_0_L1D_demand_access 8549776
Core_0_L1D_demand_hit 7095423
Core_0_L1D_demand_miss 1454353
Core_0_L1D_demand_MPKI 29.0871
Core_0_L1D_demand_miss_rate 0.170104
Core_0_L1D_load_access 8549776
Core_0_L1D_load_hit 7095423
Core_0_L1D_load_miss 1454353
Core_0_L1D_load_MPKI 29.0871
Core_0_L1D_load_miss_rate 0.170104
Core_0_L1D_rfo_access 0
Core_0_L1D_rfo_hit 0
Core_0_L1D_rfo_miss 0
Core_0_L1D_rfo_MPKI 0
Core_0_L1D_rfo_miss_rate 0
Core_0_L1D_prefetch_access 831183
Core_0_L1D_prefetch_hit 191784
Core_0_L1D_prefetch_miss 639399
Core_0_L1D_prefetch_MPKI 12.788
Core_0_L1D_prefetch_miss_rate 0.769264
Core_0_L1D_writeback_access 7908345
Core_0_L1D_writeback_hit 7265046
Core_0_L1D_writeback_miss 643299
Core_0_L1D_writeback_MPKI 12.866
Core_0_L1D_writeback_miss_rate 0.0813443
Core_0_L1D_prefetch_requested 879477
Core_0_L1D_prefetch_issued 831179
Core_0_L1D_prefetch_useful 75825
Core_0_L1D_prefetch_useless 59331
Core_0_L1D_prefetch_late 337
Core_0_L1D_prefetch_accuracy 0.0912258
Core_0_L1D_prefetch_coverage 0.0495531
Core_0_L1D_total_eviction 1368088

Core_0_L2C_total_access 2255766
Core_0_L2C_total_hit 914227
Core_0_L2C_total_miss 1341539
Core_0_L2C_total_MPKI 26.8308
Core_0_L2C_total_miss_rate 0.594715
Core_0_L2C_demand_access 1098926
Core_0_L2C_demand_hit 253669
Core_0_L2C_demand_miss 845257
Core_0_L2C_demand_MPKI 16.9051
Core_0_L2C_demand_miss_rate 0.769166
Core_0_L2C_load_access 970650
Core_0_L2C_load_hit 227672
Core_0_L2C_load_miss 742978
Core_0_L2C_load_MPKI 14.8596
Core_0_L2C_load_miss_rate 0.765444
Core_0_L2C_rfo_access 128276
Core_0_L2C_rfo_hit 25997
Core_0_L2C_rfo_miss 102279
Core_0_L2C_rfo_MPKI 2.04558
Core_0_L2C_rfo_miss_rate 0.797335
Core_0_L2C_prefetch_access 657298
Core_0_L2C_prefetch_hit 162370
Core_0_L2C_prefetch_miss 494928
Core_0_L2C_prefetch_MPKI 9.89856
Core_0_L2C_prefetch_miss_rate 0.752974
Core_0_L2C_writeback_access 499542
Core_0_L2C_writeback_hit 498188
Core_0_L2C_writeback_miss 1354
Core_0_L2C_writeback_MPKI 0.02708
Core_0_L2C_writeback_miss_rate 0.00271048
Core_0_L2C_prefetch_requested 38132
Core_0_L2C_prefetch_issued 38132
Core_0_L2C_prefetch_useful 6599
Core_0_L2C_prefetch_useless 19841
Core_0_L2C_prefetch_late 45
Core_0_L2C_prefetch_accuracy 0.173057
Core_0_L2C_prefetch_coverage 0.00774661
Core_0_L2C_total_eviction 1335992

Core_0_LLC_total_access 1691192
Core_0_LLC_total_hit 530822
Core_0_LLC_total_miss 1160370
Core_0_LLC_total_MPKI 23.2074
Core_0_LLC_total_miss_rate 0.686126
Core_0_LLC_demand_access 842656
Core_0_LLC_demand_hit 168930
Core_0_LLC_demand_miss 673726
Core_0_LLC_demand_MPKI 13.4745
Core_0_LLC_demand_miss_rate 0.799527
Core_0_LLC_load_access 740434
Core_0_LLC_load_hit 154556
Core_0_LLC_load_miss 585878
Core_0_LLC_load_MPKI 11.7176
Core_0_LLC_load_miss_rate 0.791263
Core_0_LLC_rfo_access 102222
Core_0_LLC_rfo_hit 14374
Core_0_LLC_rfo_miss 87848
Core_0_LLC_rfo_MPKI 1.75696
Core_0_LLC_rfo_miss_rate 0.859384
Core_0_LLC_prefetch_access 408088
Core_0_LLC_prefetch_hit 35100
Core_0_LLC_prefetch_miss 372988
Core_0_LLC_prefetch_MPKI 7.45976
Core_0_LLC_prefetch_miss_rate 0.913989
Core_0_LLC_writeback_access 440448
Core_0_LLC_writeback_hit 326792
Core_0_LLC_writeback_miss 113656
Core_0_LLC_writeback_MPKI 2.27312
Core_0_LLC_writeback_miss_rate 0.258046
Core_0_LLC_prefetch_requested 0
Core_0_LLC_prefetch_issued 0
Core_0_LLC_prefetch_useful 0
Core_0_LLC_prefetch_useless 0
Core_0_LLC_prefetch_late 0
Core_0_LLC_prefetch_accuracy 0
Core_0_LLC_prefetch_coverage 0
Core_0_LLC_total_eviction 1186806

[DRAM Statistics]
Channel_0_RQ_row_buffer_hit 16684
Channel_0_RQ_row_buffer_miss 1056352
Channel_0_WQ_row_buffer_hit 101583
Channel_0_WQ_row_buffer_miss 243258
Channel_0_WQ_full 0
Channel_0_dbus_congested 3709166
DRAM_total_RQ_row_buffer_hit 16684
DRAM_total_RQ_row_buffer_miss 1056352
DRAM_total_WQ_row_buffer_hit 101583
DRAM_total_WQ_row_buffer_miss 243258
DRAM_total_WQ_full 0
DRAM_total_dbus_congested 3709166
DRAM_avg_congested_cycle 13.1585

======STLB miss causes ========
Core_0_STLB_miss_cause_breakdown
Core_0_STLB_cause_Demand_Data_miss 178111
Core_0_STLB_cause_Demand_Data_miss_rate 0.153641
Core_0_STLB_cause_Demand_Instruction_miss 339
Core_0_STLB_cause_Demand_Instruction_miss_rate 0.000292425
Core_0_STLB_cause_L1D_Prefetch_miss 0
Core_0_STLB_cause_L1D_Prefetch_miss_rate 0
Core_0_STLB_cause_L1I_Prefetch_miss 0
Core_0_STLB_cause_L1I_Prefetch_miss_rate 0
Core_0_STLB_cause_Other_miss 0
Core_0_STLB_cause_Other_miss_rate 0
Core_0_STLB_Demand_miss 178450
Core_0_STLB_Demand_miss_rate 0.153933
Core_0_STLB_L1D_Prefetch_miss 0
Core_0_STLB_L1D_Prefetch_miss_rate 0
Core_0_STLB_Other_miss 0
Core_0_STLB_Other_miss_rate 0
BERTI TO_L1: 361035 TO_L2: 822598 TO_L2_BC_MSHR: 34
BERTI AVG_LAT: 111.369 NUM_TRACK_LATENCY: 1702585 NUM_CANT_TRACK_LATENCY: 0
BERTI CROSS_PAGE 990613 NO_CROSS_PAGE: 193020
BERTI FOUND_BERTI: 5144774 NO_FOUND_BERTI: 16144862
BERTI AVERAGE_ISSUED: 1.43335
