[VMEM] WARNING: physical memory size is smaller than virtual memory size.

*** ChampSim Multicore Out-of-Order Simulator ***
Warmup Instructions: 20000000
Simulation Instructions: 50000000
Number of CPUs: 1
Page size: 4096
STLB ideal mode: l1pref
STLB ideal fill: on
Core 0: /data0/tzh/champsim_traces/SPEC06/473.astar-359B.champsimtrace.xz
VBerti Prefetcher
BERTI HASH ENTANGLING
BERTI IP MASK ffff
Off-chip DRAM Size: 16 GiB Channels: 1 Width: 64-bit Data Rate: 3205 MT/s
Warmup halting CPU 0 at instruction 20000005 cycle 6363078 for remainder of phase
Warmup finished CPU 0 instructions: 20000005 cycles: 6363078 cumulative IPC: 3.143 (Simulation time: 00 hr 01 min 29 sec)
Warmup complete CPU 0 instructions: 20000005 cycles: 6363078 cumulative IPC: 3.143 (Simulation time: 00 hr 01 min 29 sec)
Simulation finished CPU 0 instructions: 50000002 cycles: 256182296 cumulative IPC: 0.1952 (Simulation time: 00 hr 22 min 21 sec)
Simulation complete CPU 0 instructions: 50000002 cycles: 256182296 cumulative IPC: 0.1952 (Simulation time: 00 hr 22 min 21 sec)

ChampSim completed all CPUs

=== Simulation ===
CPU 0 runs /data0/tzh/champsim_traces/SPEC06/473.astar-359B.champsimtrace.xz

Region of Interest Statistics

CPU 0 cumulative IPC: 0.1952 instructions: 50000002 cycles: 256182296
CPU 0 Branch Prediction Accuracy: 93.2% MPKI: 13.43 Average ROB Occupancy at Mispredict: 45.04
Branch type MPKI
BRANCH_DIRECT_JUMP: 0
BRANCH_INDIRECT: 0
BRANCH_CONDITIONAL: 13.42
BRANCH_DIRECT_CALL: 0
BRANCH_INDIRECT_CALL: 0.00054
BRANCH_RETURN: 0

cpu0->cpu0_STLB TOTAL        ACCESS:    1633768 HIT:     837051 MISS:     796717 MSHR_MERGE:          0
cpu0->cpu0_STLB LOAD         ACCESS:    1633768 HIT:     837051 MISS:     796717 MSHR_MERGE:          0
cpu0->cpu0_STLB RFO          ACCESS:          0 HIT:          0 MISS:          0 MSHR_MERGE:          0
cpu0->cpu0_STLB PREFETCH     ACCESS:          0 HIT:          0 MISS:          0 MSHR_MERGE:          0
cpu0->cpu0_STLB WRITE        ACCESS:          0 HIT:          0 MISS:          0 MSHR_MERGE:          0
cpu0->cpu0_STLB TRANSLATION  ACCESS:          0 HIT:          0 MISS:          0 MSHR_MERGE:          0
cpu0->cpu0_STLB PREFETCH REQUESTED:          0 ISSUED:          0 USEFUL:          0 USELESS:          0 LATE:          0
cpu0->cpu0_STLB AVERAGE MISS LATENCY: 179.1 cycles
cpu0->cpu0_L2C TOTAL        ACCESS:    6117045 HIT:    4051063 MISS:    2065982 MSHR_MERGE:      99354
cpu0->cpu0_L2C LOAD         ACCESS:    1667856 HIT:     703674 MISS:     964182 MSHR_MERGE:      18533
cpu0->cpu0_L2C RFO          ACCESS:     723478 HIT:       9134 MISS:     714344 MSHR_MERGE:        567
cpu0->cpu0_L2C PREFETCH     ACCESS:    2125497 HIT:    1904729 MISS:     220768 MSHR_MERGE:      80254
cpu0->cpu0_L2C WRITE        ACCESS:    1162381 HIT:    1162292 MISS:         89 MSHR_MERGE:          0
cpu0->cpu0_L2C TRANSLATION  ACCESS:     437833 HIT:     271234 MISS:     166599 MSHR_MERGE:          0
cpu0->cpu0_L2C PREFETCH REQUESTED:     662126 ISSUED:     662038 USEFUL:      56804 USELESS:       6520 LATE:      17039
cpu0->cpu0_L2C AVERAGE MISS LATENCY: 331.4 cycles
cpu0->cpu0_L1I TOTAL        ACCESS:     740635 HIT:     740628 MISS:          7 MSHR_MERGE:          0
cpu0->cpu0_L1I LOAD         ACCESS:     740635 HIT:     740628 MISS:          7 MSHR_MERGE:          0
cpu0->cpu0_L1I RFO          ACCESS:          0 HIT:          0 MISS:          0 MSHR_MERGE:          0
cpu0->cpu0_L1I PREFETCH     ACCESS:          0 HIT:          0 MISS:          0 MSHR_MERGE:          0
cpu0->cpu0_L1I WRITE        ACCESS:          0 HIT:          0 MISS:          0 MSHR_MERGE:          0
cpu0->cpu0_L1I TRANSLATION  ACCESS:          0 HIT:          0 MISS:          0 MSHR_MERGE:          0
cpu0->cpu0_L1I PREFETCH REQUESTED:          0 ISSUED:          0 USEFUL:          0 USELESS:          0 LATE:          0
cpu0->cpu0_L1I AVERAGE MISS LATENCY: 212.9 cycles
cpu0->cpu0_L1D TOTAL        ACCESS:   26183285 HIT:   21170978 MISS:    5012307 MSHR_MERGE:     707121
cpu0->cpu0_L1D LOAD         ACCESS:   13664967 HIT:   11399892 MISS:    2265075 MSHR_MERGE:     597225
cpu0->cpu0_L1D RFO          ACCESS:          0 HIT:          0 MISS:          0 MSHR_MERGE:          0
cpu0->cpu0_L1D PREFETCH     ACCESS:    4719121 HIT:    3222212 MISS:    1496909 MSHR_MERGE:      20884
cpu0->cpu0_L1D WRITE        ACCESS:    6315379 HIT:    5591842 MISS:     723537 MSHR_MERGE:         59
cpu0->cpu0_L1D TRANSLATION  ACCESS:    1483818 HIT:     957032 MISS:     526786 MSHR_MERGE:      88953
cpu0->cpu0_L1D PREFETCH REQUESTED:   48643760 ISSUED:    4719121 USEFUL:      81588 USELESS:      16358 LATE:       3484
cpu0->cpu0_L1D AVERAGE MISS LATENCY: 225.1 cycles
cpu0->cpu0_ITLB TOTAL        ACCESS:     740536 HIT:     740536 MISS:          0 MSHR_MERGE:          0
cpu0->cpu0_ITLB LOAD         ACCESS:     740536 HIT:     740536 MISS:          0 MSHR_MERGE:          0
cpu0->cpu0_ITLB RFO          ACCESS:          0 HIT:          0 MISS:          0 MSHR_MERGE:          0
cpu0->cpu0_ITLB PREFETCH     ACCESS:          0 HIT:          0 MISS:          0 MSHR_MERGE:          0
cpu0->cpu0_ITLB WRITE        ACCESS:          0 HIT:          0 MISS:          0 MSHR_MERGE:          0
cpu0->cpu0_ITLB TRANSLATION  ACCESS:          0 HIT:          0 MISS:          0 MSHR_MERGE:          0
cpu0->cpu0_ITLB PREFETCH REQUESTED:          0 ISSUED:          0 USEFUL:          0 USELESS:          0 LATE:          0
cpu0->cpu0_ITLB AVERAGE MISS LATENCY: - cycles
cpu0->cpu0_DTLB TOTAL        ACCESS:   22571307 HIT:   20312740 MISS:    2258567 MSHR_MERGE:     624799
cpu0->cpu0_DTLB LOAD         ACCESS:   22571307 HIT:   20312740 MISS:    2258567 MSHR_MERGE:     624799
cpu0->cpu0_DTLB RFO          ACCESS:          0 HIT:          0 MISS:          0 MSHR_MERGE:          0
cpu0->cpu0_DTLB PREFETCH     ACCESS:          0 HIT:          0 MISS:          0 MSHR_MERGE:          0
cpu0->cpu0_DTLB WRITE        ACCESS:          0 HIT:          0 MISS:          0 MSHR_MERGE:          0
cpu0->cpu0_DTLB TRANSLATION  ACCESS:          0 HIT:          0 MISS:          0 MSHR_MERGE:          0
cpu0->cpu0_DTLB PREFETCH REQUESTED:          0 ISSUED:          0 USEFUL:          0 USELESS:          0 LATE:          0
cpu0->cpu0_DTLB AVERAGE MISS LATENCY: 92.82 cycles
cpu0->LLC TOTAL        ACCESS:    3081144 HIT:     605668 MISS:    2475476 MSHR_MERGE:      19492
cpu0->LLC LOAD         ACCESS:     945649 HIT:      50224 MISS:     895425 MSHR_MERGE:       1693
cpu0->LLC RFO          ACCESS:     713774 HIT:     118914 MISS:     594860 MSHR_MERGE:          0
cpu0->LLC PREFETCH     ACCESS:     140479 HIT:      17669 MISS:     122810 MSHR_MERGE:      17799
cpu0->LLC WRITE        ACCESS:    1114644 HIT:     317845 MISS:     796799 MSHR_MERGE:          0
cpu0->LLC TRANSLATION  ACCESS:     166598 HIT:     101016 MISS:      65582 MSHR_MERGE:          0
cpu0->LLC PREFETCH REQUESTED:          0 ISSUED:          0 USEFUL:          0 USELESS:          0 LATE:          0
cpu0->LLC AVERAGE MISS LATENCY: 247.1 cycles

DRAM Statistics

Channel 0 RQ ROW_BUFFER_HIT:      61121
  ROW_BUFFER_MISS:    1597660
  AVG DBUS CONGESTED CYCLE: 16.02
Channel 0 WQ ROW_BUFFER_HIT:     198758
  ROW_BUFFER_MISS:     758728
  FULL:       1335
Channel 0 REFRESHES ISSUED:      21348

[ROI Statistics]
[System Configuration]
num_cpus 1
cpu_freq 4000
fetch_width 6
decode_width 6
dispatch_width 6
execute_width 6
lq_width 2
sq_width 2
retire_width 6
scheduler_size 128
branch_mispredict_penalty 15
rob_size 352
lq_size 128
sq_size 72
ifetch_buffer_size 64
decode_buffer_size 32
dispatch_buffer_size 32
register_file_size 288
decode_latency 1
dispatch_latency 1
schedule_latency 1
execute_latency 1
page_size 4096
block_size 64
core_0_itlb_set 16
core_0_itlb_way 4
core_0_itlb_rq_size 16
core_0_itlb_wq_size 16
core_0_itlb_pq_size 0
core_0_itlb_mshr_size 8
core_0_itlb_hit_latency 1
core_0_itlb_fill_latency 1
core_0_itlb_max_tag_check 2
core_0_itlb_max_fill 2
core_0_dtlb_set 16
core_0_dtlb_way 4
core_0_dtlb_rq_size 16
core_0_dtlb_wq_size 16
core_0_dtlb_pq_size 0
core_0_dtlb_mshr_size 8
core_0_dtlb_hit_latency 1
core_0_dtlb_fill_latency 1
core_0_dtlb_max_tag_check 2
core_0_dtlb_max_fill 2
core_0_stlb_set 128
core_0_stlb_way 12
core_0_stlb_rq_size 32
core_0_stlb_wq_size 32
core_0_stlb_pq_size 0
core_0_stlb_mshr_size 16
core_0_stlb_hit_latency 4
core_0_stlb_fill_latency 4
core_0_stlb_max_tag_check 1
core_0_stlb_max_fill 1
core_0_l1i_set 64
core_0_l1i_way 8
core_0_l1i_rq_size 64
core_0_l1i_wq_size 64
core_0_l1i_pq_size 32
core_0_l1i_mshr_size 8
core_0_l1i_hit_latency 2
core_0_l1i_fill_latency 2
core_0_l1i_max_tag_check 2
core_0_l1i_max_fill 2
core_0_l1d_set 64
core_0_l1d_way 12
core_0_l1d_rq_size 64
core_0_l1d_wq_size 64
core_0_l1d_pq_size 8
core_0_l1d_mshr_size 16
core_0_l1d_hit_latency 2
core_0_l1d_fill_latency 3
core_0_l1d_max_tag_check 2
core_0_l1d_max_fill 2
core_0_l2c_set 1024
core_0_l2c_way 8
core_0_l2c_rq_size 32
core_0_l2c_wq_size 32
core_0_l2c_pq_size 16
core_0_l2c_mshr_size 32
core_0_l2c_hit_latency 5
core_0_l2c_fill_latency 5
core_0_l2c_max_tag_check 1
core_0_l2c_max_fill 1
llc_set 2048
llc_way 16
llc_rq_size 32
llc_wq_size 32
llc_pq_size 32
llc_mshr_size 64
llc_hit_latency 10
llc_fill_latency 10
llc_max_tag_check 1
llc_max_fill 1
dram_channels 1
dram_ranks 1
dram_bankgroups 8
dram_banks 4
dram_rows 65536
dram_columns 1024
dram_channel_width 8
dram_rq_size 64
dram_wq_size 64
dram_size 17179869184
core_0_itlb_prefetcher no
core_0_dtlb_prefetcher no
core_0_stlb_prefetcher no
core_0_l1i_prefetcher next_line
core_0_l1d_prefetcher vberti
core_0_l2c_prefetcher ip_stride
llc_prefetcher no
llc_replacement drrip

Core_0_instructions 50000002
Core_0_cycles 256182296
Core_0_IPC 0.195174
Core_0_branch_prediction_accuracy 93.1958
Core_0_branch_MPKI 13.4253
Core_0_average_ROB_occupancy_at_mispredict 45.0378

Core_0_ITLB_total_access 740536
Core_0_ITLB_total_hit 740536
Core_0_ITLB_total_miss 0
Core_0_ITLB_total_MPKI 0
Core_0_ITLB_total_miss_rate 0
Core_0_ITLB_demand_access 740536
Core_0_ITLB_demand_hit 740536
Core_0_ITLB_demand_miss 0
Core_0_ITLB_demand_MPKI 0
Core_0_ITLB_demand_miss_rate 0
Core_0_ITLB_load_access 740536
Core_0_ITLB_load_hit 740536
Core_0_ITLB_load_miss 0
Core_0_ITLB_load_MPKI 0
Core_0_ITLB_load_miss_rate 0
Core_0_ITLB_rfo_access 0
Core_0_ITLB_rfo_hit 0
Core_0_ITLB_rfo_miss 0
Core_0_ITLB_rfo_MPKI 0
Core_0_ITLB_rfo_miss_rate 0
Core_0_ITLB_prefetch_access 0
Core_0_ITLB_prefetch_hit 0
Core_0_ITLB_prefetch_miss 0
Core_0_ITLB_prefetch_MPKI 0
Core_0_ITLB_prefetch_miss_rate 0
Core_0_ITLB_writeback_access 0
Core_0_ITLB_writeback_hit 0
Core_0_ITLB_writeback_miss 0
Core_0_ITLB_writeback_MPKI 0
Core_0_ITLB_writeback_miss_rate 0
Core_0_ITLB_prefetch_requested 0
Core_0_ITLB_prefetch_issued 0
Core_0_ITLB_prefetch_useful 0
Core_0_ITLB_prefetch_useless 0
Core_0_ITLB_prefetch_late 0
Core_0_ITLB_prefetch_accuracy 0
Core_0_ITLB_prefetch_coverage 0
Core_0_ITLB_total_eviction 0

Core_0_DTLB_total_access 22571307
Core_0_DTLB_total_hit 20312740
Core_0_DTLB_total_miss 2258567
Core_0_DTLB_total_MPKI 45.1713
Core_0_DTLB_total_miss_rate 0.100064
Core_0_DTLB_demand_access 22571307
Core_0_DTLB_demand_hit 20312740
Core_0_DTLB_demand_miss 2258567
Core_0_DTLB_demand_MPKI 45.1713
Core_0_DTLB_demand_miss_rate 0.100064
Core_0_DTLB_load_access 22571307
Core_0_DTLB_load_hit 20312740
Core_0_DTLB_load_miss 2258567
Core_0_DTLB_load_MPKI 45.1713
Core_0_DTLB_load_miss_rate 0.100064
Core_0_DTLB_rfo_access 0
Core_0_DTLB_rfo_hit 0
Core_0_DTLB_rfo_miss 0
Core_0_DTLB_rfo_MPKI 0
Core_0_DTLB_rfo_miss_rate 0
Core_0_DTLB_prefetch_access 0
Core_0_DTLB_prefetch_hit 0
Core_0_DTLB_prefetch_miss 0
Core_0_DTLB_prefetch_MPKI 0
Core_0_DTLB_prefetch_miss_rate 0
Core_0_DTLB_writeback_access 0
Core_0_DTLB_writeback_hit 0
Core_0_DTLB_writeback_miss 0
Core_0_DTLB_writeback_MPKI 0
Core_0_DTLB_writeback_miss_rate 0
Core_0_DTLB_prefetch_requested 0
Core_0_DTLB_prefetch_issued 0
Core_0_DTLB_prefetch_useful 0
Core_0_DTLB_prefetch_useless 0
Core_0_DTLB_prefetch_late 0
Core_0_DTLB_prefetch_accuracy 0
Core_0_DTLB_prefetch_coverage 0
Core_0_DTLB_total_eviction 1633767

Core_0_STLB_total_access 1633768
Core_0_STLB_total_hit 837051
Core_0_STLB_total_miss 796717
Core_0_STLB_total_MPKI 15.9343
Core_0_STLB_total_miss_rate 0.487656
Core_0_STLB_demand_access 1633768
Core_0_STLB_demand_hit 837051
Core_0_STLB_demand_miss 796717
Core_0_STLB_demand_MPKI 15.9343
Core_0_STLB_demand_miss_rate 0.487656
Core_0_STLB_load_access 1633768
Core_0_STLB_load_hit 837051
Core_0_STLB_load_miss 796717
Core_0_STLB_load_MPKI 15.9343
Core_0_STLB_load_miss_rate 0.487656
Core_0_STLB_rfo_access 0
Core_0_STLB_rfo_hit 0
Core_0_STLB_rfo_miss 0
Core_0_STLB_rfo_MPKI 0
Core_0_STLB_rfo_miss_rate 0
Core_0_STLB_prefetch_access 0
Core_0_STLB_prefetch_hit 0
Core_0_STLB_prefetch_miss 0
Core_0_STLB_prefetch_MPKI 0
Core_0_STLB_prefetch_miss_rate 0
Core_0_STLB_writeback_access 0
Core_0_STLB_writeback_hit 0
Core_0_STLB_writeback_miss 0
Core_0_STLB_writeback_MPKI 0
Core_0_STLB_writeback_miss_rate 0
Core_0_STLB_prefetch_requested 0
Core_0_STLB_prefetch_issued 0
Core_0_STLB_prefetch_useful 0
Core_0_STLB_prefetch_useless 0
Core_0_STLB_prefetch_late 0
Core_0_STLB_prefetch_accuracy 0
Core_0_STLB_prefetch_coverage 0
Core_0_STLB_total_eviction 806008

Core_0_L1I_total_access 740635
Core_0_L1I_total_hit 740628
Core_0_L1I_total_miss 7
Core_0_L1I_total_MPKI 0.00014
Core_0_L1I_total_miss_rate 9.45135e-06
Core_0_L1I_demand_access 740635
Core_0_L1I_demand_hit 740628
Core_0_L1I_demand_miss 7
Core_0_L1I_demand_MPKI 0.00014
Core_0_L1I_demand_miss_rate 9.45135e-06
Core_0_L1I_load_access 740635
Core_0_L1I_load_hit 740628
Core_0_L1I_load_miss 7
Core_0_L1I_load_MPKI 0.00014
Core_0_L1I_load_miss_rate 9.45135e-06
Core_0_L1I_rfo_access 0
Core_0_L1I_rfo_hit 0
Core_0_L1I_rfo_miss 0
Core_0_L1I_rfo_MPKI 0
Core_0_L1I_rfo_miss_rate 0
Core_0_L1I_prefetch_access 0
Core_0_L1I_prefetch_hit 0
Core_0_L1I_prefetch_miss 0
Core_0_L1I_prefetch_MPKI 0
Core_0_L1I_prefetch_miss_rate 0
Core_0_L1I_writeback_access 0
Core_0_L1I_writeback_hit 0
Core_0_L1I_writeback_miss 0
Core_0_L1I_writeback_MPKI 0
Core_0_L1I_writeback_miss_rate 0
Core_0_L1I_prefetch_requested 0
Core_0_L1I_prefetch_issued 0
Core_0_L1I_prefetch_useful 0
Core_0_L1I_prefetch_useless 0
Core_0_L1I_prefetch_late 0
Core_0_L1I_prefetch_accuracy 0
Core_0_L1I_prefetch_coverage 0
Core_0_L1I_total_eviction 0

Core_0_L1D_total_access 24699467
Core_0_L1D_total_hit 20213946
Core_0_L1D_total_miss 4485521
Core_0_L1D_total_MPKI 89.7104
Core_0_L1D_total_miss_rate 0.181604
Core_0_L1D_demand_access 13664967
Core_0_L1D_demand_hit 11399892
Core_0_L1D_demand_miss 2265075
Core_0_L1D_demand_MPKI 45.3015
Core_0_L1D_demand_miss_rate 0.165758
Core_0_L1D_load_access 13664967
Core_0_L1D_load_hit 11399892
Core_0_L1D_load_miss 2265075
Core_0_L1D_load_MPKI 45.3015
Core_0_L1D_load_miss_rate 0.165758
Core_0_L1D_rfo_access 0
Core_0_L1D_rfo_hit 0
Core_0_L1D_rfo_miss 0
Core_0_L1D_rfo_MPKI 0
Core_0_L1D_rfo_miss_rate 0
Core_0_L1D_prefetch_access 4719121
Core_0_L1D_prefetch_hit 3222212
Core_0_L1D_prefetch_miss 1496909
Core_0_L1D_prefetch_MPKI 29.9382
Core_0_L1D_prefetch_miss_rate 0.317201
Core_0_L1D_writeback_access 6315379
Core_0_L1D_writeback_hit 5591842
Core_0_L1D_writeback_miss 723537
Core_0_L1D_writeback_MPKI 14.4707
Core_0_L1D_writeback_miss_rate 0.114567
Core_0_L1D_prefetch_requested 48643760
Core_0_L1D_prefetch_issued 4719121
Core_0_L1D_prefetch_useful 81588
Core_0_L1D_prefetch_useless 16358
Core_0_L1D_prefetch_late 3484
Core_0_L1D_prefetch_accuracy 0.0172888
Core_0_L1D_prefetch_coverage 0.0347677
Core_0_L1D_total_eviction 2927091

Core_0_L2C_total_access 5679212
Core_0_L2C_total_hit 3779829
Core_0_L2C_total_miss 1899383
Core_0_L2C_total_MPKI 37.9877
Core_0_L2C_total_miss_rate 0.334445
Core_0_L2C_demand_access 2391334
Core_0_L2C_demand_hit 712808
Core_0_L2C_demand_miss 1678526
Core_0_L2C_demand_MPKI 33.5705
Core_0_L2C_demand_miss_rate 0.70192
Core_0_L2C_load_access 1667856
Core_0_L2C_load_hit 703674
Core_0_L2C_load_miss 964182
Core_0_L2C_load_MPKI 19.2836
Core_0_L2C_load_miss_rate 0.578097
Core_0_L2C_rfo_access 723478
Core_0_L2C_rfo_hit 9134
Core_0_L2C_rfo_miss 714344
Core_0_L2C_rfo_MPKI 14.2869
Core_0_L2C_rfo_miss_rate 0.987375
Core_0_L2C_prefetch_access 2125497
Core_0_L2C_prefetch_hit 1904729
Core_0_L2C_prefetch_miss 220768
Core_0_L2C_prefetch_MPKI 4.41536
Core_0_L2C_prefetch_miss_rate 0.103867
Core_0_L2C_writeback_access 1162381
Core_0_L2C_writeback_hit 1162292
Core_0_L2C_writeback_miss 89
Core_0_L2C_writeback_MPKI 0.00178
Core_0_L2C_writeback_miss_rate 7.6567e-05
Core_0_L2C_prefetch_requested 662126
Core_0_L2C_prefetch_issued 662038
Core_0_L2C_prefetch_useful 56804
Core_0_L2C_prefetch_useless 6520
Core_0_L2C_prefetch_late 17039
Core_0_L2C_prefetch_accuracy 0.0858017
Core_0_L2C_prefetch_coverage 0.0327338
Core_0_L2C_total_eviction 1929356

Core_0_LLC_total_access 2914546
Core_0_LLC_total_hit 504652
Core_0_LLC_total_miss 2409894
Core_0_LLC_total_MPKI 48.1979
Core_0_LLC_total_miss_rate 0.826851
Core_0_LLC_demand_access 1659423
Core_0_LLC_demand_hit 169138
Core_0_LLC_demand_miss 1490285
Core_0_LLC_demand_MPKI 29.8057
Core_0_LLC_demand_miss_rate 0.898074
Core_0_LLC_load_access 945649
Core_0_LLC_load_hit 50224
Core_0_LLC_load_miss 895425
Core_0_LLC_load_MPKI 17.9085
Core_0_LLC_load_miss_rate 0.946889
Core_0_LLC_rfo_access 713774
Core_0_LLC_rfo_hit 118914
Core_0_LLC_rfo_miss 594860
Core_0_LLC_rfo_MPKI 11.8972
Core_0_LLC_rfo_miss_rate 0.833401
Core_0_LLC_prefetch_access 140479
Core_0_LLC_prefetch_hit 17669
Core_0_LLC_prefetch_miss 122810
Core_0_LLC_prefetch_MPKI 2.4562
Core_0_LLC_prefetch_miss_rate 0.874223
Core_0_LLC_writeback_access 1114644
Core_0_LLC_writeback_hit 317845
Core_0_LLC_writeback_miss 796799
Core_0_LLC_writeback_MPKI 15.936
Core_0_LLC_writeback_miss_rate 0.714846
Core_0_LLC_prefetch_requested 0
Core_0_LLC_prefetch_issued 0
Core_0_LLC_prefetch_useful 0
Core_0_LLC_prefetch_useless 0
Core_0_LLC_prefetch_late 0
Core_0_LLC_prefetch_accuracy 0
Core_0_LLC_prefetch_coverage 0
Core_0_LLC_total_eviction 2455970

[DRAM Statistics]
Channel_0_RQ_row_buffer_hit 61121
Channel_0_RQ_row_buffer_miss 1597660
Channel_0_WQ_row_buffer_hit 198758
Channel_0_WQ_row_buffer_miss 758728
Channel_0_WQ_full 1335
Channel_0_dbus_congested 11334461
DRAM_total_RQ_row_buffer_hit 61121
DRAM_total_RQ_row_buffer_miss 1597660
DRAM_total_WQ_row_buffer_hit 198758
DRAM_total_WQ_row_buffer_miss 758728
DRAM_total_WQ_full 1335
DRAM_total_dbus_congested 11334461
DRAM_avg_congested_cycle 16.0188

======STLB miss causes ========
Core_0_STLB_miss_cause_breakdown
Core_0_STLB_cause_Demand_Data_miss 796717
Core_0_STLB_cause_Demand_Data_miss_rate 0.487656
Core_0_STLB_cause_Demand_Instruction_miss 0
Core_0_STLB_cause_Demand_Instruction_miss_rate 0
Core_0_STLB_cause_L1D_Prefetch_miss 0
Core_0_STLB_cause_L1D_Prefetch_miss_rate 0
Core_0_STLB_cause_L1I_Prefetch_miss 0
Core_0_STLB_cause_L1I_Prefetch_miss_rate 0
Core_0_STLB_cause_Other_miss 0
Core_0_STLB_cause_Other_miss_rate 0
Core_0_STLB_Demand_miss 796717
Core_0_STLB_Demand_miss_rate 0.487656
Core_0_STLB_L1D_Prefetch_miss 0
Core_0_STLB_L1D_Prefetch_miss_rate 0
Core_0_STLB_Other_miss 0
Core_0_STLB_Other_miss_rate 0
BERTI TO_L1: 5205112 TO_L2: 47842573 TO_L2_BC_MSHR: 24140396
BERTI AVG_LAT: 191.042 NUM_TRACK_LATENCY: 3549903 NUM_CANT_TRACK_LATENCY: 313
BERTI CROSS_PAGE 18842628 NO_CROSS_PAGE: 34205057
BERTI FOUND_BERTI: 45628187 NO_FOUND_BERTI: 15956578
BERTI AVERAGE_ISSUED: 4.98919
