[VMEM] WARNING: physical memory size is smaller than virtual memory size.

*** ChampSim Multicore Out-of-Order Simulator ***
Warmup Instructions: 20000000
Simulation Instructions: 50000000
Number of CPUs: 1
Page size: 4096
STLB ideal mode: l1pref
STLB ideal fill: on
Core 0: /data0/tzh/champsim_traces/SPEC17/649.fotonik3d_s-10881B.champsimtrace.xz
VBerti Prefetcher
BERTI HASH ENTANGLING
BERTI IP MASK ffff
Off-chip DRAM Size: 16 GiB Channels: 1 Width: 64-bit Data Rate: 3205 MT/s
Warmup halting CPU 0 at instruction 20000004 cycle 7715041 for remainder of phase
Warmup finished CPU 0 instructions: 20000004 cycles: 7715041 cumulative IPC: 2.592 (Simulation time: 00 hr 01 min 46 sec)
Warmup complete CPU 0 instructions: 20000004 cycles: 7715041 cumulative IPC: 2.592 (Simulation time: 00 hr 01 min 46 sec)
Simulation finished CPU 0 instructions: 50000003 cycles: 41663880 cumulative IPC: 1.2 (Simulation time: 00 hr 09 min 15 sec)
Simulation complete CPU 0 instructions: 50000003 cycles: 41663880 cumulative IPC: 1.2 (Simulation time: 00 hr 09 min 15 sec)

ChampSim completed all CPUs

=== Simulation ===
CPU 0 runs /data0/tzh/champsim_traces/SPEC17/649.fotonik3d_s-10881B.champsimtrace.xz

Region of Interest Statistics

CPU 0 cumulative IPC: 1.2 instructions: 50000003 cycles: 41663880
CPU 0 Branch Prediction Accuracy: 99.99% MPKI: 0.00102 Average ROB Occupancy at Mispredict: 349.5
Branch type MPKI
BRANCH_DIRECT_JUMP: 0
BRANCH_INDIRECT: 0
BRANCH_CONDITIONAL: 0.00102
BRANCH_DIRECT_CALL: 0
BRANCH_INDIRECT_CALL: 0
BRANCH_RETURN: 0

cpu0->cpu0_STLB TOTAL        ACCESS:     375938 HIT:     375284 MISS:        654 MSHR_MERGE:          0
cpu0->cpu0_STLB LOAD         ACCESS:     375938 HIT:     375284 MISS:        654 MSHR_MERGE:          0
cpu0->cpu0_STLB RFO          ACCESS:          0 HIT:          0 MISS:          0 MSHR_MERGE:          0
cpu0->cpu0_STLB PREFETCH     ACCESS:          0 HIT:          0 MISS:          0 MSHR_MERGE:          0
cpu0->cpu0_STLB WRITE        ACCESS:          0 HIT:          0 MISS:          0 MSHR_MERGE:          0
cpu0->cpu0_STLB TRANSLATION  ACCESS:          0 HIT:          0 MISS:          0 MSHR_MERGE:          0
cpu0->cpu0_STLB PREFETCH REQUESTED:          0 ISSUED:          0 USEFUL:          0 USELESS:          0 LATE:          0
cpu0->cpu0_STLB AVERAGE MISS LATENCY: 220.5 cycles
cpu0->cpu0_L2C TOTAL        ACCESS:    2744082 HIT:    1151497 MISS:    1592585 MSHR_MERGE:     331820
cpu0->cpu0_L2C LOAD         ACCESS:     153196 HIT:     102327 MISS:      50869 MSHR_MERGE:       5585
cpu0->cpu0_L2C RFO          ACCESS:          0 HIT:          0 MISS:          0 MSHR_MERGE:          0
cpu0->cpu0_L2C PREFETCH     ACCESS:    2104476 HIT:     563191 MISS:    1541285 MSHR_MERGE:     326235
cpu0->cpu0_L2C WRITE        ACCESS:     485789 HIT:     485789 MISS:          0 MSHR_MERGE:          0
cpu0->cpu0_L2C TRANSLATION  ACCESS:        621 HIT:        190 MISS:        431 MSHR_MERGE:          0
cpu0->cpu0_L2C PREFETCH REQUESTED:      88448 ISSUED:      88448 USEFUL:      35866 USELESS:       4491 LATE:          2
cpu0->cpu0_L2C AVERAGE MISS LATENCY: 379 cycles
cpu0->cpu0_L1I TOTAL        ACCESS:   10456257 HIT:   10456257 MISS:          0 MSHR_MERGE:          0
cpu0->cpu0_L1I LOAD         ACCESS:   10456257 HIT:   10456257 MISS:          0 MSHR_MERGE:          0
cpu0->cpu0_L1I RFO          ACCESS:          0 HIT:          0 MISS:          0 MSHR_MERGE:          0
cpu0->cpu0_L1I PREFETCH     ACCESS:          0 HIT:          0 MISS:          0 MSHR_MERGE:          0
cpu0->cpu0_L1I WRITE        ACCESS:          0 HIT:          0 MISS:          0 MSHR_MERGE:          0
cpu0->cpu0_L1I TRANSLATION  ACCESS:          0 HIT:          0 MISS:          0 MSHR_MERGE:          0
cpu0->cpu0_L1I PREFETCH REQUESTED:          0 ISSUED:          0 USEFUL:          0 USELESS:          0 LATE:          0
cpu0->cpu0_L1I AVERAGE MISS LATENCY: - cycles
cpu0->cpu0_L1D TOTAL        ACCESS:   23534650 HIT:   21266511 MISS:    2268139 MSHR_MERGE:      91443
cpu0->cpu0_L1D LOAD         ACCESS:   15905333 HIT:   15661586 MISS:     243747 MSHR_MERGE:      90551
cpu0->cpu0_L1D RFO          ACCESS:          0 HIT:          0 MISS:          0 MSHR_MERGE:          0
cpu0->cpu0_L1D PREFETCH     ACCESS:    4422285 HIT:    2398518 MISS:    2023767 MSHR_MERGE:        888
cpu0->cpu0_L1D WRITE        ACCESS:    3205647 HIT:    3205647 MISS:          0 MSHR_MERGE:          0
cpu0->cpu0_L1D TRANSLATION  ACCESS:       1385 HIT:        760 MISS:        625 MSHR_MERGE:          4
cpu0->cpu0_L1D PREFETCH REQUESTED:   27767130 ISSUED:    4422285 USEFUL:     808810 USELESS:     123807 LATE:      30981
cpu0->cpu0_L1D AVERAGE MISS LATENCY: 163.2 cycles
cpu0->cpu0_ITLB TOTAL        ACCESS:    8130789 HIT:    8130789 MISS:          0 MSHR_MERGE:          0
cpu0->cpu0_ITLB LOAD         ACCESS:    8130789 HIT:    8130789 MISS:          0 MSHR_MERGE:          0
cpu0->cpu0_ITLB RFO          ACCESS:          0 HIT:          0 MISS:          0 MSHR_MERGE:          0
cpu0->cpu0_ITLB PREFETCH     ACCESS:          0 HIT:          0 MISS:          0 MSHR_MERGE:          0
cpu0->cpu0_ITLB WRITE        ACCESS:          0 HIT:          0 MISS:          0 MSHR_MERGE:          0
cpu0->cpu0_ITLB TRANSLATION  ACCESS:          0 HIT:          0 MISS:          0 MSHR_MERGE:          0
cpu0->cpu0_ITLB PREFETCH REQUESTED:          0 ISSUED:          0 USEFUL:          0 USELESS:          0 LATE:          0
cpu0->cpu0_ITLB AVERAGE MISS LATENCY: - cycles
cpu0->cpu0_DTLB TOTAL        ACCESS:   22872932 HIT:   22415041 MISS:     457891 MSHR_MERGE:      81953
cpu0->cpu0_DTLB LOAD         ACCESS:   22872932 HIT:   22415041 MISS:     457891 MSHR_MERGE:      81953
cpu0->cpu0_DTLB RFO          ACCESS:          0 HIT:          0 MISS:          0 MSHR_MERGE:          0
cpu0->cpu0_DTLB PREFETCH     ACCESS:          0 HIT:          0 MISS:          0 MSHR_MERGE:          0
cpu0->cpu0_DTLB WRITE        ACCESS:          0 HIT:          0 MISS:          0 MSHR_MERGE:          0
cpu0->cpu0_DTLB TRANSLATION  ACCESS:          0 HIT:          0 MISS:          0 MSHR_MERGE:          0
cpu0->cpu0_DTLB PREFETCH REQUESTED:          0 ISSUED:          0 USEFUL:          0 USELESS:          0 LATE:          0
cpu0->cpu0_DTLB AVERAGE MISS LATENCY: 5.388 cycles
cpu0->LLC TOTAL        ACCESS:    1746754 HIT:     528418 MISS:    1218336 MSHR_MERGE:       2393
cpu0->LLC LOAD         ACCESS:      45284 HIT:       4725 MISS:      40559 MSHR_MERGE:          0
cpu0->LLC RFO          ACCESS:          0 HIT:          0 MISS:          0 MSHR_MERGE:          0
cpu0->LLC PREFETCH     ACCESS:    1215047 HIT:      95380 MISS:    1119667 MSHR_MERGE:       2393
cpu0->LLC WRITE        ACCESS:     485992 HIT:     428114 MISS:      57878 MSHR_MERGE:          0
cpu0->LLC TRANSLATION  ACCESS:        431 HIT:        199 MISS:        232 MSHR_MERGE:          0
cpu0->LLC PREFETCH REQUESTED:          0 ISSUED:          0 USEFUL:          0 USELESS:          0 LATE:          0
cpu0->LLC AVERAGE MISS LATENCY: 175.8 cycles

DRAM Statistics

Channel 0 RQ ROW_BUFFER_HIT:     136389
  ROW_BUFFER_MISS:    1021667
  AVG DBUS CONGESTED CYCLE: 7.077
Channel 0 WQ ROW_BUFFER_HIT:      54772
  ROW_BUFFER_MISS:     431702
  FULL:          0
Channel 0 REFRESHES ISSUED:       3472

[ROI Statistics]
[System Configuration]
num_cpus 1
cpu_freq 4000
fetch_width 6
decode_width 6
dispatch_width 6
execute_width 6
lq_width 2
sq_width 2
retire_width 6
scheduler_size 128
branch_mispredict_penalty 15
rob_size 352
lq_size 128
sq_size 72
ifetch_buffer_size 64
decode_buffer_size 32
dispatch_buffer_size 32
register_file_size 288
decode_latency 1
dispatch_latency 1
schedule_latency 1
execute_latency 1
page_size 4096
block_size 64
core_0_itlb_set 16
core_0_itlb_way 4
core_0_itlb_rq_size 16
core_0_itlb_wq_size 16
core_0_itlb_pq_size 0
core_0_itlb_mshr_size 8
core_0_itlb_hit_latency 1
core_0_itlb_fill_latency 1
core_0_itlb_max_tag_check 2
core_0_itlb_max_fill 2
core_0_dtlb_set 16
core_0_dtlb_way 4
core_0_dtlb_rq_size 16
core_0_dtlb_wq_size 16
core_0_dtlb_pq_size 0
core_0_dtlb_mshr_size 8
core_0_dtlb_hit_latency 1
core_0_dtlb_fill_latency 1
core_0_dtlb_max_tag_check 2
core_0_dtlb_max_fill 2
core_0_stlb_set 128
core_0_stlb_way 12
core_0_stlb_rq_size 32
core_0_stlb_wq_size 32
core_0_stlb_pq_size 0
core_0_stlb_mshr_size 16
core_0_stlb_hit_latency 4
core_0_stlb_fill_latency 4
core_0_stlb_max_tag_check 1
core_0_stlb_max_fill 1
core_0_l1i_set 64
core_0_l1i_way 8
core_0_l1i_rq_size 64
core_0_l1i_wq_size 64
core_0_l1i_pq_size 32
core_0_l1i_mshr_size 8
core_0_l1i_hit_latency 2
core_0_l1i_fill_latency 2
core_0_l1i_max_tag_check 2
core_0_l1i_max_fill 2
core_0_l1d_set 64
core_0_l1d_way 12
core_0_l1d_rq_size 64
core_0_l1d_wq_size 64
core_0_l1d_pq_size 8
core_0_l1d_mshr_size 16
core_0_l1d_hit_latency 2
core_0_l1d_fill_latency 3
core_0_l1d_max_tag_check 2
core_0_l1d_max_fill 2
core_0_l2c_set 1024
core_0_l2c_way 8
core_0_l2c_rq_size 32
core_0_l2c_wq_size 32
core_0_l2c_pq_size 16
core_0_l2c_mshr_size 32
core_0_l2c_hit_latency 5
core_0_l2c_fill_latency 5
core_0_l2c_max_tag_check 1
core_0_l2c_max_fill 1
llc_set 2048
llc_way 16
llc_rq_size 32
llc_wq_size 32
llc_pq_size 32
llc_mshr_size 64
llc_hit_latency 10
llc_fill_latency 10
llc_max_tag_check 1
llc_max_fill 1
dram_channels 1
dram_ranks 1
dram_bankgroups 8
dram_banks 4
dram_rows 65536
dram_columns 1024
dram_channel_width 8
dram_rq_size 64
dram_wq_size 64
dram_size 17179869184
core_0_itlb_prefetcher no
core_0_dtlb_prefetcher no
core_0_stlb_prefetcher no
core_0_l1i_prefetcher next_line
core_0_l1d_prefetcher vberti
core_0_l2c_prefetcher ip_stride
llc_prefetcher no
llc_replacement drrip

Core_0_instructions 50000003
Core_0_cycles 41663880
Core_0_IPC 1.20008
Core_0_branch_prediction_accuracy 99.9915
Core_0_branch_MPKI 0.00102
Core_0_average_ROB_occupancy_at_mispredict 349.529

Core_0_ITLB_total_access 8130789
Core_0_ITLB_total_hit 8130789
Core_0_ITLB_total_miss 0
Core_0_ITLB_total_MPKI 0
Core_0_ITLB_total_miss_rate 0
Core_0_ITLB_demand_access 8130789
Core_0_ITLB_demand_hit 8130789
Core_0_ITLB_demand_miss 0
Core_0_ITLB_demand_MPKI 0
Core_0_ITLB_demand_miss_rate 0
Core_0_ITLB_load_access 8130789
Core_0_ITLB_load_hit 8130789
Core_0_ITLB_load_miss 0
Core_0_ITLB_load_MPKI 0
Core_0_ITLB_load_miss_rate 0
Core_0_ITLB_rfo_access 0
Core_0_ITLB_rfo_hit 0
Core_0_ITLB_rfo_miss 0
Core_0_ITLB_rfo_MPKI 0
Core_0_ITLB_rfo_miss_rate 0
Core_0_ITLB_prefetch_access 0
Core_0_ITLB_prefetch_hit 0
Core_0_ITLB_prefetch_miss 0
Core_0_ITLB_prefetch_MPKI 0
Core_0_ITLB_prefetch_miss_rate 0
Core_0_ITLB_writeback_access 0
Core_0_ITLB_writeback_hit 0
Core_0_ITLB_writeback_miss 0
Core_0_ITLB_writeback_MPKI 0
Core_0_ITLB_writeback_miss_rate 0
Core_0_ITLB_prefetch_requested 0
Core_0_ITLB_prefetch_issued 0
Core_0_ITLB_prefetch_useful 0
Core_0_ITLB_prefetch_useless 0
Core_0_ITLB_prefetch_late 0
Core_0_ITLB_prefetch_accuracy 0
Core_0_ITLB_prefetch_coverage 0
Core_0_ITLB_total_eviction 0

Core_0_DTLB_total_access 22872932
Core_0_DTLB_total_hit 22415041
Core_0_DTLB_total_miss 457891
Core_0_DTLB_total_MPKI 9.15782
Core_0_DTLB_total_miss_rate 0.0200189
Core_0_DTLB_demand_access 22872932
Core_0_DTLB_demand_hit 22415041
Core_0_DTLB_demand_miss 457891
Core_0_DTLB_demand_MPKI 9.15782
Core_0_DTLB_demand_miss_rate 0.0200189
Core_0_DTLB_load_access 22872932
Core_0_DTLB_load_hit 22415041
Core_0_DTLB_load_miss 457891
Core_0_DTLB_load_MPKI 9.15782
Core_0_DTLB_load_miss_rate 0.0200189
Core_0_DTLB_rfo_access 0
Core_0_DTLB_rfo_hit 0
Core_0_DTLB_rfo_miss 0
Core_0_DTLB_rfo_MPKI 0
Core_0_DTLB_rfo_miss_rate 0
Core_0_DTLB_prefetch_access 0
Core_0_DTLB_prefetch_hit 0
Core_0_DTLB_prefetch_miss 0
Core_0_DTLB_prefetch_MPKI 0
Core_0_DTLB_prefetch_miss_rate 0
Core_0_DTLB_writeback_access 0
Core_0_DTLB_writeback_hit 0
Core_0_DTLB_writeback_miss 0
Core_0_DTLB_writeback_MPKI 0
Core_0_DTLB_writeback_miss_rate 0
Core_0_DTLB_prefetch_requested 0
Core_0_DTLB_prefetch_issued 0
Core_0_DTLB_prefetch_useful 0
Core_0_DTLB_prefetch_useless 0
Core_0_DTLB_prefetch_late 0
Core_0_DTLB_prefetch_accuracy 0
Core_0_DTLB_prefetch_coverage 0
Core_0_DTLB_total_eviction 375938

Core_0_STLB_total_access 375938
Core_0_STLB_total_hit 375284
Core_0_STLB_total_miss 654
Core_0_STLB_total_MPKI 0.01308
Core_0_STLB_total_miss_rate 0.00173965
Core_0_STLB_demand_access 375938
Core_0_STLB_demand_hit 375284
Core_0_STLB_demand_miss 654
Core_0_STLB_demand_MPKI 0.01308
Core_0_STLB_demand_miss_rate 0.00173965
Core_0_STLB_load_access 375938
Core_0_STLB_load_hit 375284
Core_0_STLB_load_miss 654
Core_0_STLB_load_MPKI 0.01308
Core_0_STLB_load_miss_rate 0.00173965
Core_0_STLB_rfo_access 0
Core_0_STLB_rfo_hit 0
Core_0_STLB_rfo_miss 0
Core_0_STLB_rfo_MPKI 0
Core_0_STLB_rfo_miss_rate 0
Core_0_STLB_prefetch_access 0
Core_0_STLB_prefetch_hit 0
Core_0_STLB_prefetch_miss 0
Core_0_STLB_prefetch_MPKI 0
Core_0_STLB_prefetch_miss_rate 0
Core_0_STLB_writeback_access 0
Core_0_STLB_writeback_hit 0
Core_0_STLB_writeback_miss 0
Core_0_STLB_writeback_MPKI 0
Core_0_STLB_writeback_miss_rate 0
Core_0_STLB_prefetch_requested 0
Core_0_STLB_prefetch_issued 0
Core_0_STLB_prefetch_useful 0
Core_0_STLB_prefetch_useless 0
Core_0_STLB_prefetch_late 0
Core_0_STLB_prefetch_accuracy 0
Core_0_STLB_prefetch_coverage 0
Core_0_STLB_total_eviction 169740

Core_0_L1I_total_access 10456257
Core_0_L1I_total_hit 10456257
Core_0_L1I_total_miss 0
Core_0_L1I_total_MPKI 0
Core_0_L1I_total_miss_rate 0
Core_0_L1I_demand_access 10456257
Core_0_L1I_demand_hit 10456257
Core_0_L1I_demand_miss 0
Core_0_L1I_demand_MPKI 0
Core_0_L1I_demand_miss_rate 0
Core_0_L1I_load_access 10456257
Core_0_L1I_load_hit 10456257
Core_0_L1I_load_miss 0
Core_0_L1I_load_MPKI 0
Core_0_L1I_load_miss_rate 0
Core_0_L1I_rfo_access 0
Core_0_L1I_rfo_hit 0
Core_0_L1I_rfo_miss 0
Core_0_L1I_rfo_MPKI 0
Core_0_L1I_rfo_miss_rate 0
Core_0_L1I_prefetch_access 0
Core_0_L1I_prefetch_hit 0
Core_0_L1I_prefetch_miss 0
Core_0_L1I_prefetch_MPKI 0
Core_0_L1I_prefetch_miss_rate 0
Core_0_L1I_writeback_access 0
Core_0_L1I_writeback_hit 0
Core_0_L1I_writeback_miss 0
Core_0_L1I_writeback_MPKI 0
Core_0_L1I_writeback_miss_rate 0
Core_0_L1I_prefetch_requested 0
Core_0_L1I_prefetch_issued 0
Core_0_L1I_prefetch_useful 0
Core_0_L1I_prefetch_useless 0
Core_0_L1I_prefetch_late 0
Core_0_L1I_prefetch_accuracy 0
Core_0_L1I_prefetch_coverage 0
Core_0_L1I_total_eviction 0

Core_0_L1D_total_access 23533265
Core_0_L1D_total_hit 21265751
Core_0_L1D_total_miss 2267514
Core_0_L1D_total_MPKI 45.3503
Core_0_L1D_total_miss_rate 0.0963536
Core_0_L1D_demand_access 15905333
Core_0_L1D_demand_hit 15661586
Core_0_L1D_demand_miss 243747
Core_0_L1D_demand_MPKI 4.87494
Core_0_L1D_demand_miss_rate 0.0153249
Core_0_L1D_load_access 15905333
Core_0_L1D_load_hit 15661586
Core_0_L1D_load_miss 243747
Core_0_L1D_load_MPKI 4.87494
Core_0_L1D_load_miss_rate 0.0153249
Core_0_L1D_rfo_access 0
Core_0_L1D_rfo_hit 0
Core_0_L1D_rfo_miss 0
Core_0_L1D_rfo_MPKI 0
Core_0_L1D_rfo_miss_rate 0
Core_0_L1D_prefetch_access 4422285
Core_0_L1D_prefetch_hit 2398518
Core_0_L1D_prefetch_miss 2023767
Core_0_L1D_prefetch_MPKI 40.4753
Core_0_L1D_prefetch_miss_rate 0.457629
Core_0_L1D_writeback_access 3205647
Core_0_L1D_writeback_hit 3205647
Core_0_L1D_writeback_miss 0
Core_0_L1D_writeback_MPKI 0
Core_0_L1D_writeback_miss_rate 0
Core_0_L1D_prefetch_requested 27767130
Core_0_L1D_prefetch_issued 4422285
Core_0_L1D_prefetch_useful 808810
Core_0_L1D_prefetch_useless 123807
Core_0_L1D_prefetch_late 30981
Core_0_L1D_prefetch_accuracy 0.182894
Core_0_L1D_prefetch_coverage 0.768424
Core_0_L1D_total_eviction 1086487

Core_0_L2C_total_access 2743461
Core_0_L2C_total_hit 1151307
Core_0_L2C_total_miss 1592154
Core_0_L2C_total_MPKI 31.8431
Core_0_L2C_total_miss_rate 0.580345
Core_0_L2C_demand_access 153196
Core_0_L2C_demand_hit 102327
Core_0_L2C_demand_miss 50869
Core_0_L2C_demand_MPKI 1.01738
Core_0_L2C_demand_miss_rate 0.332052
Core_0_L2C_load_access 153196
Core_0_L2C_load_hit 102327
Core_0_L2C_load_miss 50869
Core_0_L2C_load_MPKI 1.01738
Core_0_L2C_load_miss_rate 0.332052
Core_0_L2C_rfo_access 0
Core_0_L2C_rfo_hit 0
Core_0_L2C_rfo_miss 0
Core_0_L2C_rfo_MPKI 0
Core_0_L2C_rfo_miss_rate 0
Core_0_L2C_prefetch_access 2104476
Core_0_L2C_prefetch_hit 563191
Core_0_L2C_prefetch_miss 1541285
Core_0_L2C_prefetch_MPKI 30.8257
Core_0_L2C_prefetch_miss_rate 0.732384
Core_0_L2C_writeback_access 485789
Core_0_L2C_writeback_hit 485789
Core_0_L2C_writeback_miss 0
Core_0_L2C_writeback_MPKI 0
Core_0_L2C_writeback_miss_rate 0
Core_0_L2C_prefetch_requested 88448
Core_0_L2C_prefetch_issued 88448
Core_0_L2C_prefetch_useful 35866
Core_0_L2C_prefetch_useless 4491
Core_0_L2C_prefetch_late 2
Core_0_L2C_prefetch_accuracy 0.405504
Core_0_L2C_prefetch_coverage 0.413512
Core_0_L2C_total_eviction 1239773

Core_0_LLC_total_access 1746323
Core_0_LLC_total_hit 528219
Core_0_LLC_total_miss 1218104
Core_0_LLC_total_MPKI 24.3621
Core_0_LLC_total_miss_rate 0.697525
Core_0_LLC_demand_access 45284
Core_0_LLC_demand_hit 4725
Core_0_LLC_demand_miss 40559
Core_0_LLC_demand_MPKI 0.81118
Core_0_LLC_demand_miss_rate 0.895659
Core_0_LLC_load_access 45284
Core_0_LLC_load_hit 4725
Core_0_LLC_load_miss 40559
Core_0_LLC_load_MPKI 0.81118
Core_0_LLC_load_miss_rate 0.895659
Core_0_LLC_rfo_access 0
Core_0_LLC_rfo_hit 0
Core_0_LLC_rfo_miss 0
Core_0_LLC_rfo_MPKI 0
Core_0_LLC_rfo_miss_rate 0
Core_0_LLC_prefetch_access 1215047
Core_0_LLC_prefetch_hit 95380
Core_0_LLC_prefetch_miss 1119667
Core_0_LLC_prefetch_MPKI 22.3933
Core_0_LLC_prefetch_miss_rate 0.921501
Core_0_LLC_writeback_access 485992
Core_0_LLC_writeback_hit 428114
Core_0_LLC_writeback_miss 57878
Core_0_LLC_writeback_MPKI 1.15756
Core_0_LLC_writeback_miss_rate 0.119092
Core_0_LLC_prefetch_requested 0
Core_0_LLC_prefetch_issued 0
Core_0_LLC_prefetch_useful 0
Core_0_LLC_prefetch_useless 0
Core_0_LLC_prefetch_late 0
Core_0_LLC_prefetch_accuracy 0
Core_0_LLC_prefetch_coverage 0
Core_0_LLC_total_eviction 1215934

[DRAM Statistics]
Channel_0_RQ_row_buffer_hit 136389
Channel_0_RQ_row_buffer_miss 1021667
Channel_0_WQ_row_buffer_hit 54772
Channel_0_WQ_row_buffer_miss 431702
Channel_0_WQ_full 0
Channel_0_dbus_congested 5065513
DRAM_total_RQ_row_buffer_hit 136389
DRAM_total_RQ_row_buffer_miss 1021667
DRAM_total_WQ_row_buffer_hit 54772
DRAM_total_WQ_row_buffer_miss 431702
DRAM_total_WQ_full 0
DRAM_total_dbus_congested 5065513
DRAM_avg_congested_cycle 7.07669

======STLB miss causes ========
Core_0_STLB_miss_cause_breakdown
Core_0_STLB_cause_Demand_Data_miss 654
Core_0_STLB_cause_Demand_Data_miss_rate 0.00173965
Core_0_STLB_cause_Demand_Instruction_miss 0
Core_0_STLB_cause_Demand_Instruction_miss_rate 0
Core_0_STLB_cause_L1D_Prefetch_miss 0
Core_0_STLB_cause_L1D_Prefetch_miss_rate 0
Core_0_STLB_cause_L1I_Prefetch_miss 0
Core_0_STLB_cause_L1I_Prefetch_miss_rate 0
Core_0_STLB_cause_Other_miss 0
Core_0_STLB_cause_Other_miss_rate 0
Core_0_STLB_Demand_miss 654
Core_0_STLB_Demand_miss_rate 0.00173965
Core_0_STLB_L1D_Prefetch_miss 0
Core_0_STLB_L1D_Prefetch_miss_rate 0
Core_0_STLB_Other_miss 0
Core_0_STLB_Other_miss_rate 0
BERTI TO_L1: 18725684 TO_L2: 19887636 TO_L2_BC_MSHR: 2930556
BERTI AVG_LAT: 257.287 NUM_TRACK_LATENCY: 1487685 NUM_CANT_TRACK_LATENCY: 2
BERTI CROSS_PAGE 23730748 NO_CROSS_PAGE: 14882572
BERTI FOUND_BERTI: 10784486 NO_FOUND_BERTI: 14952480
BERTI AVERAGE_ISSUED: 1.68932
