[VMEM] WARNING: physical memory size is smaller than virtual memory size.

*** ChampSim Multicore Out-of-Order Simulator ***
Warmup Instructions: 20000000
Simulation Instructions: 50000000
Number of CPUs: 1
Page size: 4096
STLB ideal mode: l1pref
STLB ideal fill: on
Core 0: /data0/tzh/champsim_traces/QMM/compute_int_23_new.xz
VBerti Prefetcher
BERTI HASH ENTANGLING
BERTI IP MASK ffff
Off-chip DRAM Size: 16 GiB Channels: 1 Width: 64-bit Data Rate: 3205 MT/s
Warmup halting CPU 0 at instruction 20000000 cycle 5510095 for remainder of phase
Warmup finished CPU 0 instructions: 20000000 cycles: 5510095 cumulative IPC: 3.63 (Simulation time: 00 hr 00 min 59 sec)
Warmup complete CPU 0 instructions: 20000000 cycles: 5510095 cumulative IPC: 3.63 (Simulation time: 00 hr 00 min 59 sec)
*** Reached end of trace: (0, "/data0/tzh/champsim_traces/QMM/compute_int_23_new.xz")
*** Reached end of trace: (0, "/data0/tzh/champsim_traces/QMM/compute_int_23_new.xz")
Simulation finished CPU 0 instructions: 50000001 cycles: 97847106 cumulative IPC: 0.511 (Simulation time: 00 hr 10 min 20 sec)
Simulation complete CPU 0 instructions: 50000001 cycles: 97847106 cumulative IPC: 0.511 (Simulation time: 00 hr 10 min 20 sec)

ChampSim completed all CPUs

=== Simulation ===
CPU 0 runs /data0/tzh/champsim_traces/QMM/compute_int_23_new.xz

Region of Interest Statistics

CPU 0 cumulative IPC: 0.511 instructions: 50000001 cycles: 97847106
CPU 0 Branch Prediction Accuracy: 91.76% MPKI: 12.83 Average ROB Occupancy at Mispredict: 60.74
Branch type MPKI
BRANCH_DIRECT_JUMP: 0
BRANCH_INDIRECT: 0
BRANCH_CONDITIONAL: 12.83
BRANCH_DIRECT_CALL: 0
BRANCH_INDIRECT_CALL: 2e-05
BRANCH_RETURN: 0

cpu0->cpu0_STLB TOTAL        ACCESS:     388490 HIT:     333615 MISS:      54875 MSHR_MERGE:          0
cpu0->cpu0_STLB LOAD         ACCESS:     388490 HIT:     333615 MISS:      54875 MSHR_MERGE:          0
cpu0->cpu0_STLB RFO          ACCESS:          0 HIT:          0 MISS:          0 MSHR_MERGE:          0
cpu0->cpu0_STLB PREFETCH     ACCESS:          0 HIT:          0 MISS:          0 MSHR_MERGE:          0
cpu0->cpu0_STLB WRITE        ACCESS:          0 HIT:          0 MISS:          0 MSHR_MERGE:          0
cpu0->cpu0_STLB TRANSLATION  ACCESS:          0 HIT:          0 MISS:          0 MSHR_MERGE:          0
cpu0->cpu0_STLB PREFETCH REQUESTED:          0 ISSUED:          0 USEFUL:          0 USELESS:          0 LATE:          0
cpu0->cpu0_STLB AVERAGE MISS LATENCY: 132.8 cycles
cpu0->cpu0_L2C TOTAL        ACCESS:    5055942 HIT:    2642579 MISS:    2413363 MSHR_MERGE:     878273
cpu0->cpu0_L2C LOAD         ACCESS:     694342 HIT:     315914 MISS:     378428 MSHR_MERGE:      96801
cpu0->cpu0_L2C RFO          ACCESS:      45077 HIT:      11405 MISS:      33672 MSHR_MERGE:        101
cpu0->cpu0_L2C PREFETCH     ACCESS:    3789923 HIT:    1815624 MISS:    1974299 MSHR_MERGE:     781371
cpu0->cpu0_L2C WRITE        ACCESS:     495125 HIT:     495114 MISS:         11 MSHR_MERGE:          0
cpu0->cpu0_L2C TRANSLATION  ACCESS:      31475 HIT:       4522 MISS:      26953 MSHR_MERGE:          0
cpu0->cpu0_L2C PREFETCH REQUESTED:     186275 ISSUED:     178779 USEFUL:      42930 USELESS:      26634 LATE:       1768
cpu0->cpu0_L2C AVERAGE MISS LATENCY: 228 cycles
cpu0->cpu0_L1I TOTAL        ACCESS:     130717 HIT:     130717 MISS:          0 MSHR_MERGE:          0
cpu0->cpu0_L1I LOAD         ACCESS:     130717 HIT:     130717 MISS:          0 MSHR_MERGE:          0
cpu0->cpu0_L1I RFO          ACCESS:          0 HIT:          0 MISS:          0 MSHR_MERGE:          0
cpu0->cpu0_L1I PREFETCH     ACCESS:          0 HIT:          0 MISS:          0 MSHR_MERGE:          0
cpu0->cpu0_L1I WRITE        ACCESS:          0 HIT:          0 MISS:          0 MSHR_MERGE:          0
cpu0->cpu0_L1I TRANSLATION  ACCESS:          0 HIT:          0 MISS:          0 MSHR_MERGE:          0
cpu0->cpu0_L1I PREFETCH REQUESTED:          0 ISSUED:          0 USEFUL:          0 USELESS:          0 LATE:          0
cpu0->cpu0_L1I AVERAGE MISS LATENCY: - cycles
cpu0->cpu0_L1D TOTAL        ACCESS:   19264723 HIT:   14409691 MISS:    4855032 MSHR_MERGE:     407673
cpu0->cpu0_L1D LOAD         ACCESS:    7910978 HIT:    6875546 MISS:    1035432 MSHR_MERGE:     341090
cpu0->cpu0_L1D RFO          ACCESS:          0 HIT:          0 MISS:          0 MSHR_MERGE:          0
cpu0->cpu0_L1D PREFETCH     ACCESS:    5160248 HIT:    1419703 MISS:    3740545 MSHR_MERGE:      64080
cpu0->cpu0_L1D WRITE        ACCESS:    6082007 HIT:    6035080 MISS:      46927 MSHR_MERGE:       1850
cpu0->cpu0_L1D TRANSLATION  ACCESS:     111490 HIT:      79362 MISS:      32128 MSHR_MERGE:        653
cpu0->cpu0_L1D PREFETCH REQUESTED:    6307172 ISSUED:    5160243 USEFUL:     341916 USELESS:      85164 LATE:      52792
cpu0->cpu0_L1D AVERAGE MISS LATENCY: 141.3 cycles
cpu0->cpu0_ITLB TOTAL        ACCESS:     127679 HIT:     127582 MISS:         97 MSHR_MERGE:         67
cpu0->cpu0_ITLB LOAD         ACCESS:     127679 HIT:     127582 MISS:         97 MSHR_MERGE:         67
cpu0->cpu0_ITLB RFO          ACCESS:          0 HIT:          0 MISS:          0 MSHR_MERGE:          0
cpu0->cpu0_ITLB PREFETCH     ACCESS:          0 HIT:          0 MISS:          0 MSHR_MERGE:          0
cpu0->cpu0_ITLB WRITE        ACCESS:          0 HIT:          0 MISS:          0 MSHR_MERGE:          0
cpu0->cpu0_ITLB TRANSLATION  ACCESS:          0 HIT:          0 MISS:          0 MSHR_MERGE:          0
cpu0->cpu0_ITLB PREFETCH REQUESTED:          0 ISSUED:          0 USEFUL:          0 USELESS:          0 LATE:          0
cpu0->cpu0_ITLB AVERAGE MISS LATENCY: 291.8 cycles
cpu0->cpu0_DTLB TOTAL        ACCESS:   17600935 HIT:   17133555 MISS:     467380 MSHR_MERGE:      78920
cpu0->cpu0_DTLB LOAD         ACCESS:   17600935 HIT:   17133555 MISS:     467380 MSHR_MERGE:      78920
cpu0->cpu0_DTLB RFO          ACCESS:          0 HIT:          0 MISS:          0 MSHR_MERGE:          0
cpu0->cpu0_DTLB PREFETCH     ACCESS:          0 HIT:          0 MISS:          0 MSHR_MERGE:          0
cpu0->cpu0_DTLB WRITE        ACCESS:          0 HIT:          0 MISS:          0 MSHR_MERGE:          0
cpu0->cpu0_DTLB TRANSLATION  ACCESS:          0 HIT:          0 MISS:          0 MSHR_MERGE:          0
cpu0->cpu0_DTLB PREFETCH REQUESTED:          0 ISSUED:          0 USEFUL:          0 USELESS:          0 LATE:          0
cpu0->cpu0_DTLB AVERAGE MISS LATENCY: 23.91 cycles
cpu0->LLC TOTAL        ACCESS:    2024600 HIT:     450532 MISS:    1574068 MSHR_MERGE:       8140
cpu0->LLC LOAD         ACCESS:     281627 HIT:       3869 MISS:     277758 MSHR_MERGE:        281
cpu0->LLC RFO          ACCESS:      33571 HIT:         90 MISS:      33481 MSHR_MERGE:          2
cpu0->LLC PREFETCH     ACCESS:    1192925 HIT:      18490 MISS:    1174435 MSHR_MERGE:       7857
cpu0->LLC WRITE        ACCESS:     489524 HIT:     424818 MISS:      64706 MSHR_MERGE:          0
cpu0->LLC TRANSLATION  ACCESS:      26953 HIT:       3265 MISS:      23688 MSHR_MERGE:          0
cpu0->LLC PREFETCH REQUESTED:          0 ISSUED:          0 USEFUL:          0 USELESS:          0 LATE:          0
cpu0->LLC AVERAGE MISS LATENCY: 195.2 cycles

DRAM Statistics

Channel 0 RQ ROW_BUFFER_HIT:     119306
  ROW_BUFFER_MISS:    1381886
  AVG DBUS CONGESTED CYCLE: 7.62
Channel 0 WQ ROW_BUFFER_HIT:     119826
  ROW_BUFFER_MISS:     367055
  FULL:          0
Channel 0 REFRESHES ISSUED:       8154

[ROI Statistics]
[System Configuration]
num_cpus 1
cpu_freq 4000
fetch_width 6
decode_width 6
dispatch_width 6
execute_width 6
lq_width 2
sq_width 2
retire_width 6
scheduler_size 128
branch_mispredict_penalty 15
rob_size 352
lq_size 128
sq_size 72
ifetch_buffer_size 64
decode_buffer_size 32
dispatch_buffer_size 32
register_file_size 288
decode_latency 1
dispatch_latency 1
schedule_latency 1
execute_latency 1
page_size 4096
block_size 64
core_0_itlb_set 16
core_0_itlb_way 4
core_0_itlb_rq_size 16
core_0_itlb_wq_size 16
core_0_itlb_pq_size 0
core_0_itlb_mshr_size 8
core_0_itlb_hit_latency 1
core_0_itlb_fill_latency 1
core_0_itlb_max_tag_check 2
core_0_itlb_max_fill 2
core_0_dtlb_set 16
core_0_dtlb_way 4
core_0_dtlb_rq_size 16
core_0_dtlb_wq_size 16
core_0_dtlb_pq_size 0
core_0_dtlb_mshr_size 8
core_0_dtlb_hit_latency 1
core_0_dtlb_fill_latency 1
core_0_dtlb_max_tag_check 2
core_0_dtlb_max_fill 2
core_0_stlb_set 128
core_0_stlb_way 12
core_0_stlb_rq_size 32
core_0_stlb_wq_size 32
core_0_stlb_pq_size 0
core_0_stlb_mshr_size 16
core_0_stlb_hit_latency 4
core_0_stlb_fill_latency 4
core_0_stlb_max_tag_check 1
core_0_stlb_max_fill 1
core_0_l1i_set 64
core_0_l1i_way 8
core_0_l1i_rq_size 64
core_0_l1i_wq_size 64
core_0_l1i_pq_size 32
core_0_l1i_mshr_size 8
core_0_l1i_hit_latency 2
core_0_l1i_fill_latency 2
core_0_l1i_max_tag_check 2
core_0_l1i_max_fill 2
core_0_l1d_set 64
core_0_l1d_way 12
core_0_l1d_rq_size 64
core_0_l1d_wq_size 64
core_0_l1d_pq_size 8
core_0_l1d_mshr_size 16
core_0_l1d_hit_latency 2
core_0_l1d_fill_latency 3
core_0_l1d_max_tag_check 2
core_0_l1d_max_fill 2
core_0_l2c_set 1024
core_0_l2c_way 8
core_0_l2c_rq_size 32
core_0_l2c_wq_size 32
core_0_l2c_pq_size 16
core_0_l2c_mshr_size 32
core_0_l2c_hit_latency 5
core_0_l2c_fill_latency 5
core_0_l2c_max_tag_check 1
core_0_l2c_max_fill 1
llc_set 2048
llc_way 16
llc_rq_size 32
llc_wq_size 32
llc_pq_size 32
llc_mshr_size 64
llc_hit_latency 10
llc_fill_latency 10
llc_max_tag_check 1
llc_max_fill 1
dram_channels 1
dram_ranks 1
dram_bankgroups 8
dram_banks 4
dram_rows 65536
dram_columns 1024
dram_channel_width 8
dram_rq_size 64
dram_wq_size 64
dram_size 17179869184
core_0_itlb_prefetcher no
core_0_dtlb_prefetcher no
core_0_stlb_prefetcher no
core_0_l1i_prefetcher next_line
core_0_l1d_prefetcher vberti
core_0_l2c_prefetcher ip_stride
llc_prefetcher no
llc_replacement drrip

Core_0_instructions 50000001
Core_0_cycles 97847106
Core_0_IPC 0.511001
Core_0_branch_prediction_accuracy 91.7572
Core_0_branch_MPKI 12.834
Core_0_average_ROB_occupancy_at_mispredict 60.7407

Core_0_ITLB_total_access 127679
Core_0_ITLB_total_hit 127582
Core_0_ITLB_total_miss 97
Core_0_ITLB_total_MPKI 0.00194
Core_0_ITLB_total_miss_rate 0.000759718
Core_0_ITLB_demand_access 127679
Core_0_ITLB_demand_hit 127582
Core_0_ITLB_demand_miss 97
Core_0_ITLB_demand_MPKI 0.00194
Core_0_ITLB_demand_miss_rate 0.000759718
Core_0_ITLB_load_access 127679
Core_0_ITLB_load_hit 127582
Core_0_ITLB_load_miss 97
Core_0_ITLB_load_MPKI 0.00194
Core_0_ITLB_load_miss_rate 0.000759718
Core_0_ITLB_rfo_access 0
Core_0_ITLB_rfo_hit 0
Core_0_ITLB_rfo_miss 0
Core_0_ITLB_rfo_MPKI 0
Core_0_ITLB_rfo_miss_rate 0
Core_0_ITLB_prefetch_access 0
Core_0_ITLB_prefetch_hit 0
Core_0_ITLB_prefetch_miss 0
Core_0_ITLB_prefetch_MPKI 0
Core_0_ITLB_prefetch_miss_rate 0
Core_0_ITLB_writeback_access 0
Core_0_ITLB_writeback_hit 0
Core_0_ITLB_writeback_miss 0
Core_0_ITLB_writeback_MPKI 0
Core_0_ITLB_writeback_miss_rate 0
Core_0_ITLB_prefetch_requested 0
Core_0_ITLB_prefetch_issued 0
Core_0_ITLB_prefetch_useful 0
Core_0_ITLB_prefetch_useless 0
Core_0_ITLB_prefetch_late 0
Core_0_ITLB_prefetch_accuracy 0
Core_0_ITLB_prefetch_coverage 0
Core_0_ITLB_total_eviction 30

Core_0_DTLB_total_access 17600935
Core_0_DTLB_total_hit 17133555
Core_0_DTLB_total_miss 467380
Core_0_DTLB_total_MPKI 9.3476
Core_0_DTLB_total_miss_rate 0.0265543
Core_0_DTLB_demand_access 17600935
Core_0_DTLB_demand_hit 17133555
Core_0_DTLB_demand_miss 467380
Core_0_DTLB_demand_MPKI 9.3476
Core_0_DTLB_demand_miss_rate 0.0265543
Core_0_DTLB_load_access 17600935
Core_0_DTLB_load_hit 17133555
Core_0_DTLB_load_miss 467380
Core_0_DTLB_load_MPKI 9.3476
Core_0_DTLB_load_miss_rate 0.0265543
Core_0_DTLB_rfo_access 0
Core_0_DTLB_rfo_hit 0
Core_0_DTLB_rfo_miss 0
Core_0_DTLB_rfo_MPKI 0
Core_0_DTLB_rfo_miss_rate 0
Core_0_DTLB_prefetch_access 0
Core_0_DTLB_prefetch_hit 0
Core_0_DTLB_prefetch_miss 0
Core_0_DTLB_prefetch_MPKI 0
Core_0_DTLB_prefetch_miss_rate 0
Core_0_DTLB_writeback_access 0
Core_0_DTLB_writeback_hit 0
Core_0_DTLB_writeback_miss 0
Core_0_DTLB_writeback_MPKI 0
Core_0_DTLB_writeback_miss_rate 0
Core_0_DTLB_prefetch_requested 0
Core_0_DTLB_prefetch_issued 0
Core_0_DTLB_prefetch_useful 0
Core_0_DTLB_prefetch_useless 0
Core_0_DTLB_prefetch_late 0
Core_0_DTLB_prefetch_accuracy 0
Core_0_DTLB_prefetch_coverage 0
Core_0_DTLB_total_eviction 388460

Core_0_STLB_total_access 388490
Core_0_STLB_total_hit 333615
Core_0_STLB_total_miss 54875
Core_0_STLB_total_MPKI 1.0975
Core_0_STLB_total_miss_rate 0.141252
Core_0_STLB_demand_access 388490
Core_0_STLB_demand_hit 333615
Core_0_STLB_demand_miss 54875
Core_0_STLB_demand_MPKI 1.0975
Core_0_STLB_demand_miss_rate 0.141252
Core_0_STLB_load_access 388490
Core_0_STLB_load_hit 333615
Core_0_STLB_load_miss 54875
Core_0_STLB_load_MPKI 1.0975
Core_0_STLB_load_miss_rate 0.141252
Core_0_STLB_rfo_access 0
Core_0_STLB_rfo_hit 0
Core_0_STLB_rfo_miss 0
Core_0_STLB_rfo_MPKI 0
Core_0_STLB_rfo_miss_rate 0
Core_0_STLB_prefetch_access 0
Core_0_STLB_prefetch_hit 0
Core_0_STLB_prefetch_miss 0
Core_0_STLB_prefetch_MPKI 0
Core_0_STLB_prefetch_miss_rate 0
Core_0_STLB_writeback_access 0
Core_0_STLB_writeback_hit 0
Core_0_STLB_writeback_miss 0
Core_0_STLB_writeback_MPKI 0
Core_0_STLB_writeback_miss_rate 0
Core_0_STLB_prefetch_requested 0
Core_0_STLB_prefetch_issued 0
Core_0_STLB_prefetch_useful 0
Core_0_STLB_prefetch_useless 0
Core_0_STLB_prefetch_late 0
Core_0_STLB_prefetch_accuracy 0
Core_0_STLB_prefetch_coverage 0
Core_0_STLB_total_eviction 155884

Core_0_L1I_total_access 130717
Core_0_L1I_total_hit 130717
Core_0_L1I_total_miss 0
Core_0_L1I_total_MPKI 0
Core_0_L1I_total_miss_rate 0
Core_0_L1I_demand_access 130717
Core_0_L1I_demand_hit 130717
Core_0_L1I_demand_miss 0
Core_0_L1I_demand_MPKI 0
Core_0_L1I_demand_miss_rate 0
Core_0_L1I_load_access 130717
Core_0_L1I_load_hit 130717
Core_0_L1I_load_miss 0
Core_0_L1I_load_MPKI 0
Core_0_L1I_load_miss_rate 0
Core_0_L1I_rfo_access 0
Core_0_L1I_rfo_hit 0
Core_0_L1I_rfo_miss 0
Core_0_L1I_rfo_MPKI 0
Core_0_L1I_rfo_miss_rate 0
Core_0_L1I_prefetch_access 0
Core_0_L1I_prefetch_hit 0
Core_0_L1I_prefetch_miss 0
Core_0_L1I_prefetch_MPKI 0
Core_0_L1I_prefetch_miss_rate 0
Core_0_L1I_writeback_access 0
Core_0_L1I_writeback_hit 0
Core_0_L1I_writeback_miss 0
Core_0_L1I_writeback_MPKI 0
Core_0_L1I_writeback_miss_rate 0
Core_0_L1I_prefetch_requested 0
Core_0_L1I_prefetch_issued 0
Core_0_L1I_prefetch_useful 0
Core_0_L1I_prefetch_useless 0
Core_0_L1I_prefetch_late 0
Core_0_L1I_prefetch_accuracy 0
Core_0_L1I_prefetch_coverage 0
Core_0_L1I_total_eviction 0

Core_0_L1D_total_access 19153233
Core_0_L1D_total_hit 14330329
Core_0_L1D_total_miss 4822904
Core_0_L1D_total_MPKI 96.4581
Core_0_L1D_total_miss_rate 0.251806
Core_0_L1D_demand_access 7910978
Core_0_L1D_demand_hit 6875546
Core_0_L1D_demand_miss 1035432
Core_0_L1D_demand_MPKI 20.7086
Core_0_L1D_demand_miss_rate 0.130885
Core_0_L1D_load_access 7910978
Core_0_L1D_load_hit 6875546
Core_0_L1D_load_miss 1035432
Core_0_L1D_load_MPKI 20.7086
Core_0_L1D_load_miss_rate 0.130885
Core_0_L1D_rfo_access 0
Core_0_L1D_rfo_hit 0
Core_0_L1D_rfo_miss 0
Core_0_L1D_rfo_MPKI 0
Core_0_L1D_rfo_miss_rate 0
Core_0_L1D_prefetch_access 5160248
Core_0_L1D_prefetch_hit 1419703
Core_0_L1D_prefetch_miss 3740545
Core_0_L1D_prefetch_MPKI 74.8109
Core_0_L1D_prefetch_miss_rate 0.724877
Core_0_L1D_writeback_access 6082007
Core_0_L1D_writeback_hit 6035080
Core_0_L1D_writeback_miss 46927
Core_0_L1D_writeback_MPKI 0.93854
Core_0_L1D_writeback_miss_rate 0.00771571
Core_0_L1D_prefetch_requested 6307172
Core_0_L1D_prefetch_issued 5160243
Core_0_L1D_prefetch_useful 341916
Core_0_L1D_prefetch_useless 85164
Core_0_L1D_prefetch_late 52792
Core_0_L1D_prefetch_accuracy 0.0662597
Core_0_L1D_prefetch_coverage 0.248242
Core_0_L1D_total_eviction 1198004

Core_0_L2C_total_access 5024467
Core_0_L2C_total_hit 2638057
Core_0_L2C_total_miss 2386410
Core_0_L2C_total_MPKI 47.7282
Core_0_L2C_total_miss_rate 0.474958
Core_0_L2C_demand_access 739419
Core_0_L2C_demand_hit 327319
Core_0_L2C_demand_miss 412100
Core_0_L2C_demand_MPKI 8.242
Core_0_L2C_demand_miss_rate 0.557329
Core_0_L2C_load_access 694342
Core_0_L2C_load_hit 315914
Core_0_L2C_load_miss 378428
Core_0_L2C_load_MPKI 7.56856
Core_0_L2C_load_miss_rate 0.545017
Core_0_L2C_rfo_access 45077
Core_0_L2C_rfo_hit 11405
Core_0_L2C_rfo_miss 33672
Core_0_L2C_rfo_MPKI 0.67344
Core_0_L2C_rfo_miss_rate 0.746988
Core_0_L2C_prefetch_access 3789923
Core_0_L2C_prefetch_hit 1815624
Core_0_L2C_prefetch_miss 1974299
Core_0_L2C_prefetch_MPKI 39.486
Core_0_L2C_prefetch_miss_rate 0.520934
Core_0_L2C_writeback_access 495125
Core_0_L2C_writeback_hit 495114
Core_0_L2C_writeback_miss 11
Core_0_L2C_writeback_MPKI 0.00022
Core_0_L2C_writeback_miss_rate 2.22166e-05
Core_0_L2C_prefetch_requested 186275
Core_0_L2C_prefetch_issued 178779
Core_0_L2C_prefetch_useful 42930
Core_0_L2C_prefetch_useless 26634
Core_0_L2C_prefetch_late 1768
Core_0_L2C_prefetch_accuracy 0.240129
Core_0_L2C_prefetch_coverage 0.0943454
Core_0_L2C_total_eviction 1518394

Core_0_LLC_total_access 1997647
Core_0_LLC_total_hit 447267
Core_0_LLC_total_miss 1550380
Core_0_LLC_total_MPKI 31.0076
Core_0_LLC_total_miss_rate 0.776103
Core_0_LLC_demand_access 315198
Core_0_LLC_demand_hit 3959
Core_0_LLC_demand_miss 311239
Core_0_LLC_demand_MPKI 6.22478
Core_0_LLC_demand_miss_rate 0.98744
Core_0_LLC_load_access 281627
Core_0_LLC_load_hit 3869
Core_0_LLC_load_miss 277758
Core_0_LLC_load_MPKI 5.55516
Core_0_LLC_load_miss_rate 0.986262
Core_0_LLC_rfo_access 33571
Core_0_LLC_rfo_hit 90
Core_0_LLC_rfo_miss 33481
Core_0_LLC_rfo_MPKI 0.66962
Core_0_LLC_rfo_miss_rate 0.997319
Core_0_LLC_prefetch_access 1192925
Core_0_LLC_prefetch_hit 18490
Core_0_LLC_prefetch_miss 1174435
Core_0_LLC_prefetch_MPKI 23.4887
Core_0_LLC_prefetch_miss_rate 0.9845
Core_0_LLC_writeback_access 489524
Core_0_LLC_writeback_hit 424818
Core_0_LLC_writeback_miss 64706
Core_0_LLC_writeback_MPKI 1.29412
Core_0_LLC_writeback_miss_rate 0.132181
Core_0_LLC_prefetch_requested 0
Core_0_LLC_prefetch_issued 0
Core_0_LLC_prefetch_useful 0
Core_0_LLC_prefetch_useless 0
Core_0_LLC_prefetch_late 0
Core_0_LLC_prefetch_accuracy 0
Core_0_LLC_prefetch_coverage 0
Core_0_LLC_total_eviction 1565922

[DRAM Statistics]
Channel_0_RQ_row_buffer_hit 119306
Channel_0_RQ_row_buffer_miss 1381886
Channel_0_WQ_row_buffer_hit 119826
Channel_0_WQ_row_buffer_miss 367055
Channel_0_WQ_full 0
Channel_0_dbus_congested 5202135
DRAM_total_RQ_row_buffer_hit 119306
DRAM_total_RQ_row_buffer_miss 1381886
DRAM_total_WQ_row_buffer_hit 119826
DRAM_total_WQ_row_buffer_miss 367055
DRAM_total_WQ_full 0
DRAM_total_dbus_congested 5202135
DRAM_avg_congested_cycle 7.62015

======STLB miss causes ========
Core_0_STLB_miss_cause_breakdown
Core_0_STLB_cause_Demand_Data_miss 54845
Core_0_STLB_cause_Demand_Data_miss_rate 0.141175
Core_0_STLB_cause_Demand_Instruction_miss 30
Core_0_STLB_cause_Demand_Instruction_miss_rate 7.72221e-05
Core_0_STLB_cause_L1D_Prefetch_miss 0
Core_0_STLB_cause_L1D_Prefetch_miss_rate 0
Core_0_STLB_cause_L1I_Prefetch_miss 0
Core_0_STLB_cause_L1I_Prefetch_miss_rate 0
Core_0_STLB_cause_Other_miss 0
Core_0_STLB_cause_Other_miss_rate 0
Core_0_STLB_Demand_miss 54875
Core_0_STLB_Demand_miss_rate 0.141252
Core_0_STLB_L1D_Prefetch_miss 0
Core_0_STLB_L1D_Prefetch_miss_rate 0
Core_0_STLB_Other_miss 0
Core_0_STLB_Other_miss_rate 0
BERTI TO_L1: 1629420 TO_L2: 7119423 TO_L2_BC_MSHR: 57189
BERTI AVG_LAT: 114.926 NUM_TRACK_LATENCY: 1570278 NUM_CANT_TRACK_LATENCY: 0
BERTI CROSS_PAGE 5608953 NO_CROSS_PAGE: 3139890
BERTI FOUND_BERTI: 7322337 NO_FOUND_BERTI: 10686846
BERTI AVERAGE_ISSUED: 2.22509
