[VMEM] WARNING: physical memory size is smaller than virtual memory size.

*** ChampSim Multicore Out-of-Order Simulator ***
Warmup Instructions: 20000000
Simulation Instructions: 50000000
Number of CPUs: 1
Page size: 4096
STLB ideal mode: l1pref
STLB ideal fill: on
Core 0: /data0/tzh/champsim_traces/QMM/compute_int_27_new.xz
VBerti Prefetcher
BERTI HASH ENTANGLING
BERTI IP MASK ffff
Off-chip DRAM Size: 16 GiB Channels: 1 Width: 64-bit Data Rate: 3205 MT/s
Warmup halting CPU 0 at instruction 20000000 cycle 6617219 for remainder of phase
Warmup finished CPU 0 instructions: 20000000 cycles: 6617219 cumulative IPC: 3.022 (Simulation time: 00 hr 01 min 13 sec)
Warmup complete CPU 0 instructions: 20000000 cycles: 6617219 cumulative IPC: 3.022 (Simulation time: 00 hr 01 min 13 sec)
*** Reached end of trace: (0, "/data0/tzh/champsim_traces/QMM/compute_int_27_new.xz")
[BTB] WARNING: target of return is a lower address than the corresponding call. This is usually a problem with your trace.
[BTB] WARNING: target of return is a lower address than the corresponding call. This is usually a problem with your trace.
[BTB] WARNING: target of return is a lower address than the corresponding call. This is usually a problem with your trace.
*** Reached end of trace: (0, "/data0/tzh/champsim_traces/QMM/compute_int_27_new.xz")
[BTB] WARNING: target of return is a lower address than the corresponding call. This is usually a problem with your trace.
Simulation finished CPU 0 instructions: 50000005 cycles: 89871403 cumulative IPC: 0.5564 (Simulation time: 00 hr 12 min 28 sec)
Simulation complete CPU 0 instructions: 50000005 cycles: 89871403 cumulative IPC: 0.5564 (Simulation time: 00 hr 12 min 28 sec)

ChampSim completed all CPUs

=== Simulation ===
CPU 0 runs /data0/tzh/champsim_traces/QMM/compute_int_27_new.xz

Region of Interest Statistics

CPU 0 cumulative IPC: 0.5564 instructions: 50000005 cycles: 89871403
CPU 0 Branch Prediction Accuracy: 99.37% MPKI: 1.608 Average ROB Occupancy at Mispredict: 246.1
Branch type MPKI
BRANCH_DIRECT_JUMP: 0
BRANCH_INDIRECT: 0
BRANCH_CONDITIONAL: 1.608
BRANCH_DIRECT_CALL: 6e-05
BRANCH_INDIRECT_CALL: 0.00068
BRANCH_RETURN: 0.0001

cpu0->cpu0_STLB TOTAL        ACCESS:     130929 HIT:      19675 MISS:     111254 MSHR_MERGE:          0
cpu0->cpu0_STLB LOAD         ACCESS:     130929 HIT:      19675 MISS:     111254 MSHR_MERGE:          0
cpu0->cpu0_STLB RFO          ACCESS:          0 HIT:          0 MISS:          0 MSHR_MERGE:          0
cpu0->cpu0_STLB PREFETCH     ACCESS:          0 HIT:          0 MISS:          0 MSHR_MERGE:          0
cpu0->cpu0_STLB WRITE        ACCESS:          0 HIT:          0 MISS:          0 MSHR_MERGE:          0
cpu0->cpu0_STLB TRANSLATION  ACCESS:          0 HIT:          0 MISS:          0 MSHR_MERGE:          0
cpu0->cpu0_STLB PREFETCH REQUESTED:          0 ISSUED:          0 USEFUL:          0 USELESS:          0 LATE:          0
cpu0->cpu0_STLB AVERAGE MISS LATENCY: 129.9 cycles
cpu0->cpu0_L2C TOTAL        ACCESS:    6465129 HIT:    1314254 MISS:    5150875 MSHR_MERGE:    3297408
cpu0->cpu0_L2C LOAD         ACCESS:    1029530 HIT:      69169 MISS:     960361 MSHR_MERGE:     360287
cpu0->cpu0_L2C RFO          ACCESS:      20288 HIT:       3048 MISS:      17240 MSHR_MERGE:          5
cpu0->cpu0_L2C PREFETCH     ACCESS:    5015227 HIT:     888449 MISS:    4126778 MSHR_MERGE:    2937116
cpu0->cpu0_L2C WRITE        ACCESS:     350809 HIT:     350724 MISS:         85 MSHR_MERGE:          0
cpu0->cpu0_L2C TRANSLATION  ACCESS:      49275 HIT:       2864 MISS:      46411 MSHR_MERGE:          0
cpu0->cpu0_L2C PREFETCH REQUESTED:    3022445 ISSUED:    2104208 USEFUL:     100059 USELESS:      29565 LATE:      43425
cpu0->cpu0_L2C AVERAGE MISS LATENCY: 216.6 cycles
cpu0->cpu0_L1I TOTAL        ACCESS:    6537481 HIT:    6537371 MISS:        110 MSHR_MERGE:         37
cpu0->cpu0_L1I LOAD         ACCESS:    6537481 HIT:    6537371 MISS:        110 MSHR_MERGE:         37
cpu0->cpu0_L1I RFO          ACCESS:          0 HIT:          0 MISS:          0 MSHR_MERGE:          0
cpu0->cpu0_L1I PREFETCH     ACCESS:          0 HIT:          0 MISS:          0 MSHR_MERGE:          0
cpu0->cpu0_L1I WRITE        ACCESS:          0 HIT:          0 MISS:          0 MSHR_MERGE:          0
cpu0->cpu0_L1I TRANSLATION  ACCESS:          0 HIT:          0 MISS:          0 MSHR_MERGE:          0
cpu0->cpu0_L1I PREFETCH REQUESTED:          0 ISSUED:          0 USEFUL:          0 USELESS:          0 LATE:          0
cpu0->cpu0_L1I AVERAGE MISS LATENCY: 305.3 cycles
cpu0->cpu0_L1D TOTAL        ACCESS:   15383103 HIT:   10337342 MISS:    5045761 MSHR_MERGE:     907475
cpu0->cpu0_L1D LOAD         ACCESS:    7159182 HIT:    5438429 MISS:    1720753 MSHR_MERGE:     691296
cpu0->cpu0_L1D RFO          ACCESS:          0 HIT:          0 MISS:          0 MSHR_MERGE:          0
cpu0->cpu0_L1D PREFETCH     ACCESS:    4000325 HIT:     769056 MISS:    3231269 MSHR_MERGE:     192032
cpu0->cpu0_L1D WRITE        ACCESS:    4004818 HIT:    3964057 MISS:      40761 MSHR_MERGE:      20445
cpu0->cpu0_L1D TRANSLATION  ACCESS:     218778 HIT:     165800 MISS:      52978 MSHR_MERGE:       3702
cpu0->cpu0_L1D PREFETCH REQUESTED:   39304471 ISSUED:    4000323 USEFUL:     300212 USELESS:      41053 LATE:     169684
cpu0->cpu0_L1D AVERAGE MISS LATENCY: 203.8 cycles
cpu0->cpu0_ITLB TOTAL        ACCESS:    5946676 HIT:    5946563 MISS:        113 MSHR_MERGE:         77
cpu0->cpu0_ITLB LOAD         ACCESS:    5946676 HIT:    5946563 MISS:        113 MSHR_MERGE:         77
cpu0->cpu0_ITLB RFO          ACCESS:          0 HIT:          0 MISS:          0 MSHR_MERGE:          0
cpu0->cpu0_ITLB PREFETCH     ACCESS:          0 HIT:          0 MISS:          0 MSHR_MERGE:          0
cpu0->cpu0_ITLB WRITE        ACCESS:          0 HIT:          0 MISS:          0 MSHR_MERGE:          0
cpu0->cpu0_ITLB TRANSLATION  ACCESS:          0 HIT:          0 MISS:          0 MSHR_MERGE:          0
cpu0->cpu0_ITLB PREFETCH REQUESTED:          0 ISSUED:          0 USEFUL:          0 USELESS:          0 LATE:          0
cpu0->cpu0_ITLB AVERAGE MISS LATENCY: 276.4 cycles
cpu0->cpu0_DTLB TOTAL        ACCESS:   13307723 HIT:   12927907 MISS:     379816 MSHR_MERGE:     248923
cpu0->cpu0_DTLB LOAD         ACCESS:   13307723 HIT:   12927907 MISS:     379816 MSHR_MERGE:     248923
cpu0->cpu0_DTLB RFO          ACCESS:          0 HIT:          0 MISS:          0 MSHR_MERGE:          0
cpu0->cpu0_DTLB PREFETCH     ACCESS:          0 HIT:          0 MISS:          0 MSHR_MERGE:          0
cpu0->cpu0_DTLB WRITE        ACCESS:          0 HIT:          0 MISS:          0 MSHR_MERGE:          0
cpu0->cpu0_DTLB TRANSLATION  ACCESS:          0 HIT:          0 MISS:          0 MSHR_MERGE:          0
cpu0->cpu0_DTLB PREFETCH REQUESTED:          0 ISSUED:          0 USEFUL:          0 USELESS:          0 LATE:          0
cpu0->cpu0_DTLB AVERAGE MISS LATENCY: 116.2 cycles
cpu0->LLC TOTAL        ACCESS:    2194768 HIT:     331797 MISS:    1862971 MSHR_MERGE:     289937
cpu0->LLC LOAD         ACCESS:     600074 HIT:      15813 MISS:     584261 MSHR_MERGE:      19661
cpu0->LLC RFO          ACCESS:      17235 HIT:        135 MISS:      17100 MSHR_MERGE:          0
cpu0->LLC PREFETCH     ACCESS:    1189639 HIT:       3170 MISS:    1186469 MSHR_MERGE:     270276
cpu0->LLC WRITE        ACCESS:     341409 HIT:     301679 MISS:      39730 MSHR_MERGE:          0
cpu0->LLC TRANSLATION  ACCESS:      46411 HIT:      11000 MISS:      35411 MSHR_MERGE:          0
cpu0->LLC PREFETCH REQUESTED:          0 ISSUED:          0 USEFUL:          0 USELESS:          0 LATE:          0
cpu0->LLC AVERAGE MISS LATENCY: 226.6 cycles

DRAM Statistics

Channel 0 RQ ROW_BUFFER_HIT:     265838
  ROW_BUFFER_MISS:    1267452
  AVG DBUS CONGESTED CYCLE: 5.541
Channel 0 WQ ROW_BUFFER_HIT:      90377
  ROW_BUFFER_MISS:     238277
  FULL:          0
Channel 0 REFRESHES ISSUED:       7489

[ROI Statistics]
[System Configuration]
num_cpus 1
cpu_freq 4000
fetch_width 6
decode_width 6
dispatch_width 6
execute_width 6
lq_width 2
sq_width 2
retire_width 6
scheduler_size 128
branch_mispredict_penalty 15
rob_size 352
lq_size 128
sq_size 72
ifetch_buffer_size 64
decode_buffer_size 32
dispatch_buffer_size 32
register_file_size 288
decode_latency 1
dispatch_latency 1
schedule_latency 1
execute_latency 1
page_size 4096
block_size 64
core_0_itlb_set 16
core_0_itlb_way 4
core_0_itlb_rq_size 16
core_0_itlb_wq_size 16
core_0_itlb_pq_size 0
core_0_itlb_mshr_size 8
core_0_itlb_hit_latency 1
core_0_itlb_fill_latency 1
core_0_itlb_max_tag_check 2
core_0_itlb_max_fill 2
core_0_dtlb_set 16
core_0_dtlb_way 4
core_0_dtlb_rq_size 16
core_0_dtlb_wq_size 16
core_0_dtlb_pq_size 0
core_0_dtlb_mshr_size 8
core_0_dtlb_hit_latency 1
core_0_dtlb_fill_latency 1
core_0_dtlb_max_tag_check 2
core_0_dtlb_max_fill 2
core_0_stlb_set 128
core_0_stlb_way 12
core_0_stlb_rq_size 32
core_0_stlb_wq_size 32
core_0_stlb_pq_size 0
core_0_stlb_mshr_size 16
core_0_stlb_hit_latency 4
core_0_stlb_fill_latency 4
core_0_stlb_max_tag_check 1
core_0_stlb_max_fill 1
core_0_l1i_set 64
core_0_l1i_way 8
core_0_l1i_rq_size 64
core_0_l1i_wq_size 64
core_0_l1i_pq_size 32
core_0_l1i_mshr_size 8
core_0_l1i_hit_latency 2
core_0_l1i_fill_latency 2
core_0_l1i_max_tag_check 2
core_0_l1i_max_fill 2
core_0_l1d_set 64
core_0_l1d_way 12
core_0_l1d_rq_size 64
core_0_l1d_wq_size 64
core_0_l1d_pq_size 8
core_0_l1d_mshr_size 16
core_0_l1d_hit_latency 2
core_0_l1d_fill_latency 3
core_0_l1d_max_tag_check 2
core_0_l1d_max_fill 2
core_0_l2c_set 1024
core_0_l2c_way 8
core_0_l2c_rq_size 32
core_0_l2c_wq_size 32
core_0_l2c_pq_size 16
core_0_l2c_mshr_size 32
core_0_l2c_hit_latency 5
core_0_l2c_fill_latency 5
core_0_l2c_max_tag_check 1
core_0_l2c_max_fill 1
llc_set 2048
llc_way 16
llc_rq_size 32
llc_wq_size 32
llc_pq_size 32
llc_mshr_size 64
llc_hit_latency 10
llc_fill_latency 10
llc_max_tag_check 1
llc_max_fill 1
dram_channels 1
dram_ranks 1
dram_bankgroups 8
dram_banks 4
dram_rows 65536
dram_columns 1024
dram_channel_width 8
dram_rq_size 64
dram_wq_size 64
dram_size 17179869184
core_0_itlb_prefetcher no
core_0_dtlb_prefetcher no
core_0_stlb_prefetcher no
core_0_l1i_prefetcher next_line
core_0_l1d_prefetcher vberti
core_0_l2c_prefetcher ip_stride
llc_prefetcher no
llc_replacement drrip

Core_0_instructions 50000005
Core_0_cycles 89871403
Core_0_IPC 0.556351
Core_0_branch_prediction_accuracy 99.3653
Core_0_branch_MPKI 1.60836
Core_0_average_ROB_occupancy_at_mispredict 246.139

Core_0_ITLB_total_access 5946676
Core_0_ITLB_total_hit 5946563
Core_0_ITLB_total_miss 113
Core_0_ITLB_total_MPKI 0.00226
Core_0_ITLB_total_miss_rate 1.90022e-05
Core_0_ITLB_demand_access 5946676
Core_0_ITLB_demand_hit 5946563
Core_0_ITLB_demand_miss 113
Core_0_ITLB_demand_MPKI 0.00226
Core_0_ITLB_demand_miss_rate 1.90022e-05
Core_0_ITLB_load_access 5946676
Core_0_ITLB_load_hit 5946563
Core_0_ITLB_load_miss 113
Core_0_ITLB_load_MPKI 0.00226
Core_0_ITLB_load_miss_rate 1.90022e-05
Core_0_ITLB_rfo_access 0
Core_0_ITLB_rfo_hit 0
Core_0_ITLB_rfo_miss 0
Core_0_ITLB_rfo_MPKI 0
Core_0_ITLB_rfo_miss_rate 0
Core_0_ITLB_prefetch_access 0
Core_0_ITLB_prefetch_hit 0
Core_0_ITLB_prefetch_miss 0
Core_0_ITLB_prefetch_MPKI 0
Core_0_ITLB_prefetch_miss_rate 0
Core_0_ITLB_writeback_access 0
Core_0_ITLB_writeback_hit 0
Core_0_ITLB_writeback_miss 0
Core_0_ITLB_writeback_MPKI 0
Core_0_ITLB_writeback_miss_rate 0
Core_0_ITLB_prefetch_requested 0
Core_0_ITLB_prefetch_issued 0
Core_0_ITLB_prefetch_useful 0
Core_0_ITLB_prefetch_useless 0
Core_0_ITLB_prefetch_late 0
Core_0_ITLB_prefetch_accuracy 0
Core_0_ITLB_prefetch_coverage 0
Core_0_ITLB_total_eviction 36

Core_0_DTLB_total_access 13307723
Core_0_DTLB_total_hit 12927907
Core_0_DTLB_total_miss 379816
Core_0_DTLB_total_MPKI 7.59632
Core_0_DTLB_total_miss_rate 0.028541
Core_0_DTLB_demand_access 13307723
Core_0_DTLB_demand_hit 12927907
Core_0_DTLB_demand_miss 379816
Core_0_DTLB_demand_MPKI 7.59632
Core_0_DTLB_demand_miss_rate 0.028541
Core_0_DTLB_load_access 13307723
Core_0_DTLB_load_hit 12927907
Core_0_DTLB_load_miss 379816
Core_0_DTLB_load_MPKI 7.59632
Core_0_DTLB_load_miss_rate 0.028541
Core_0_DTLB_rfo_access 0
Core_0_DTLB_rfo_hit 0
Core_0_DTLB_rfo_miss 0
Core_0_DTLB_rfo_MPKI 0
Core_0_DTLB_rfo_miss_rate 0
Core_0_DTLB_prefetch_access 0
Core_0_DTLB_prefetch_hit 0
Core_0_DTLB_prefetch_miss 0
Core_0_DTLB_prefetch_MPKI 0
Core_0_DTLB_prefetch_miss_rate 0
Core_0_DTLB_writeback_access 0
Core_0_DTLB_writeback_hit 0
Core_0_DTLB_writeback_miss 0
Core_0_DTLB_writeback_MPKI 0
Core_0_DTLB_writeback_miss_rate 0
Core_0_DTLB_prefetch_requested 0
Core_0_DTLB_prefetch_issued 0
Core_0_DTLB_prefetch_useful 0
Core_0_DTLB_prefetch_useless 0
Core_0_DTLB_prefetch_late 0
Core_0_DTLB_prefetch_accuracy 0
Core_0_DTLB_prefetch_coverage 0
Core_0_DTLB_total_eviction 130893

Core_0_STLB_total_access 130929
Core_0_STLB_total_hit 19675
Core_0_STLB_total_miss 111254
Core_0_STLB_total_MPKI 2.22508
Core_0_STLB_total_miss_rate 0.849728
Core_0_STLB_demand_access 130929
Core_0_STLB_demand_hit 19675
Core_0_STLB_demand_miss 111254
Core_0_STLB_demand_MPKI 2.22508
Core_0_STLB_demand_miss_rate 0.849728
Core_0_STLB_load_access 130929
Core_0_STLB_load_hit 19675
Core_0_STLB_load_miss 111254
Core_0_STLB_load_MPKI 2.22508
Core_0_STLB_load_miss_rate 0.849728
Core_0_STLB_rfo_access 0
Core_0_STLB_rfo_hit 0
Core_0_STLB_rfo_miss 0
Core_0_STLB_rfo_MPKI 0
Core_0_STLB_rfo_miss_rate 0
Core_0_STLB_prefetch_access 0
Core_0_STLB_prefetch_hit 0
Core_0_STLB_prefetch_miss 0
Core_0_STLB_prefetch_MPKI 0
Core_0_STLB_prefetch_miss_rate 0
Core_0_STLB_writeback_access 0
Core_0_STLB_writeback_hit 0
Core_0_STLB_writeback_miss 0
Core_0_STLB_writeback_MPKI 0
Core_0_STLB_writeback_miss_rate 0
Core_0_STLB_prefetch_requested 0
Core_0_STLB_prefetch_issued 0
Core_0_STLB_prefetch_useful 0
Core_0_STLB_prefetch_useless 0
Core_0_STLB_prefetch_late 0
Core_0_STLB_prefetch_accuracy 0
Core_0_STLB_prefetch_coverage 0
Core_0_STLB_total_eviction 125341

Core_0_L1I_total_access 6537481
Core_0_L1I_total_hit 6537371
Core_0_L1I_total_miss 110
Core_0_L1I_total_MPKI 0.0022
Core_0_L1I_total_miss_rate 1.68261e-05
Core_0_L1I_demand_access 6537481
Core_0_L1I_demand_hit 6537371
Core_0_L1I_demand_miss 110
Core_0_L1I_demand_MPKI 0.0022
Core_0_L1I_demand_miss_rate 1.68261e-05
Core_0_L1I_load_access 6537481
Core_0_L1I_load_hit 6537371
Core_0_L1I_load_miss 110
Core_0_L1I_load_MPKI 0.0022
Core_0_L1I_load_miss_rate 1.68261e-05
Core_0_L1I_rfo_access 0
Core_0_L1I_rfo_hit 0
Core_0_L1I_rfo_miss 0
Core_0_L1I_rfo_MPKI 0
Core_0_L1I_rfo_miss_rate 0
Core_0_L1I_prefetch_access 0
Core_0_L1I_prefetch_hit 0
Core_0_L1I_prefetch_miss 0
Core_0_L1I_prefetch_MPKI 0
Core_0_L1I_prefetch_miss_rate 0
Core_0_L1I_writeback_access 0
Core_0_L1I_writeback_hit 0
Core_0_L1I_writeback_miss 0
Core_0_L1I_writeback_MPKI 0
Core_0_L1I_writeback_miss_rate 0
Core_0_L1I_prefetch_requested 0
Core_0_L1I_prefetch_issued 0
Core_0_L1I_prefetch_useful 0
Core_0_L1I_prefetch_useless 0
Core_0_L1I_prefetch_late 0
Core_0_L1I_prefetch_accuracy 0
Core_0_L1I_prefetch_coverage 0
Core_0_L1I_total_eviction 67

Core_0_L1D_total_access 15164325
Core_0_L1D_total_hit 10171542
Core_0_L1D_total_miss 4992783
Core_0_L1D_total_MPKI 99.8557
Core_0_L1D_total_miss_rate 0.329245
Core_0_L1D_demand_access 7159182
Core_0_L1D_demand_hit 5438429
Core_0_L1D_demand_miss 1720753
Core_0_L1D_demand_MPKI 34.4151
Core_0_L1D_demand_miss_rate 0.240356
Core_0_L1D_load_access 7159182
Core_0_L1D_load_hit 5438429
Core_0_L1D_load_miss 1720753
Core_0_L1D_load_MPKI 34.4151
Core_0_L1D_load_miss_rate 0.240356
Core_0_L1D_rfo_access 0
Core_0_L1D_rfo_hit 0
Core_0_L1D_rfo_miss 0
Core_0_L1D_rfo_MPKI 0
Core_0_L1D_rfo_miss_rate 0
Core_0_L1D_prefetch_access 4000325
Core_0_L1D_prefetch_hit 769056
Core_0_L1D_prefetch_miss 3231269
Core_0_L1D_prefetch_MPKI 64.6254
Core_0_L1D_prefetch_miss_rate 0.807752
Core_0_L1D_writeback_access 4004818
Core_0_L1D_writeback_hit 3964057
Core_0_L1D_writeback_miss 40761
Core_0_L1D_writeback_MPKI 0.81522
Core_0_L1D_writeback_miss_rate 0.010178
Core_0_L1D_prefetch_requested 39304471
Core_0_L1D_prefetch_issued 4000323
Core_0_L1D_prefetch_useful 300212
Core_0_L1D_prefetch_useless 41053
Core_0_L1D_prefetch_late 169684
Core_0_L1D_prefetch_accuracy 0.0750469
Core_0_L1D_prefetch_coverage 0.148549
Core_0_L1D_total_eviction 1440320

Core_0_L2C_total_access 6415854
Core_0_L2C_total_hit 1311390
Core_0_L2C_total_miss 5104464
Core_0_L2C_total_MPKI 102.089
Core_0_L2C_total_miss_rate 0.795602
Core_0_L2C_demand_access 1049818
Core_0_L2C_demand_hit 72217
Core_0_L2C_demand_miss 977601
Core_0_L2C_demand_MPKI 19.552
Core_0_L2C_demand_miss_rate 0.93121
Core_0_L2C_load_access 1029530
Core_0_L2C_load_hit 69169
Core_0_L2C_load_miss 960361
Core_0_L2C_load_MPKI 19.2072
Core_0_L2C_load_miss_rate 0.932815
Core_0_L2C_rfo_access 20288
Core_0_L2C_rfo_hit 3048
Core_0_L2C_rfo_miss 17240
Core_0_L2C_rfo_MPKI 0.3448
Core_0_L2C_rfo_miss_rate 0.849763
Core_0_L2C_prefetch_access 5015227
Core_0_L2C_prefetch_hit 888449
Core_0_L2C_prefetch_miss 4126778
Core_0_L2C_prefetch_MPKI 82.5356
Core_0_L2C_prefetch_miss_rate 0.82285
Core_0_L2C_writeback_access 350809
Core_0_L2C_writeback_hit 350724
Core_0_L2C_writeback_miss 85
Core_0_L2C_writeback_MPKI 0.0017
Core_0_L2C_writeback_miss_rate 0.000242297
Core_0_L2C_prefetch_requested 3022445
Core_0_L2C_prefetch_issued 2104208
Core_0_L2C_prefetch_useful 100059
Core_0_L2C_prefetch_useless 29565
Core_0_L2C_prefetch_late 43425
Core_0_L2C_prefetch_accuracy 0.0475519
Core_0_L2C_prefetch_coverage 0.0928484
Core_0_L2C_total_eviction 1541676

Core_0_LLC_total_access 2148357
Core_0_LLC_total_hit 320797
Core_0_LLC_total_miss 1827560
Core_0_LLC_total_MPKI 36.5512
Core_0_LLC_total_miss_rate 0.850678
Core_0_LLC_demand_access 617309
Core_0_LLC_demand_hit 15948
Core_0_LLC_demand_miss 601361
Core_0_LLC_demand_MPKI 12.0272
Core_0_LLC_demand_miss_rate 0.974165
Core_0_LLC_load_access 600074
Core_0_LLC_load_hit 15813
Core_0_LLC_load_miss 584261
Core_0_LLC_load_MPKI 11.6852
Core_0_LLC_load_miss_rate 0.973648
Core_0_LLC_rfo_access 17235
Core_0_LLC_rfo_hit 135
Core_0_LLC_rfo_miss 17100
Core_0_LLC_rfo_MPKI 0.342
Core_0_LLC_rfo_miss_rate 0.992167
Core_0_LLC_prefetch_access 1189639
Core_0_LLC_prefetch_hit 3170
Core_0_LLC_prefetch_miss 1186469
Core_0_LLC_prefetch_MPKI 23.7294
Core_0_LLC_prefetch_miss_rate 0.997335
Core_0_LLC_writeback_access 341409
Core_0_LLC_writeback_hit 301679
Core_0_LLC_writeback_miss 39730
Core_0_LLC_writeback_MPKI 0.7946
Core_0_LLC_writeback_miss_rate 0.116371
Core_0_LLC_prefetch_requested 0
Core_0_LLC_prefetch_issued 0
Core_0_LLC_prefetch_useful 0
Core_0_LLC_prefetch_useless 0
Core_0_LLC_prefetch_late 0
Core_0_LLC_prefetch_accuracy 0
Core_0_LLC_prefetch_coverage 0
Core_0_LLC_total_eviction 1573034

[DRAM Statistics]
Channel_0_RQ_row_buffer_hit 265838
Channel_0_RQ_row_buffer_miss 1267452
Channel_0_WQ_row_buffer_hit 90377
Channel_0_WQ_row_buffer_miss 238277
Channel_0_WQ_full 0
Channel_0_dbus_congested 5428932
DRAM_total_RQ_row_buffer_hit 265838
DRAM_total_RQ_row_buffer_miss 1267452
DRAM_total_WQ_row_buffer_hit 90377
DRAM_total_WQ_row_buffer_miss 238277
DRAM_total_WQ_full 0
DRAM_total_dbus_congested 5428932
DRAM_avg_congested_cycle 5.54074

======STLB miss causes ========
Core_0_STLB_miss_cause_breakdown
Core_0_STLB_cause_Demand_Data_miss 111220
Core_0_STLB_cause_Demand_Data_miss_rate 0.849468
Core_0_STLB_cause_Demand_Instruction_miss 34
Core_0_STLB_cause_Demand_Instruction_miss_rate 0.000259683
Core_0_STLB_cause_L1D_Prefetch_miss 0
Core_0_STLB_cause_L1D_Prefetch_miss_rate 0
Core_0_STLB_cause_L1I_Prefetch_miss 0
Core_0_STLB_cause_L1I_Prefetch_miss_rate 0
Core_0_STLB_cause_Other_miss 0
Core_0_STLB_cause_Other_miss_rate 0
Core_0_STLB_Demand_miss 111254
Core_0_STLB_Demand_miss_rate 0.849728
Core_0_STLB_L1D_Prefetch_miss 0
Core_0_STLB_L1D_Prefetch_miss_rate 0
Core_0_STLB_Other_miss 0
Core_0_STLB_Other_miss_rate 0
BERTI TO_L1: 1503559 TO_L2: 38850947 TO_L2_BC_MSHR: 20744539
BERTI AVG_LAT: 169.451 NUM_TRACK_LATENCY: 1694365 NUM_CANT_TRACK_LATENCY: 0
BERTI CROSS_PAGE 5220056 NO_CROSS_PAGE: 35134450
BERTI FOUND_BERTI: 8889716 NO_FOUND_BERTI: 9701381
BERTI AVERAGE_ISSUED: 3.83711
