[VMEM] WARNING: physical memory size is smaller than virtual memory size.

*** ChampSim Multicore Out-of-Order Simulator ***
Warmup Instructions: 20000000
Simulation Instructions: 50000000
Number of CPUs: 1
Page size: 4096
STLB ideal mode: l1pref
STLB ideal fill: on
Core 0: /data0/tzh/champsim_traces/Ligra/ligra_PageRank.com-lj.ungraph.gcc_6.3.0_O3.drop_79500M.length_250M.champsimtrace.xz
VBerti Prefetcher
BERTI HASH ENTANGLING
BERTI IP MASK ffff
Off-chip DRAM Size: 16 GiB Channels: 1 Width: 64-bit Data Rate: 3205 MT/s
Warmup halting CPU 0 at instruction 20000004 cycle 5639819 for remainder of phase
Warmup finished CPU 0 instructions: 20000004 cycles: 5639819 cumulative IPC: 3.546 (Simulation time: 00 hr 01 min 22 sec)
Warmup complete CPU 0 instructions: 20000004 cycles: 5639819 cumulative IPC: 3.546 (Simulation time: 00 hr 01 min 22 sec)
Simulation finished CPU 0 instructions: 50000005 cycles: 92413102 cumulative IPC: 0.541 (Simulation time: 00 hr 12 min 23 sec)
Simulation complete CPU 0 instructions: 50000005 cycles: 92413102 cumulative IPC: 0.541 (Simulation time: 00 hr 12 min 23 sec)

ChampSim completed all CPUs

=== Simulation ===
CPU 0 runs /data0/tzh/champsim_traces/Ligra/ligra_PageRank.com-lj.ungraph.gcc_6.3.0_O3.drop_79500M.length_250M.champsimtrace.xz

Region of Interest Statistics

CPU 0 cumulative IPC: 0.541 instructions: 50000005 cycles: 92413102
CPU 0 Branch Prediction Accuracy: 94.15% MPKI: 6.766 Average ROB Occupancy at Mispredict: 171.6
Branch type MPKI
BRANCH_DIRECT_JUMP: 0
BRANCH_INDIRECT: 0
BRANCH_CONDITIONAL: 6.766
BRANCH_DIRECT_CALL: 0
BRANCH_INDIRECT_CALL: 0
BRANCH_RETURN: 0

cpu0->cpu0_STLB TOTAL        ACCESS:    3290737 HIT:    1673737 MISS:    1617000 MSHR_MERGE:          0
cpu0->cpu0_STLB LOAD         ACCESS:    3290737 HIT:    1673737 MISS:    1617000 MSHR_MERGE:          0
cpu0->cpu0_STLB RFO          ACCESS:          0 HIT:          0 MISS:          0 MSHR_MERGE:          0
cpu0->cpu0_STLB PREFETCH     ACCESS:          0 HIT:          0 MISS:          0 MSHR_MERGE:          0
cpu0->cpu0_STLB WRITE        ACCESS:          0 HIT:          0 MISS:          0 MSHR_MERGE:          0
cpu0->cpu0_STLB TRANSLATION  ACCESS:          0 HIT:          0 MISS:          0 MSHR_MERGE:          0
cpu0->cpu0_STLB PREFETCH REQUESTED:          0 ISSUED:          0 USEFUL:          0 USELESS:          0 LATE:          0
cpu0->cpu0_STLB AVERAGE MISS LATENCY: 38.7 cycles
cpu0->cpu0_L2C TOTAL        ACCESS:    5514240 HIT:    1784194 MISS:    3730046 MSHR_MERGE:     130069
cpu0->cpu0_L2C LOAD         ACCESS:    3186782 HIT:     348521 MISS:    2838261 MSHR_MERGE:       2837
cpu0->cpu0_L2C RFO          ACCESS:         28 HIT:         28 MISS:          0 MSHR_MERGE:          0
cpu0->cpu0_L2C PREFETCH     ACCESS:     952343 HIT:     392954 MISS:     559389 MSHR_MERGE:     127232
cpu0->cpu0_L2C WRITE        ACCESS:      42413 HIT:      42413 MISS:          0 MSHR_MERGE:          0
cpu0->cpu0_L2C TRANSLATION  ACCESS:    1332674 HIT:    1000278 MISS:     332396 MSHR_MERGE:          0
cpu0->cpu0_L2C PREFETCH REQUESTED:     322701 ISSUED:     322671 USEFUL:     114986 USELESS:      41639 LATE:       2487
cpu0->cpu0_L2C AVERAGE MISS LATENCY: 207.7 cycles
cpu0->cpu0_L1I TOTAL        ACCESS:     723526 HIT:     723526 MISS:          0 MSHR_MERGE:          0
cpu0->cpu0_L1I LOAD         ACCESS:     723526 HIT:     723526 MISS:          0 MSHR_MERGE:          0
cpu0->cpu0_L1I RFO          ACCESS:          0 HIT:          0 MISS:          0 MSHR_MERGE:          0
cpu0->cpu0_L1I PREFETCH     ACCESS:          0 HIT:          0 MISS:          0 MSHR_MERGE:          0
cpu0->cpu0_L1I WRITE        ACCESS:          0 HIT:          0 MISS:          0 MSHR_MERGE:          0
cpu0->cpu0_L1I TRANSLATION  ACCESS:          0 HIT:          0 MISS:          0 MSHR_MERGE:          0
cpu0->cpu0_L1I PREFETCH REQUESTED:          0 ISSUED:          0 USEFUL:          0 USELESS:          0 LATE:          0
cpu0->cpu0_L1I AVERAGE MISS LATENCY: - cycles
cpu0->cpu0_L1D TOTAL        ACCESS:   23755234 HIT:   18454897 MISS:    5300337 MSHR_MERGE:     145152
cpu0->cpu0_L1D LOAD         ACCESS:   11417590 HIT:    8097882 MISS:    3319708 MSHR_MERGE:     132927
cpu0->cpu0_L1D RFO          ACCESS:          0 HIT:          0 MISS:          0 MSHR_MERGE:          0
cpu0->cpu0_L1D PREFETCH     ACCESS:    6684973 HIT:    6048616 MISS:     636357 MSHR_MERGE:        655
cpu0->cpu0_L1D WRITE        ACCESS:    2352245 HIT:    2352198 MISS:         47 MSHR_MERGE:         19
cpu0->cpu0_L1D TRANSLATION  ACCESS:    3300426 HIT:    1956201 MISS:    1344225 MSHR_MERGE:      11551
cpu0->cpu0_L1D PREFETCH REQUESTED:   27304910 ISSUED:    6684967 USEFUL:     318889 USELESS:       2193 LATE:        458
cpu0->cpu0_L1D AVERAGE MISS LATENCY: 154.4 cycles
cpu0->cpu0_ITLB TOTAL        ACCESS:     704266 HIT:     704266 MISS:          0 MSHR_MERGE:          0
cpu0->cpu0_ITLB LOAD         ACCESS:     704266 HIT:     704266 MISS:          0 MSHR_MERGE:          0
cpu0->cpu0_ITLB RFO          ACCESS:          0 HIT:          0 MISS:          0 MSHR_MERGE:          0
cpu0->cpu0_ITLB PREFETCH     ACCESS:          0 HIT:          0 MISS:          0 MSHR_MERGE:          0
cpu0->cpu0_ITLB WRITE        ACCESS:          0 HIT:          0 MISS:          0 MSHR_MERGE:          0
cpu0->cpu0_ITLB TRANSLATION  ACCESS:          0 HIT:          0 MISS:          0 MSHR_MERGE:          0
cpu0->cpu0_ITLB PREFETCH REQUESTED:          0 ISSUED:          0 USEFUL:          0 USELESS:          0 LATE:          0
cpu0->cpu0_ITLB AVERAGE MISS LATENCY: - cycles
cpu0->cpu0_DTLB TOTAL        ACCESS:   18857753 HIT:   15361484 MISS:    3496269 MSHR_MERGE:     205532
cpu0->cpu0_DTLB LOAD         ACCESS:   18857753 HIT:   15361484 MISS:    3496269 MSHR_MERGE:     205532
cpu0->cpu0_DTLB RFO          ACCESS:          0 HIT:          0 MISS:          0 MSHR_MERGE:          0
cpu0->cpu0_DTLB PREFETCH     ACCESS:          0 HIT:          0 MISS:          0 MSHR_MERGE:          0
cpu0->cpu0_DTLB WRITE        ACCESS:          0 HIT:          0 MISS:          0 MSHR_MERGE:          0
cpu0->cpu0_DTLB TRANSLATION  ACCESS:          0 HIT:          0 MISS:          0 MSHR_MERGE:          0
cpu0->cpu0_DTLB PREFETCH REQUESTED:          0 ISSUED:          0 USEFUL:          0 USELESS:          0 LATE:          0
cpu0->cpu0_DTLB AVERAGE MISS LATENCY: 24.53 cycles
cpu0->LLC TOTAL        ACCESS:    3642368 HIT:     810282 MISS:    2832086 MSHR_MERGE:      10303
cpu0->LLC LOAD         ACCESS:    2835424 HIT:     453929 MISS:    2381495 MSHR_MERGE:        940
cpu0->LLC RFO          ACCESS:          0 HIT:          0 MISS:          0 MSHR_MERGE:          0
cpu0->LLC PREFETCH     ACCESS:     432157 HIT:      27972 MISS:     404185 MSHR_MERGE:       9363
cpu0->LLC WRITE        ACCESS:      42391 HIT:       7601 MISS:      34790 MSHR_MERGE:          0
cpu0->LLC TRANSLATION  ACCESS:     332396 HIT:     320780 MISS:      11616 MSHR_MERGE:          0
cpu0->LLC PREFETCH REQUESTED:          0 ISSUED:          0 USEFUL:          0 USELESS:          0 LATE:          0
cpu0->LLC AVERAGE MISS LATENCY: 250.6 cycles

DRAM Statistics

Channel 0 RQ ROW_BUFFER_HIT:       5972
  ROW_BUFFER_MISS:    2781017
  AVG DBUS CONGESTED CYCLE: 3.64
Channel 0 WQ ROW_BUFFER_HIT:      11748
  ROW_BUFFER_MISS:      30757
  FULL:          0
Channel 0 REFRESHES ISSUED:       7702

[ROI Statistics]
[System Configuration]
num_cpus 1
cpu_freq 4000
fetch_width 6
decode_width 6
dispatch_width 6
execute_width 6
lq_width 2
sq_width 2
retire_width 6
scheduler_size 128
branch_mispredict_penalty 15
rob_size 352
lq_size 128
sq_size 72
ifetch_buffer_size 64
decode_buffer_size 32
dispatch_buffer_size 32
register_file_size 288
decode_latency 1
dispatch_latency 1
schedule_latency 1
execute_latency 1
page_size 4096
block_size 64
core_0_itlb_set 16
core_0_itlb_way 4
core_0_itlb_rq_size 16
core_0_itlb_wq_size 16
core_0_itlb_pq_size 0
core_0_itlb_mshr_size 8
core_0_itlb_hit_latency 1
core_0_itlb_fill_latency 1
core_0_itlb_max_tag_check 2
core_0_itlb_max_fill 2
core_0_dtlb_set 16
core_0_dtlb_way 4
core_0_dtlb_rq_size 16
core_0_dtlb_wq_size 16
core_0_dtlb_pq_size 0
core_0_dtlb_mshr_size 8
core_0_dtlb_hit_latency 1
core_0_dtlb_fill_latency 1
core_0_dtlb_max_tag_check 2
core_0_dtlb_max_fill 2
core_0_stlb_set 128
core_0_stlb_way 12
core_0_stlb_rq_size 32
core_0_stlb_wq_size 32
core_0_stlb_pq_size 0
core_0_stlb_mshr_size 16
core_0_stlb_hit_latency 4
core_0_stlb_fill_latency 4
core_0_stlb_max_tag_check 1
core_0_stlb_max_fill 1
core_0_l1i_set 64
core_0_l1i_way 8
core_0_l1i_rq_size 64
core_0_l1i_wq_size 64
core_0_l1i_pq_size 32
core_0_l1i_mshr_size 8
core_0_l1i_hit_latency 2
core_0_l1i_fill_latency 2
core_0_l1i_max_tag_check 2
core_0_l1i_max_fill 2
core_0_l1d_set 64
core_0_l1d_way 12
core_0_l1d_rq_size 64
core_0_l1d_wq_size 64
core_0_l1d_pq_size 8
core_0_l1d_mshr_size 16
core_0_l1d_hit_latency 2
core_0_l1d_fill_latency 3
core_0_l1d_max_tag_check 2
core_0_l1d_max_fill 2
core_0_l2c_set 1024
core_0_l2c_way 8
core_0_l2c_rq_size 32
core_0_l2c_wq_size 32
core_0_l2c_pq_size 16
core_0_l2c_mshr_size 32
core_0_l2c_hit_latency 5
core_0_l2c_fill_latency 5
core_0_l2c_max_tag_check 1
core_0_l2c_max_fill 1
llc_set 2048
llc_way 16
llc_rq_size 32
llc_wq_size 32
llc_pq_size 32
llc_mshr_size 64
llc_hit_latency 10
llc_fill_latency 10
llc_max_tag_check 1
llc_max_fill 1
dram_channels 1
dram_ranks 1
dram_bankgroups 8
dram_banks 4
dram_rows 65536
dram_columns 1024
dram_channel_width 8
dram_rq_size 64
dram_wq_size 64
dram_size 17179869184
core_0_itlb_prefetcher no
core_0_dtlb_prefetcher no
core_0_stlb_prefetcher no
core_0_l1i_prefetcher next_line
core_0_l1d_prefetcher vberti
core_0_l2c_prefetcher ip_stride
llc_prefetcher no
llc_replacement drrip

Core_0_instructions 50000005
Core_0_cycles 92413102
Core_0_IPC 0.541049
Core_0_branch_prediction_accuracy 94.148
Core_0_branch_MPKI 6.76564
Core_0_average_ROB_occupancy_at_mispredict 171.64

Core_0_ITLB_total_access 704266
Core_0_ITLB_total_hit 704266
Core_0_ITLB_total_miss 0
Core_0_ITLB_total_MPKI 0
Core_0_ITLB_total_miss_rate 0
Core_0_ITLB_demand_access 704266
Core_0_ITLB_demand_hit 704266
Core_0_ITLB_demand_miss 0
Core_0_ITLB_demand_MPKI 0
Core_0_ITLB_demand_miss_rate 0
Core_0_ITLB_load_access 704266
Core_0_ITLB_load_hit 704266
Core_0_ITLB_load_miss 0
Core_0_ITLB_load_MPKI 0
Core_0_ITLB_load_miss_rate 0
Core_0_ITLB_rfo_access 0
Core_0_ITLB_rfo_hit 0
Core_0_ITLB_rfo_miss 0
Core_0_ITLB_rfo_MPKI 0
Core_0_ITLB_rfo_miss_rate 0
Core_0_ITLB_prefetch_access 0
Core_0_ITLB_prefetch_hit 0
Core_0_ITLB_prefetch_miss 0
Core_0_ITLB_prefetch_MPKI 0
Core_0_ITLB_prefetch_miss_rate 0
Core_0_ITLB_writeback_access 0
Core_0_ITLB_writeback_hit 0
Core_0_ITLB_writeback_miss 0
Core_0_ITLB_writeback_MPKI 0
Core_0_ITLB_writeback_miss_rate 0
Core_0_ITLB_prefetch_requested 0
Core_0_ITLB_prefetch_issued 0
Core_0_ITLB_prefetch_useful 0
Core_0_ITLB_prefetch_useless 0
Core_0_ITLB_prefetch_late 0
Core_0_ITLB_prefetch_accuracy 0
Core_0_ITLB_prefetch_coverage 0
Core_0_ITLB_total_eviction 0

Core_0_DTLB_total_access 18857753
Core_0_DTLB_total_hit 15361484
Core_0_DTLB_total_miss 3496269
Core_0_DTLB_total_MPKI 69.9254
Core_0_DTLB_total_miss_rate 0.185402
Core_0_DTLB_demand_access 18857753
Core_0_DTLB_demand_hit 15361484
Core_0_DTLB_demand_miss 3496269
Core_0_DTLB_demand_MPKI 69.9254
Core_0_DTLB_demand_miss_rate 0.185402
Core_0_DTLB_load_access 18857753
Core_0_DTLB_load_hit 15361484
Core_0_DTLB_load_miss 3496269
Core_0_DTLB_load_MPKI 69.9254
Core_0_DTLB_load_miss_rate 0.185402
Core_0_DTLB_rfo_access 0
Core_0_DTLB_rfo_hit 0
Core_0_DTLB_rfo_miss 0
Core_0_DTLB_rfo_MPKI 0
Core_0_DTLB_rfo_miss_rate 0
Core_0_DTLB_prefetch_access 0
Core_0_DTLB_prefetch_hit 0
Core_0_DTLB_prefetch_miss 0
Core_0_DTLB_prefetch_MPKI 0
Core_0_DTLB_prefetch_miss_rate 0
Core_0_DTLB_writeback_access 0
Core_0_DTLB_writeback_hit 0
Core_0_DTLB_writeback_miss 0
Core_0_DTLB_writeback_MPKI 0
Core_0_DTLB_writeback_miss_rate 0
Core_0_DTLB_prefetch_requested 0
Core_0_DTLB_prefetch_issued 0
Core_0_DTLB_prefetch_useful 0
Core_0_DTLB_prefetch_useless 0
Core_0_DTLB_prefetch_late 0
Core_0_DTLB_prefetch_accuracy 0
Core_0_DTLB_prefetch_coverage 0
Core_0_DTLB_total_eviction 3290738

Core_0_STLB_total_access 3290737
Core_0_STLB_total_hit 1673737
Core_0_STLB_total_miss 1617000
Core_0_STLB_total_MPKI 32.34
Core_0_STLB_total_miss_rate 0.491379
Core_0_STLB_demand_access 3290737
Core_0_STLB_demand_hit 1673737
Core_0_STLB_demand_miss 1617000
Core_0_STLB_demand_MPKI 32.34
Core_0_STLB_demand_miss_rate 0.491379
Core_0_STLB_load_access 3290737
Core_0_STLB_load_hit 1673737
Core_0_STLB_load_miss 1617000
Core_0_STLB_load_MPKI 32.34
Core_0_STLB_load_miss_rate 0.491379
Core_0_STLB_rfo_access 0
Core_0_STLB_rfo_hit 0
Core_0_STLB_rfo_miss 0
Core_0_STLB_rfo_MPKI 0
Core_0_STLB_rfo_miss_rate 0
Core_0_STLB_prefetch_access 0
Core_0_STLB_prefetch_hit 0
Core_0_STLB_prefetch_miss 0
Core_0_STLB_prefetch_MPKI 0
Core_0_STLB_prefetch_miss_rate 0
Core_0_STLB_writeback_access 0
Core_0_STLB_writeback_hit 0
Core_0_STLB_writeback_miss 0
Core_0_STLB_writeback_MPKI 0
Core_0_STLB_writeback_miss_rate 0
Core_0_STLB_prefetch_requested 0
Core_0_STLB_prefetch_issued 0
Core_0_STLB_prefetch_useful 0
Core_0_STLB_prefetch_useless 0
Core_0_STLB_prefetch_late 0
Core_0_STLB_prefetch_accuracy 0
Core_0_STLB_prefetch_coverage 0
Core_0_STLB_total_eviction 1639933

Core_0_L1I_total_access 723526
Core_0_L1I_total_hit 723526
Core_0_L1I_total_miss 0
Core_0_L1I_total_MPKI 0
Core_0_L1I_total_miss_rate 0
Core_0_L1I_demand_access 723526
Core_0_L1I_demand_hit 723526
Core_0_L1I_demand_miss 0
Core_0_L1I_demand_MPKI 0
Core_0_L1I_demand_miss_rate 0
Core_0_L1I_load_access 723526
Core_0_L1I_load_hit 723526
Core_0_L1I_load_miss 0
Core_0_L1I_load_MPKI 0
Core_0_L1I_load_miss_rate 0
Core_0_L1I_rfo_access 0
Core_0_L1I_rfo_hit 0
Core_0_L1I_rfo_miss 0
Core_0_L1I_rfo_MPKI 0
Core_0_L1I_rfo_miss_rate 0
Core_0_L1I_prefetch_access 0
Core_0_L1I_prefetch_hit 0
Core_0_L1I_prefetch_miss 0
Core_0_L1I_prefetch_MPKI 0
Core_0_L1I_prefetch_miss_rate 0
Core_0_L1I_writeback_access 0
Core_0_L1I_writeback_hit 0
Core_0_L1I_writeback_miss 0
Core_0_L1I_writeback_MPKI 0
Core_0_L1I_writeback_miss_rate 0
Core_0_L1I_prefetch_requested 0
Core_0_L1I_prefetch_issued 0
Core_0_L1I_prefetch_useful 0
Core_0_L1I_prefetch_useless 0
Core_0_L1I_prefetch_late 0
Core_0_L1I_prefetch_accuracy 0
Core_0_L1I_prefetch_coverage 0
Core_0_L1I_total_eviction 0

Core_0_L1D_total_access 20454808
Core_0_L1D_total_hit 16498696
Core_0_L1D_total_miss 3956112
Core_0_L1D_total_MPKI 79.1222
Core_0_L1D_total_miss_rate 0.193407
Core_0_L1D_demand_access 11417590
Core_0_L1D_demand_hit 8097882
Core_0_L1D_demand_miss 3319708
Core_0_L1D_demand_MPKI 66.3942
Core_0_L1D_demand_miss_rate 0.290754
Core_0_L1D_load_access 11417590
Core_0_L1D_load_hit 8097882
Core_0_L1D_load_miss 3319708
Core_0_L1D_load_MPKI 66.3942
Core_0_L1D_load_miss_rate 0.290754
Core_0_L1D_rfo_access 0
Core_0_L1D_rfo_hit 0
Core_0_L1D_rfo_miss 0
Core_0_L1D_rfo_MPKI 0
Core_0_L1D_rfo_miss_rate 0
Core_0_L1D_prefetch_access 6684973
Core_0_L1D_prefetch_hit 6048616
Core_0_L1D_prefetch_miss 636357
Core_0_L1D_prefetch_MPKI 12.7271
Core_0_L1D_prefetch_miss_rate 0.0951922
Core_0_L1D_writeback_access 2352245
Core_0_L1D_writeback_hit 2352198
Core_0_L1D_writeback_miss 47
Core_0_L1D_writeback_MPKI 0.00094
Core_0_L1D_writeback_miss_rate 1.99809e-05
Core_0_L1D_prefetch_requested 27304910
Core_0_L1D_prefetch_issued 6684967
Core_0_L1D_prefetch_useful 318889
Core_0_L1D_prefetch_useless 2193
Core_0_L1D_prefetch_late 458
Core_0_L1D_prefetch_accuracy 0.0477024
Core_0_L1D_prefetch_coverage 0.0876406
Core_0_L1D_total_eviction 4840569

Core_0_L2C_total_access 4181566
Core_0_L2C_total_hit 783916
Core_0_L2C_total_miss 3397650
Core_0_L2C_total_MPKI 67.953
Core_0_L2C_total_miss_rate 0.812531
Core_0_L2C_demand_access 3186810
Core_0_L2C_demand_hit 348549
Core_0_L2C_demand_miss 2838261
Core_0_L2C_demand_MPKI 56.7652
Core_0_L2C_demand_miss_rate 0.890628
Core_0_L2C_load_access 3186782
Core_0_L2C_load_hit 348521
Core_0_L2C_load_miss 2838261
Core_0_L2C_load_MPKI 56.7652
Core_0_L2C_load_miss_rate 0.890635
Core_0_L2C_rfo_access 28
Core_0_L2C_rfo_hit 28
Core_0_L2C_rfo_miss 0
Core_0_L2C_rfo_MPKI 0
Core_0_L2C_rfo_miss_rate 0
Core_0_L2C_prefetch_access 952343
Core_0_L2C_prefetch_hit 392954
Core_0_L2C_prefetch_miss 559389
Core_0_L2C_prefetch_MPKI 11.1878
Core_0_L2C_prefetch_miss_rate 0.587382
Core_0_L2C_writeback_access 42413
Core_0_L2C_writeback_hit 42413
Core_0_L2C_writeback_miss 0
Core_0_L2C_writeback_MPKI 0
Core_0_L2C_writeback_miss_rate 0
Core_0_L2C_prefetch_requested 322701
Core_0_L2C_prefetch_issued 322671
Core_0_L2C_prefetch_useful 114986
Core_0_L2C_prefetch_useless 41639
Core_0_L2C_prefetch_late 2487
Core_0_L2C_prefetch_accuracy 0.356357
Core_0_L2C_prefetch_coverage 0.0389354
Core_0_L2C_total_eviction 3567946

Core_0_LLC_total_access 3309972
Core_0_LLC_total_hit 489502
Core_0_LLC_total_miss 2820470
Core_0_LLC_total_MPKI 56.4094
Core_0_LLC_total_miss_rate 0.852113
Core_0_LLC_demand_access 2835424
Core_0_LLC_demand_hit 453929
Core_0_LLC_demand_miss 2381495
Core_0_LLC_demand_MPKI 47.6299
Core_0_LLC_demand_miss_rate 0.839908
Core_0_LLC_load_access 2835424
Core_0_LLC_load_hit 453929
Core_0_LLC_load_miss 2381495
Core_0_LLC_load_MPKI 47.6299
Core_0_LLC_load_miss_rate 0.839908
Core_0_LLC_rfo_access 0
Core_0_LLC_rfo_hit 0
Core_0_LLC_rfo_miss 0
Core_0_LLC_rfo_MPKI 0
Core_0_LLC_rfo_miss_rate 0
Core_0_LLC_prefetch_access 432157
Core_0_LLC_prefetch_hit 27972
Core_0_LLC_prefetch_miss 404185
Core_0_LLC_prefetch_MPKI 8.0837
Core_0_LLC_prefetch_miss_rate 0.935274
Core_0_LLC_writeback_access 42391
Core_0_LLC_writeback_hit 7601
Core_0_LLC_writeback_miss 34790
Core_0_LLC_writeback_MPKI 0.6958
Core_0_LLC_writeback_miss_rate 0.820693
Core_0_LLC_prefetch_requested 0
Core_0_LLC_prefetch_issued 0
Core_0_LLC_prefetch_useful 0
Core_0_LLC_prefetch_useless 0
Core_0_LLC_prefetch_late 0
Core_0_LLC_prefetch_accuracy 0
Core_0_LLC_prefetch_coverage 0
Core_0_LLC_total_eviction 2821778

[DRAM Statistics]
Channel_0_RQ_row_buffer_hit 5972
Channel_0_RQ_row_buffer_miss 2781017
Channel_0_WQ_row_buffer_hit 11748
Channel_0_WQ_row_buffer_miss 30757
Channel_0_WQ_full 0
Channel_0_dbus_congested 4682574
DRAM_total_RQ_row_buffer_hit 5972
DRAM_total_RQ_row_buffer_miss 2781017
DRAM_total_WQ_row_buffer_hit 11748
DRAM_total_WQ_row_buffer_miss 30757
DRAM_total_WQ_full 0
DRAM_total_dbus_congested 4682574
DRAM_avg_congested_cycle 3.6404

======STLB miss causes ========
Core_0_STLB_miss_cause_breakdown
Core_0_STLB_cause_Demand_Data_miss 1617000
Core_0_STLB_cause_Demand_Data_miss_rate 0.491379
Core_0_STLB_cause_Demand_Instruction_miss 0
Core_0_STLB_cause_Demand_Instruction_miss_rate 0
Core_0_STLB_cause_L1D_Prefetch_miss 0
Core_0_STLB_cause_L1D_Prefetch_miss_rate 0
Core_0_STLB_cause_L1I_Prefetch_miss 0
Core_0_STLB_cause_L1I_Prefetch_miss_rate 0
Core_0_STLB_cause_Other_miss 0
Core_0_STLB_cause_Other_miss_rate 0
Core_0_STLB_Demand_miss 1617000
Core_0_STLB_Demand_miss_rate 0.491379
Core_0_STLB_L1D_Prefetch_miss 0
Core_0_STLB_L1D_Prefetch_miss_rate 0
Core_0_STLB_Other_miss 0
Core_0_STLB_Other_miss_rate 0
BERTI TO_L1: 25572763 TO_L2: 5400837 TO_L2_BC_MSHR: 2416832
BERTI AVG_LAT: 156.742 NUM_TRACK_LATENCY: 4860312 NUM_CANT_TRACK_LATENCY: 0
BERTI CROSS_PAGE 4295259 NO_CROSS_PAGE: 26678341
BERTI FOUND_BERTI: 26351320 NO_FOUND_BERTI: 6151244
BERTI AVERAGE_ISSUED: 3.59859
