[VMEM] WARNING: physical memory size is smaller than virtual memory size.

*** ChampSim Multicore Out-of-Order Simulator ***
Warmup Instructions: 20000000
Simulation Instructions: 50000000
Number of CPUs: 1
Page size: 4096
STLB ideal mode: l1pref
STLB ideal fill: on
Core 0: /data0/tzh/champsim_traces/Ligra/ligra_Radii.com-lj.ungraph.gcc_6.3.0_O3.drop_25000M.length_250M.champsimtrace.xz
VBerti Prefetcher
BERTI HASH ENTANGLING
BERTI IP MASK ffff
Off-chip DRAM Size: 16 GiB Channels: 1 Width: 64-bit Data Rate: 3205 MT/s
Warmup halting CPU 0 at instruction 20000004 cycle 7001705 for remainder of phase
Warmup finished CPU 0 instructions: 20000004 cycles: 7001705 cumulative IPC: 2.856 (Simulation time: 00 hr 01 min 34 sec)
Warmup complete CPU 0 instructions: 20000004 cycles: 7001705 cumulative IPC: 2.856 (Simulation time: 00 hr 01 min 34 sec)
Simulation finished CPU 0 instructions: 50000000 cycles: 172598459 cumulative IPC: 0.2897 (Simulation time: 00 hr 17 min 15 sec)
Simulation complete CPU 0 instructions: 50000000 cycles: 172598459 cumulative IPC: 0.2897 (Simulation time: 00 hr 17 min 15 sec)

ChampSim completed all CPUs

=== Simulation ===
CPU 0 runs /data0/tzh/champsim_traces/Ligra/ligra_Radii.com-lj.ungraph.gcc_6.3.0_O3.drop_25000M.length_250M.champsimtrace.xz

Region of Interest Statistics

CPU 0 cumulative IPC: 0.2897 instructions: 50000000 cycles: 172598459
CPU 0 Branch Prediction Accuracy: 90.09% MPKI: 16.71 Average ROB Occupancy at Mispredict: 27.89
Branch type MPKI
BRANCH_DIRECT_JUMP: 0.00048
BRANCH_INDIRECT: 0
BRANCH_CONDITIONAL: 16.71
BRANCH_DIRECT_CALL: 0.00038
BRANCH_INDIRECT_CALL: 0
BRANCH_RETURN: 0.0004

cpu0->cpu0_STLB TOTAL        ACCESS:    1183029 HIT:     255999 MISS:     927030 MSHR_MERGE:          0
cpu0->cpu0_STLB LOAD         ACCESS:    1183029 HIT:     255999 MISS:     927030 MSHR_MERGE:          0
cpu0->cpu0_STLB RFO          ACCESS:          0 HIT:          0 MISS:          0 MSHR_MERGE:          0
cpu0->cpu0_STLB PREFETCH     ACCESS:          0 HIT:          0 MISS:          0 MSHR_MERGE:          0
cpu0->cpu0_STLB WRITE        ACCESS:          0 HIT:          0 MISS:          0 MSHR_MERGE:          0
cpu0->cpu0_STLB TRANSLATION  ACCESS:          0 HIT:          0 MISS:          0 MSHR_MERGE:          0
cpu0->cpu0_STLB PREFETCH REQUESTED:          0 ISSUED:          0 USEFUL:          0 USELESS:          0 LATE:          0
cpu0->cpu0_STLB AVERAGE MISS LATENCY: 79.06 cycles
cpu0->cpu0_L2C TOTAL        ACCESS:    5917936 HIT:    2935532 MISS:    2982404 MSHR_MERGE:     456213
cpu0->cpu0_L2C LOAD         ACCESS:    1488455 HIT:      60886 MISS:    1427569 MSHR_MERGE:       9890
cpu0->cpu0_L2C RFO          ACCESS:     244843 HIT:      32882 MISS:     211961 MSHR_MERGE:       8639
cpu0->cpu0_L2C PREFETCH     ACCESS:    2664267 HIT:    1508173 MISS:    1156094 MSHR_MERGE:     437684
cpu0->cpu0_L2C WRITE        ACCESS:     760681 HIT:     760661 MISS:         20 MSHR_MERGE:          0
cpu0->cpu0_L2C TRANSLATION  ACCESS:     759690 HIT:     572930 MISS:     186760 MSHR_MERGE:          0
cpu0->cpu0_L2C PREFETCH REQUESTED:     832227 ISSUED:     825796 USEFUL:     171960 USELESS:      94841 LATE:       7264
cpu0->cpu0_L2C AVERAGE MISS LATENCY: 282.9 cycles
cpu0->cpu0_L1I TOTAL        ACCESS:    2310664 HIT:    2310584 MISS:         80 MSHR_MERGE:         13
cpu0->cpu0_L1I LOAD         ACCESS:    2310664 HIT:    2310584 MISS:         80 MSHR_MERGE:         13
cpu0->cpu0_L1I RFO          ACCESS:          0 HIT:          0 MISS:          0 MSHR_MERGE:          0
cpu0->cpu0_L1I PREFETCH     ACCESS:          0 HIT:          0 MISS:          0 MSHR_MERGE:          0
cpu0->cpu0_L1I WRITE        ACCESS:          0 HIT:          0 MISS:          0 MSHR_MERGE:          0
cpu0->cpu0_L1I TRANSLATION  ACCESS:          0 HIT:          0 MISS:          0 MSHR_MERGE:          0
cpu0->cpu0_L1I PREFETCH REQUESTED:          0 ISSUED:          0 USEFUL:          0 USELESS:          0 LATE:          0
cpu0->cpu0_L1I AVERAGE MISS LATENCY: 234.1 cycles
cpu0->cpu0_L1D TOTAL        ACCESS:   28313859 HIT:   22827368 MISS:    5486491 MSHR_MERGE:    1128298
cpu0->cpu0_L1D LOAD         ACCESS:   10102817 HIT:    8151964 MISS:    1950853 MSHR_MERGE:     462466
cpu0->cpu0_L1D RFO          ACCESS:          0 HIT:          0 MISS:          0 MSHR_MERGE:          0
cpu0->cpu0_L1D PREFETCH     ACCESS:   11880178 HIT:    9999203 MISS:    1880975 MSHR_MERGE:      15720
cpu0->cpu0_L1D WRITE        ACCESS:    4448269 HIT:    3556541 MISS:     891728 MSHR_MERGE:     646867
cpu0->cpu0_L1D TRANSLATION  ACCESS:    1882595 HIT:    1119660 MISS:     762935 MSHR_MERGE:       3245
cpu0->cpu0_L1D PREFETCH REQUESTED:   58963780 ISSUED:   11880170 USEFUL:     454470 USELESS:      23523 LATE:      13389
cpu0->cpu0_L1D AVERAGE MISS LATENCY: 215.9 cycles
cpu0->cpu0_ITLB TOTAL        ACCESS:    1974343 HIT:    1974337 MISS:          6 MSHR_MERGE:          2
cpu0->cpu0_ITLB LOAD         ACCESS:    1974343 HIT:    1974337 MISS:          6 MSHR_MERGE:          2
cpu0->cpu0_ITLB RFO          ACCESS:          0 HIT:          0 MISS:          0 MSHR_MERGE:          0
cpu0->cpu0_ITLB PREFETCH     ACCESS:          0 HIT:          0 MISS:          0 MSHR_MERGE:          0
cpu0->cpu0_ITLB WRITE        ACCESS:          0 HIT:          0 MISS:          0 MSHR_MERGE:          0
cpu0->cpu0_ITLB TRANSLATION  ACCESS:          0 HIT:          0 MISS:          0 MSHR_MERGE:          0
cpu0->cpu0_ITLB PREFETCH REQUESTED:          0 ISSUED:          0 USEFUL:          0 USELESS:          0 LATE:          0
cpu0->cpu0_ITLB AVERAGE MISS LATENCY: 476 cycles
cpu0->cpu0_DTLB TOTAL        ACCESS:   21741529 HIT:   20235540 MISS:    1505989 MSHR_MERGE:     322965
cpu0->cpu0_DTLB LOAD         ACCESS:   21741529 HIT:   20235540 MISS:    1505989 MSHR_MERGE:     322965
cpu0->cpu0_DTLB RFO          ACCESS:          0 HIT:          0 MISS:          0 MSHR_MERGE:          0
cpu0->cpu0_DTLB PREFETCH     ACCESS:          0 HIT:          0 MISS:          0 MSHR_MERGE:          0
cpu0->cpu0_DTLB WRITE        ACCESS:          0 HIT:          0 MISS:          0 MSHR_MERGE:          0
cpu0->cpu0_DTLB TRANSLATION  ACCESS:          0 HIT:          0 MISS:          0 MSHR_MERGE:          0
cpu0->cpu0_DTLB PREFETCH REQUESTED:          0 ISSUED:          0 USEFUL:          0 USELESS:          0 LATE:          0
cpu0->cpu0_DTLB AVERAGE MISS LATENCY: 67.74 cycles
cpu0->LLC TOTAL        ACCESS:    3280102 HIT:     826889 MISS:    2453213 MSHR_MERGE:      20597
cpu0->LLC LOAD         ACCESS:    1417679 HIT:      48062 MISS:    1369617 MSHR_MERGE:       1798
cpu0->LLC RFO          ACCESS:     203322 HIT:      11738 MISS:     191584 MSHR_MERGE:        333
cpu0->LLC PREFETCH     ACCESS:     718392 HIT:      51568 MISS:     666824 MSHR_MERGE:      18466
cpu0->LLC WRITE        ACCESS:     753949 HIT:     562848 MISS:     191101 MSHR_MERGE:          0
cpu0->LLC TRANSLATION  ACCESS:     186760 HIT:     152673 MISS:      34087 MSHR_MERGE:          0
cpu0->LLC PREFETCH REQUESTED:          0 ISSUED:          0 USEFUL:          0 USELESS:          0 LATE:          0
cpu0->LLC AVERAGE MISS LATENCY: 271.8 cycles

DRAM Statistics

Channel 0 RQ ROW_BUFFER_HIT:      47738
  ROW_BUFFER_MISS:    2193572
  AVG DBUS CONGESTED CYCLE: 7.312
Channel 0 WQ ROW_BUFFER_HIT:     166574
  ROW_BUFFER_MISS:     566151
  FULL:          0
Channel 0 REFRESHES ISSUED:      14383

[ROI Statistics]
[System Configuration]
num_cpus 1
cpu_freq 4000
fetch_width 6
decode_width 6
dispatch_width 6
execute_width 6
lq_width 2
sq_width 2
retire_width 6
scheduler_size 128
branch_mispredict_penalty 15
rob_size 352
lq_size 128
sq_size 72
ifetch_buffer_size 64
decode_buffer_size 32
dispatch_buffer_size 32
register_file_size 288
decode_latency 1
dispatch_latency 1
schedule_latency 1
execute_latency 1
page_size 4096
block_size 64
core_0_itlb_set 16
core_0_itlb_way 4
core_0_itlb_rq_size 16
core_0_itlb_wq_size 16
core_0_itlb_pq_size 0
core_0_itlb_mshr_size 8
core_0_itlb_hit_latency 1
core_0_itlb_fill_latency 1
core_0_itlb_max_tag_check 2
core_0_itlb_max_fill 2
core_0_dtlb_set 16
core_0_dtlb_way 4
core_0_dtlb_rq_size 16
core_0_dtlb_wq_size 16
core_0_dtlb_pq_size 0
core_0_dtlb_mshr_size 8
core_0_dtlb_hit_latency 1
core_0_dtlb_fill_latency 1
core_0_dtlb_max_tag_check 2
core_0_dtlb_max_fill 2
core_0_stlb_set 128
core_0_stlb_way 12
core_0_stlb_rq_size 32
core_0_stlb_wq_size 32
core_0_stlb_pq_size 0
core_0_stlb_mshr_size 16
core_0_stlb_hit_latency 4
core_0_stlb_fill_latency 4
core_0_stlb_max_tag_check 1
core_0_stlb_max_fill 1
core_0_l1i_set 64
core_0_l1i_way 8
core_0_l1i_rq_size 64
core_0_l1i_wq_size 64
core_0_l1i_pq_size 32
core_0_l1i_mshr_size 8
core_0_l1i_hit_latency 2
core_0_l1i_fill_latency 2
core_0_l1i_max_tag_check 2
core_0_l1i_max_fill 2
core_0_l1d_set 64
core_0_l1d_way 12
core_0_l1d_rq_size 64
core_0_l1d_wq_size 64
core_0_l1d_pq_size 8
core_0_l1d_mshr_size 16
core_0_l1d_hit_latency 2
core_0_l1d_fill_latency 3
core_0_l1d_max_tag_check 2
core_0_l1d_max_fill 2
core_0_l2c_set 1024
core_0_l2c_way 8
core_0_l2c_rq_size 32
core_0_l2c_wq_size 32
core_0_l2c_pq_size 16
core_0_l2c_mshr_size 32
core_0_l2c_hit_latency 5
core_0_l2c_fill_latency 5
core_0_l2c_max_tag_check 1
core_0_l2c_max_fill 1
llc_set 2048
llc_way 16
llc_rq_size 32
llc_wq_size 32
llc_pq_size 32
llc_mshr_size 64
llc_hit_latency 10
llc_fill_latency 10
llc_max_tag_check 1
llc_max_fill 1
dram_channels 1
dram_ranks 1
dram_bankgroups 8
dram_banks 4
dram_rows 65536
dram_columns 1024
dram_channel_width 8
dram_rq_size 64
dram_wq_size 64
dram_size 17179869184
core_0_itlb_prefetcher no
core_0_dtlb_prefetcher no
core_0_stlb_prefetcher no
core_0_l1i_prefetcher next_line
core_0_l1d_prefetcher vberti
core_0_l2c_prefetcher ip_stride
llc_prefetcher no
llc_replacement drrip

Core_0_instructions 50000000
Core_0_cycles 172598459
Core_0_IPC 0.28969
Core_0_branch_prediction_accuracy 90.0858
Core_0_branch_MPKI 16.7121
Core_0_average_ROB_occupancy_at_mispredict 27.8909

Core_0_ITLB_total_access 1974343
Core_0_ITLB_total_hit 1974337
Core_0_ITLB_total_miss 6
Core_0_ITLB_total_MPKI 0.00012
Core_0_ITLB_total_miss_rate 3.03899e-06
Core_0_ITLB_demand_access 1974343
Core_0_ITLB_demand_hit 1974337
Core_0_ITLB_demand_miss 6
Core_0_ITLB_demand_MPKI 0.00012
Core_0_ITLB_demand_miss_rate 3.03899e-06
Core_0_ITLB_load_access 1974343
Core_0_ITLB_load_hit 1974337
Core_0_ITLB_load_miss 6
Core_0_ITLB_load_MPKI 0.00012
Core_0_ITLB_load_miss_rate 3.03899e-06
Core_0_ITLB_rfo_access 0
Core_0_ITLB_rfo_hit 0
Core_0_ITLB_rfo_miss 0
Core_0_ITLB_rfo_MPKI 0
Core_0_ITLB_rfo_miss_rate 0
Core_0_ITLB_prefetch_access 0
Core_0_ITLB_prefetch_hit 0
Core_0_ITLB_prefetch_miss 0
Core_0_ITLB_prefetch_MPKI 0
Core_0_ITLB_prefetch_miss_rate 0
Core_0_ITLB_writeback_access 0
Core_0_ITLB_writeback_hit 0
Core_0_ITLB_writeback_miss 0
Core_0_ITLB_writeback_MPKI 0
Core_0_ITLB_writeback_miss_rate 0
Core_0_ITLB_prefetch_requested 0
Core_0_ITLB_prefetch_issued 0
Core_0_ITLB_prefetch_useful 0
Core_0_ITLB_prefetch_useless 0
Core_0_ITLB_prefetch_late 0
Core_0_ITLB_prefetch_accuracy 0
Core_0_ITLB_prefetch_coverage 0
Core_0_ITLB_total_eviction 0

Core_0_DTLB_total_access 21741529
Core_0_DTLB_total_hit 20235540
Core_0_DTLB_total_miss 1505989
Core_0_DTLB_total_MPKI 30.1198
Core_0_DTLB_total_miss_rate 0.0692679
Core_0_DTLB_demand_access 21741529
Core_0_DTLB_demand_hit 20235540
Core_0_DTLB_demand_miss 1505989
Core_0_DTLB_demand_MPKI 30.1198
Core_0_DTLB_demand_miss_rate 0.0692679
Core_0_DTLB_load_access 21741529
Core_0_DTLB_load_hit 20235540
Core_0_DTLB_load_miss 1505989
Core_0_DTLB_load_MPKI 30.1198
Core_0_DTLB_load_miss_rate 0.0692679
Core_0_DTLB_rfo_access 0
Core_0_DTLB_rfo_hit 0
Core_0_DTLB_rfo_miss 0
Core_0_DTLB_rfo_MPKI 0
Core_0_DTLB_rfo_miss_rate 0
Core_0_DTLB_prefetch_access 0
Core_0_DTLB_prefetch_hit 0
Core_0_DTLB_prefetch_miss 0
Core_0_DTLB_prefetch_MPKI 0
Core_0_DTLB_prefetch_miss_rate 0
Core_0_DTLB_writeback_access 0
Core_0_DTLB_writeback_hit 0
Core_0_DTLB_writeback_miss 0
Core_0_DTLB_writeback_MPKI 0
Core_0_DTLB_writeback_miss_rate 0
Core_0_DTLB_prefetch_requested 0
Core_0_DTLB_prefetch_issued 0
Core_0_DTLB_prefetch_useful 0
Core_0_DTLB_prefetch_useless 0
Core_0_DTLB_prefetch_late 0
Core_0_DTLB_prefetch_accuracy 0
Core_0_DTLB_prefetch_coverage 0
Core_0_DTLB_total_eviction 1183026

Core_0_STLB_total_access 1183029
Core_0_STLB_total_hit 255999
Core_0_STLB_total_miss 927030
Core_0_STLB_total_MPKI 18.5406
Core_0_STLB_total_miss_rate 0.783607
Core_0_STLB_demand_access 1183029
Core_0_STLB_demand_hit 255999
Core_0_STLB_demand_miss 927030
Core_0_STLB_demand_MPKI 18.5406
Core_0_STLB_demand_miss_rate 0.783607
Core_0_STLB_load_access 1183029
Core_0_STLB_load_hit 255999
Core_0_STLB_load_miss 927030
Core_0_STLB_load_MPKI 18.5406
Core_0_STLB_load_miss_rate 0.783607
Core_0_STLB_rfo_access 0
Core_0_STLB_rfo_hit 0
Core_0_STLB_rfo_miss 0
Core_0_STLB_rfo_MPKI 0
Core_0_STLB_rfo_miss_rate 0
Core_0_STLB_prefetch_access 0
Core_0_STLB_prefetch_hit 0
Core_0_STLB_prefetch_miss 0
Core_0_STLB_prefetch_MPKI 0
Core_0_STLB_prefetch_miss_rate 0
Core_0_STLB_writeback_access 0
Core_0_STLB_writeback_hit 0
Core_0_STLB_writeback_miss 0
Core_0_STLB_writeback_MPKI 0
Core_0_STLB_writeback_miss_rate 0
Core_0_STLB_prefetch_requested 0
Core_0_STLB_prefetch_issued 0
Core_0_STLB_prefetch_useful 0
Core_0_STLB_prefetch_useless 0
Core_0_STLB_prefetch_late 0
Core_0_STLB_prefetch_accuracy 0
Core_0_STLB_prefetch_coverage 0
Core_0_STLB_total_eviction 939024

Core_0_L1I_total_access 2310664
Core_0_L1I_total_hit 2310584
Core_0_L1I_total_miss 80
Core_0_L1I_total_MPKI 0.0016
Core_0_L1I_total_miss_rate 3.46221e-05
Core_0_L1I_demand_access 2310664
Core_0_L1I_demand_hit 2310584
Core_0_L1I_demand_miss 80
Core_0_L1I_demand_MPKI 0.0016
Core_0_L1I_demand_miss_rate 3.46221e-05
Core_0_L1I_load_access 2310664
Core_0_L1I_load_hit 2310584
Core_0_L1I_load_miss 80
Core_0_L1I_load_MPKI 0.0016
Core_0_L1I_load_miss_rate 3.46221e-05
Core_0_L1I_rfo_access 0
Core_0_L1I_rfo_hit 0
Core_0_L1I_rfo_miss 0
Core_0_L1I_rfo_MPKI 0
Core_0_L1I_rfo_miss_rate 0
Core_0_L1I_prefetch_access 0
Core_0_L1I_prefetch_hit 0
Core_0_L1I_prefetch_miss 0
Core_0_L1I_prefetch_MPKI 0
Core_0_L1I_prefetch_miss_rate 0
Core_0_L1I_writeback_access 0
Core_0_L1I_writeback_hit 0
Core_0_L1I_writeback_miss 0
Core_0_L1I_writeback_MPKI 0
Core_0_L1I_writeback_miss_rate 0
Core_0_L1I_prefetch_requested 0
Core_0_L1I_prefetch_issued 0
Core_0_L1I_prefetch_useful 0
Core_0_L1I_prefetch_useless 0
Core_0_L1I_prefetch_late 0
Core_0_L1I_prefetch_accuracy 0
Core_0_L1I_prefetch_coverage 0
Core_0_L1I_total_eviction 0

Core_0_L1D_total_access 26431264
Core_0_L1D_total_hit 21707708
Core_0_L1D_total_miss 4723556
Core_0_L1D_total_MPKI 94.4711
Core_0_L1D_total_miss_rate 0.178711
Core_0_L1D_demand_access 10102817
Core_0_L1D_demand_hit 8151964
Core_0_L1D_demand_miss 1950853
Core_0_L1D_demand_MPKI 39.0171
Core_0_L1D_demand_miss_rate 0.1931
Core_0_L1D_load_access 10102817
Core_0_L1D_load_hit 8151964
Core_0_L1D_load_miss 1950853
Core_0_L1D_load_MPKI 39.0171
Core_0_L1D_load_miss_rate 0.1931
Core_0_L1D_rfo_access 0
Core_0_L1D_rfo_hit 0
Core_0_L1D_rfo_miss 0
Core_0_L1D_rfo_MPKI 0
Core_0_L1D_rfo_miss_rate 0
Core_0_L1D_prefetch_access 11880178
Core_0_L1D_prefetch_hit 9999203
Core_0_L1D_prefetch_miss 1880975
Core_0_L1D_prefetch_MPKI 37.6195
Core_0_L1D_prefetch_miss_rate 0.158329
Core_0_L1D_writeback_access 4448269
Core_0_L1D_writeback_hit 3556541
Core_0_L1D_writeback_miss 891728
Core_0_L1D_writeback_MPKI 17.8346
Core_0_L1D_writeback_miss_rate 0.200466
Core_0_L1D_prefetch_requested 58963780
Core_0_L1D_prefetch_issued 11880170
Core_0_L1D_prefetch_useful 454470
Core_0_L1D_prefetch_useless 23523
Core_0_L1D_prefetch_late 13389
Core_0_L1D_prefetch_accuracy 0.0382545
Core_0_L1D_prefetch_coverage 0.188943
Core_0_L1D_total_eviction 2971075

Core_0_L2C_total_access 5158246
Core_0_L2C_total_hit 2362602
Core_0_L2C_total_miss 2795644
Core_0_L2C_total_MPKI 55.9129
Core_0_L2C_total_miss_rate 0.541976
Core_0_L2C_demand_access 1733298
Core_0_L2C_demand_hit 93768
Core_0_L2C_demand_miss 1639530
Core_0_L2C_demand_MPKI 32.7906
Core_0_L2C_demand_miss_rate 0.945902
Core_0_L2C_load_access 1488455
Core_0_L2C_load_hit 60886
Core_0_L2C_load_miss 1427569
Core_0_L2C_load_MPKI 28.5514
Core_0_L2C_load_miss_rate 0.959094
Core_0_L2C_rfo_access 244843
Core_0_L2C_rfo_hit 32882
Core_0_L2C_rfo_miss 211961
Core_0_L2C_rfo_MPKI 4.23922
Core_0_L2C_rfo_miss_rate 0.865702
Core_0_L2C_prefetch_access 2664267
Core_0_L2C_prefetch_hit 1508173
Core_0_L2C_prefetch_miss 1156094
Core_0_L2C_prefetch_MPKI 23.1219
Core_0_L2C_prefetch_miss_rate 0.433926
Core_0_L2C_writeback_access 760681
Core_0_L2C_writeback_hit 760661
Core_0_L2C_writeback_miss 20
Core_0_L2C_writeback_MPKI 0.0004
Core_0_L2C_writeback_miss_rate 2.62922e-05
Core_0_L2C_prefetch_requested 832227
Core_0_L2C_prefetch_issued 825796
Core_0_L2C_prefetch_useful 171960
Core_0_L2C_prefetch_useless 94841
Core_0_L2C_prefetch_late 7264
Core_0_L2C_prefetch_accuracy 0.208235
Core_0_L2C_prefetch_coverage 0.0949274
Core_0_L2C_total_eviction 2483314

Core_0_LLC_total_access 3093342
Core_0_LLC_total_hit 674216
Core_0_LLC_total_miss 2419126
Core_0_LLC_total_MPKI 48.3825
Core_0_LLC_total_miss_rate 0.782043
Core_0_LLC_demand_access 1621001
Core_0_LLC_demand_hit 59800
Core_0_LLC_demand_miss 1561201
Core_0_LLC_demand_MPKI 31.224
Core_0_LLC_demand_miss_rate 0.963109
Core_0_LLC_load_access 1417679
Core_0_LLC_load_hit 48062
Core_0_LLC_load_miss 1369617
Core_0_LLC_load_MPKI 27.3923
Core_0_LLC_load_miss_rate 0.966098
Core_0_LLC_rfo_access 203322
Core_0_LLC_rfo_hit 11738
Core_0_LLC_rfo_miss 191584
Core_0_LLC_rfo_MPKI 3.83168
Core_0_LLC_rfo_miss_rate 0.942269
Core_0_LLC_prefetch_access 718392
Core_0_LLC_prefetch_hit 51568
Core_0_LLC_prefetch_miss 666824
Core_0_LLC_prefetch_MPKI 13.3365
Core_0_LLC_prefetch_miss_rate 0.928217
Core_0_LLC_writeback_access 753949
Core_0_LLC_writeback_hit 562848
Core_0_LLC_writeback_miss 191101
Core_0_LLC_writeback_MPKI 3.82202
Core_0_LLC_writeback_miss_rate 0.253467
Core_0_LLC_prefetch_requested 0
Core_0_LLC_prefetch_issued 0
Core_0_LLC_prefetch_useful 0
Core_0_LLC_prefetch_useless 0
Core_0_LLC_prefetch_late 0
Core_0_LLC_prefetch_accuracy 0
Core_0_LLC_prefetch_coverage 0
Core_0_LLC_total_eviction 2432613

[DRAM Statistics]
Channel_0_RQ_row_buffer_hit 47738
Channel_0_RQ_row_buffer_miss 2193572
Channel_0_WQ_row_buffer_hit 166574
Channel_0_WQ_row_buffer_miss 566151
Channel_0_WQ_full 0
Channel_0_dbus_congested 8535755
DRAM_total_RQ_row_buffer_hit 47738
DRAM_total_RQ_row_buffer_miss 2193572
DRAM_total_WQ_row_buffer_hit 166574
DRAM_total_WQ_row_buffer_miss 566151
DRAM_total_WQ_full 0
DRAM_total_dbus_congested 8535755
DRAM_avg_congested_cycle 7.31246

======STLB miss causes ========
Core_0_STLB_miss_cause_breakdown
Core_0_STLB_cause_Demand_Data_miss 927026
Core_0_STLB_cause_Demand_Data_miss_rate 0.783604
Core_0_STLB_cause_Demand_Instruction_miss 4
Core_0_STLB_cause_Demand_Instruction_miss_rate 3.38115e-06
Core_0_STLB_cause_L1D_Prefetch_miss 0
Core_0_STLB_cause_L1D_Prefetch_miss_rate 0
Core_0_STLB_cause_L1I_Prefetch_miss 0
Core_0_STLB_cause_L1I_Prefetch_miss_rate 0
Core_0_STLB_cause_Other_miss 0
Core_0_STLB_cause_Other_miss_rate 0
Core_0_STLB_Demand_miss 927030
Core_0_STLB_Demand_miss_rate 0.783607
Core_0_STLB_L1D_Prefetch_miss 0
Core_0_STLB_L1D_Prefetch_miss_rate 0
Core_0_STLB_Other_miss 0
Core_0_STLB_Other_miss_rate 0
BERTI TO_L1: 51440742 TO_L2: 24683347 TO_L2_BC_MSHR: 8109112
BERTI AVG_LAT: 205.427 NUM_TRACK_LATENCY: 3095948 NUM_CANT_TRACK_LATENCY: 612
BERTI CROSS_PAGE 10413158 NO_CROSS_PAGE: 65710931
BERTI FOUND_BERTI: 29629637 NO_FOUND_BERTI: 4814138
BERTI AVERAGE_ISSUED: 3.1954
