[VMEM] WARNING: physical memory size is smaller than virtual memory size.

*** ChampSim Multicore Out-of-Order Simulator ***
Warmup Instructions: 20000000
Simulation Instructions: 50000000
Number of CPUs: 1
Page size: 4096
STLB ideal mode: l1pref
STLB ideal fill: on
Core 0: /data0/tzh/champsim_traces/Ligra/ligra_Components.com-lj.ungraph.gcc_6.3.0_O3.drop_6250M.length_250M.champsimtrace.xz
VBerti Prefetcher
BERTI HASH ENTANGLING
BERTI IP MASK ffff
Off-chip DRAM Size: 16 GiB Channels: 1 Width: 64-bit Data Rate: 3205 MT/s
Warmup halting CPU 0 at instruction 20000004 cycle 7632480 for remainder of phase
Warmup finished CPU 0 instructions: 20000004 cycles: 7632480 cumulative IPC: 2.62 (Simulation time: 00 hr 01 min 50 sec)
Warmup complete CPU 0 instructions: 20000004 cycles: 7632480 cumulative IPC: 2.62 (Simulation time: 00 hr 01 min 50 sec)
Simulation finished CPU 0 instructions: 50000001 cycles: 114437256 cumulative IPC: 0.4369 (Simulation time: 00 hr 23 min 45 sec)
Simulation complete CPU 0 instructions: 50000001 cycles: 114437256 cumulative IPC: 0.4369 (Simulation time: 00 hr 23 min 45 sec)

ChampSim completed all CPUs

=== Simulation ===
CPU 0 runs /data0/tzh/champsim_traces/Ligra/ligra_Components.com-lj.ungraph.gcc_6.3.0_O3.drop_6250M.length_250M.champsimtrace.xz

Region of Interest Statistics

CPU 0 cumulative IPC: 0.4369 instructions: 50000001 cycles: 114437256
CPU 0 Branch Prediction Accuracy: 100% MPKI: 0 Average ROB Occupancy at Mispredict: -
Branch type MPKI
BRANCH_DIRECT_JUMP: 0
BRANCH_INDIRECT: 0
BRANCH_CONDITIONAL: 0
BRANCH_DIRECT_CALL: 0
BRANCH_INDIRECT_CALL: 0
BRANCH_RETURN: 0

cpu0->cpu0_STLB TOTAL        ACCESS:      55804 HIT:      39461 MISS:      16343 MSHR_MERGE:          0
cpu0->cpu0_STLB LOAD         ACCESS:      55804 HIT:      39461 MISS:      16343 MSHR_MERGE:          0
cpu0->cpu0_STLB RFO          ACCESS:          0 HIT:          0 MISS:          0 MSHR_MERGE:          0
cpu0->cpu0_STLB PREFETCH     ACCESS:          0 HIT:          0 MISS:          0 MSHR_MERGE:          0
cpu0->cpu0_STLB WRITE        ACCESS:          0 HIT:          0 MISS:          0 MSHR_MERGE:          0
cpu0->cpu0_STLB TRANSLATION  ACCESS:          0 HIT:          0 MISS:          0 MSHR_MERGE:          0
cpu0->cpu0_STLB PREFETCH REQUESTED:          0 ISSUED:          0 USEFUL:          0 USELESS:          0 LATE:          0
cpu0->cpu0_STLB AVERAGE MISS LATENCY: 460.1 cycles
cpu0->cpu0_L2C TOTAL        ACCESS:   11307116 HIT:    2488157 MISS:    8818959 MSHR_MERGE:    3865520
cpu0->cpu0_L2C LOAD         ACCESS:     917126 HIT:     132370 MISS:     784756 MSHR_MERGE:     510121
cpu0->cpu0_L2C RFO          ACCESS:    1419573 HIT:     219416 MISS:    1200157 MSHR_MERGE:     364868
cpu0->cpu0_L2C PREFETCH     ACCESS:    7177988 HIT:     350418 MISS:    6827570 MSHR_MERGE:    2990531
cpu0->cpu0_L2C WRITE        ACCESS:    1785717 HIT:    1785717 MISS:          0 MSHR_MERGE:          0
cpu0->cpu0_L2C TRANSLATION  ACCESS:       6712 HIT:        236 MISS:       6476 MSHR_MERGE:          0
cpu0->cpu0_L2C PREFETCH REQUESTED:    3903800 ISSUED:    3890816 USEFUL:     395500 USELESS:     105456 LATE:     279518
cpu0->cpu0_L2C AVERAGE MISS LATENCY: 450.1 cycles
cpu0->cpu0_L1I TOTAL        ACCESS:    5909635 HIT:    5909635 MISS:          0 MSHR_MERGE:          0
cpu0->cpu0_L1I LOAD         ACCESS:    5909635 HIT:    5909635 MISS:          0 MSHR_MERGE:          0
cpu0->cpu0_L1I RFO          ACCESS:          0 HIT:          0 MISS:          0 MSHR_MERGE:          0
cpu0->cpu0_L1I PREFETCH     ACCESS:          0 HIT:          0 MISS:          0 MSHR_MERGE:          0
cpu0->cpu0_L1I WRITE        ACCESS:          0 HIT:          0 MISS:          0 MSHR_MERGE:          0
cpu0->cpu0_L1I TRANSLATION  ACCESS:          0 HIT:          0 MISS:          0 MSHR_MERGE:          0
cpu0->cpu0_L1I PREFETCH REQUESTED:          0 ISSUED:          0 USEFUL:          0 USELESS:          0 LATE:          0
cpu0->cpu0_L1I AVERAGE MISS LATENCY: - cycles
cpu0->cpu0_L1D TOTAL        ACCESS:   16310868 HIT:    2225158 MISS:   14085710 MSHR_MERGE:    7975673
cpu0->cpu0_L1D LOAD         ACCESS:    4064352 HIT:     823398 MISS:    3240954 MSHR_MERGE:    2323828
cpu0->cpu0_L1D RFO          ACCESS:          0 HIT:          0 MISS:          0 MSHR_MERGE:          0
cpu0->cpu0_L1D PREFETCH     ACCESS:    5070812 HIT:     530451 MISS:    4540361 MSHR_MERGE:     773735
cpu0->cpu0_L1D WRITE        ACCESS:    7142909 HIT:     845226 MISS:    6297683 MSHR_MERGE:    4878110
cpu0->cpu0_L1D TRANSLATION  ACCESS:      32795 HIT:      26083 MISS:       6712 MSHR_MERGE:          0
cpu0->cpu0_L1D PREFETCH REQUESTED:  747242795 ISSUED:    5070813 USEFUL:    1234744 USELESS:          0 LATE:     827123
cpu0->cpu0_L1D AVERAGE MISS LATENCY: 385.7 cycles
cpu0->cpu0_ITLB TOTAL        ACCESS:    5909634 HIT:    5909634 MISS:          0 MSHR_MERGE:          0
cpu0->cpu0_ITLB LOAD         ACCESS:    5909634 HIT:    5909634 MISS:          0 MSHR_MERGE:          0
cpu0->cpu0_ITLB RFO          ACCESS:          0 HIT:          0 MISS:          0 MSHR_MERGE:          0
cpu0->cpu0_ITLB PREFETCH     ACCESS:          0 HIT:          0 MISS:          0 MSHR_MERGE:          0
cpu0->cpu0_ITLB WRITE        ACCESS:          0 HIT:          0 MISS:          0 MSHR_MERGE:          0
cpu0->cpu0_ITLB TRANSLATION  ACCESS:          0 HIT:          0 MISS:          0 MSHR_MERGE:          0
cpu0->cpu0_ITLB PREFETCH REQUESTED:          0 ISSUED:          0 USEFUL:          0 USELESS:          0 LATE:          0
cpu0->cpu0_ITLB AVERAGE MISS LATENCY: - cycles
cpu0->cpu0_DTLB TOTAL        ACCESS:   12947608 HIT:   12638201 MISS:     309407 MSHR_MERGE:     253603
cpu0->cpu0_DTLB LOAD         ACCESS:   12947608 HIT:   12638201 MISS:     309407 MSHR_MERGE:     253603
cpu0->cpu0_DTLB RFO          ACCESS:          0 HIT:          0 MISS:          0 MSHR_MERGE:          0
cpu0->cpu0_DTLB PREFETCH     ACCESS:          0 HIT:          0 MISS:          0 MSHR_MERGE:          0
cpu0->cpu0_DTLB WRITE        ACCESS:          0 HIT:          0 MISS:          0 MSHR_MERGE:          0
cpu0->cpu0_DTLB TRANSLATION  ACCESS:          0 HIT:          0 MISS:          0 MSHR_MERGE:          0
cpu0->cpu0_DTLB PREFETCH REQUESTED:          0 ISSUED:          0 USEFUL:          0 USELESS:          0 LATE:          0
cpu0->cpu0_DTLB AVERAGE MISS LATENCY: 140.1 cycles
cpu0->LLC TOTAL        ACCESS:    6738191 HIT:    1523039 MISS:    5215152 MSHR_MERGE:    1147097
cpu0->LLC LOAD         ACCESS:     274635 HIT:      22325 MISS:     252310 MSHR_MERGE:      99918
cpu0->LLC RFO          ACCESS:     835288 HIT:      80160 MISS:     755128 MSHR_MERGE:      64884
cpu0->LLC PREFETCH     ACCESS:    3836235 HIT:     125126 MISS:    3711109 MSHR_MERGE:     982295
cpu0->LLC WRITE        ACCESS:    1785557 HIT:    1295424 MISS:     490133 MSHR_MERGE:          0
cpu0->LLC TRANSLATION  ACCESS:       6476 HIT:          4 MISS:       6472 MSHR_MERGE:          0
cpu0->LLC PREFETCH REQUESTED:          0 ISSUED:          0 USEFUL:          0 USELESS:          0 LATE:          0
cpu0->LLC AVERAGE MISS LATENCY: 345 cycles

DRAM Statistics

Channel 0 RQ ROW_BUFFER_HIT:     245644
  ROW_BUFFER_MISS:    3332266
  AVG DBUS CONGESTED CYCLE: 6.414
Channel 0 WQ ROW_BUFFER_HIT:     106500
  ROW_BUFFER_MISS:    1680230
  FULL:         35
Channel 0 REFRESHES ISSUED:       9536

[ROI Statistics]
[System Configuration]
num_cpus 1
cpu_freq 4000
fetch_width 6
decode_width 6
dispatch_width 6
execute_width 6
lq_width 2
sq_width 2
retire_width 6
scheduler_size 128
branch_mispredict_penalty 15
rob_size 352
lq_size 128
sq_size 72
ifetch_buffer_size 64
decode_buffer_size 32
dispatch_buffer_size 32
register_file_size 288
decode_latency 1
dispatch_latency 1
schedule_latency 1
execute_latency 1
page_size 4096
block_size 64
core_0_itlb_set 16
core_0_itlb_way 4
core_0_itlb_rq_size 16
core_0_itlb_wq_size 16
core_0_itlb_pq_size 0
core_0_itlb_mshr_size 8
core_0_itlb_hit_latency 1
core_0_itlb_fill_latency 1
core_0_itlb_max_tag_check 2
core_0_itlb_max_fill 2
core_0_dtlb_set 16
core_0_dtlb_way 4
core_0_dtlb_rq_size 16
core_0_dtlb_wq_size 16
core_0_dtlb_pq_size 0
core_0_dtlb_mshr_size 8
core_0_dtlb_hit_latency 1
core_0_dtlb_fill_latency 1
core_0_dtlb_max_tag_check 2
core_0_dtlb_max_fill 2
core_0_stlb_set 128
core_0_stlb_way 12
core_0_stlb_rq_size 32
core_0_stlb_wq_size 32
core_0_stlb_pq_size 0
core_0_stlb_mshr_size 16
core_0_stlb_hit_latency 4
core_0_stlb_fill_latency 4
core_0_stlb_max_tag_check 1
core_0_stlb_max_fill 1
core_0_l1i_set 64
core_0_l1i_way 8
core_0_l1i_rq_size 64
core_0_l1i_wq_size 64
core_0_l1i_pq_size 32
core_0_l1i_mshr_size 8
core_0_l1i_hit_latency 2
core_0_l1i_fill_latency 2
core_0_l1i_max_tag_check 2
core_0_l1i_max_fill 2
core_0_l1d_set 64
core_0_l1d_way 12
core_0_l1d_rq_size 64
core_0_l1d_wq_size 64
core_0_l1d_pq_size 8
core_0_l1d_mshr_size 16
core_0_l1d_hit_latency 2
core_0_l1d_fill_latency 3
core_0_l1d_max_tag_check 2
core_0_l1d_max_fill 2
core_0_l2c_set 1024
core_0_l2c_way 8
core_0_l2c_rq_size 32
core_0_l2c_wq_size 32
core_0_l2c_pq_size 16
core_0_l2c_mshr_size 32
core_0_l2c_hit_latency 5
core_0_l2c_fill_latency 5
core_0_l2c_max_tag_check 1
core_0_l2c_max_fill 1
llc_set 2048
llc_way 16
llc_rq_size 32
llc_wq_size 32
llc_pq_size 32
llc_mshr_size 64
llc_hit_latency 10
llc_fill_latency 10
llc_max_tag_check 1
llc_max_fill 1
dram_channels 1
dram_ranks 1
dram_bankgroups 8
dram_banks 4
dram_rows 65536
dram_columns 1024
dram_channel_width 8
dram_rq_size 64
dram_wq_size 64
dram_size 17179869184
core_0_itlb_prefetcher no
core_0_dtlb_prefetcher no
core_0_stlb_prefetcher no
core_0_l1i_prefetcher next_line
core_0_l1d_prefetcher vberti
core_0_l2c_prefetcher ip_stride
llc_prefetcher no
llc_replacement drrip

Core_0_instructions 50000001
Core_0_cycles 114437256
Core_0_IPC 0.436921
Core_0_branch_prediction_accuracy 100
Core_0_branch_MPKI 0
Core_0_average_ROB_occupancy_at_mispredict 0

Core_0_ITLB_total_access 5909634
Core_0_ITLB_total_hit 5909634
Core_0_ITLB_total_miss 0
Core_0_ITLB_total_MPKI 0
Core_0_ITLB_total_miss_rate 0
Core_0_ITLB_demand_access 5909634
Core_0_ITLB_demand_hit 5909634
Core_0_ITLB_demand_miss 0
Core_0_ITLB_demand_MPKI 0
Core_0_ITLB_demand_miss_rate 0
Core_0_ITLB_load_access 5909634
Core_0_ITLB_load_hit 5909634
Core_0_ITLB_load_miss 0
Core_0_ITLB_load_MPKI 0
Core_0_ITLB_load_miss_rate 0
Core_0_ITLB_rfo_access 0
Core_0_ITLB_rfo_hit 0
Core_0_ITLB_rfo_miss 0
Core_0_ITLB_rfo_MPKI 0
Core_0_ITLB_rfo_miss_rate 0
Core_0_ITLB_prefetch_access 0
Core_0_ITLB_prefetch_hit 0
Core_0_ITLB_prefetch_miss 0
Core_0_ITLB_prefetch_MPKI 0
Core_0_ITLB_prefetch_miss_rate 0
Core_0_ITLB_writeback_access 0
Core_0_ITLB_writeback_hit 0
Core_0_ITLB_writeback_miss 0
Core_0_ITLB_writeback_MPKI 0
Core_0_ITLB_writeback_miss_rate 0
Core_0_ITLB_prefetch_requested 0
Core_0_ITLB_prefetch_issued 0
Core_0_ITLB_prefetch_useful 0
Core_0_ITLB_prefetch_useless 0
Core_0_ITLB_prefetch_late 0
Core_0_ITLB_prefetch_accuracy 0
Core_0_ITLB_prefetch_coverage 0
Core_0_ITLB_total_eviction 0

Core_0_DTLB_total_access 12947608
Core_0_DTLB_total_hit 12638201
Core_0_DTLB_total_miss 309407
Core_0_DTLB_total_MPKI 6.18814
Core_0_DTLB_total_miss_rate 0.0238968
Core_0_DTLB_demand_access 12947608
Core_0_DTLB_demand_hit 12638201
Core_0_DTLB_demand_miss 309407
Core_0_DTLB_demand_MPKI 6.18814
Core_0_DTLB_demand_miss_rate 0.0238968
Core_0_DTLB_load_access 12947608
Core_0_DTLB_load_hit 12638201
Core_0_DTLB_load_miss 309407
Core_0_DTLB_load_MPKI 6.18814
Core_0_DTLB_load_miss_rate 0.0238968
Core_0_DTLB_rfo_access 0
Core_0_DTLB_rfo_hit 0
Core_0_DTLB_rfo_miss 0
Core_0_DTLB_rfo_MPKI 0
Core_0_DTLB_rfo_miss_rate 0
Core_0_DTLB_prefetch_access 0
Core_0_DTLB_prefetch_hit 0
Core_0_DTLB_prefetch_miss 0
Core_0_DTLB_prefetch_MPKI 0
Core_0_DTLB_prefetch_miss_rate 0
Core_0_DTLB_writeback_access 0
Core_0_DTLB_writeback_hit 0
Core_0_DTLB_writeback_miss 0
Core_0_DTLB_writeback_MPKI 0
Core_0_DTLB_writeback_miss_rate 0
Core_0_DTLB_prefetch_requested 0
Core_0_DTLB_prefetch_issued 0
Core_0_DTLB_prefetch_useful 0
Core_0_DTLB_prefetch_useless 0
Core_0_DTLB_prefetch_late 0
Core_0_DTLB_prefetch_accuracy 0
Core_0_DTLB_prefetch_coverage 0
Core_0_DTLB_total_eviction 55804

Core_0_STLB_total_access 55804
Core_0_STLB_total_hit 39461
Core_0_STLB_total_miss 16343
Core_0_STLB_total_MPKI 0.32686
Core_0_STLB_total_miss_rate 0.292864
Core_0_STLB_demand_access 55804
Core_0_STLB_demand_hit 39461
Core_0_STLB_demand_miss 16343
Core_0_STLB_demand_MPKI 0.32686
Core_0_STLB_demand_miss_rate 0.292864
Core_0_STLB_load_access 55804
Core_0_STLB_load_hit 39461
Core_0_STLB_load_miss 16343
Core_0_STLB_load_MPKI 0.32686
Core_0_STLB_load_miss_rate 0.292864
Core_0_STLB_rfo_access 0
Core_0_STLB_rfo_hit 0
Core_0_STLB_rfo_miss 0
Core_0_STLB_rfo_MPKI 0
Core_0_STLB_rfo_miss_rate 0
Core_0_STLB_prefetch_access 0
Core_0_STLB_prefetch_hit 0
Core_0_STLB_prefetch_miss 0
Core_0_STLB_prefetch_MPKI 0
Core_0_STLB_prefetch_miss_rate 0
Core_0_STLB_writeback_access 0
Core_0_STLB_writeback_hit 0
Core_0_STLB_writeback_miss 0
Core_0_STLB_writeback_MPKI 0
Core_0_STLB_writeback_miss_rate 0
Core_0_STLB_prefetch_requested 0
Core_0_STLB_prefetch_issued 0
Core_0_STLB_prefetch_useful 0
Core_0_STLB_prefetch_useless 0
Core_0_STLB_prefetch_late 0
Core_0_STLB_prefetch_accuracy 0
Core_0_STLB_prefetch_coverage 0
Core_0_STLB_total_eviction 55804

Core_0_L1I_total_access 5909635
Core_0_L1I_total_hit 5909635
Core_0_L1I_total_miss 0
Core_0_L1I_total_MPKI 0
Core_0_L1I_total_miss_rate 0
Core_0_L1I_demand_access 5909635
Core_0_L1I_demand_hit 5909635
Core_0_L1I_demand_miss 0
Core_0_L1I_demand_MPKI 0
Core_0_L1I_demand_miss_rate 0
Core_0_L1I_load_access 5909635
Core_0_L1I_load_hit 5909635
Core_0_L1I_load_miss 0
Core_0_L1I_load_MPKI 0
Core_0_L1I_load_miss_rate 0
Core_0_L1I_rfo_access 0
Core_0_L1I_rfo_hit 0
Core_0_L1I_rfo_miss 0
Core_0_L1I_rfo_MPKI 0
Core_0_L1I_rfo_miss_rate 0
Core_0_L1I_prefetch_access 0
Core_0_L1I_prefetch_hit 0
Core_0_L1I_prefetch_miss 0
Core_0_L1I_prefetch_MPKI 0
Core_0_L1I_prefetch_miss_rate 0
Core_0_L1I_writeback_access 0
Core_0_L1I_writeback_hit 0
Core_0_L1I_writeback_miss 0
Core_0_L1I_writeback_MPKI 0
Core_0_L1I_writeback_miss_rate 0
Core_0_L1I_prefetch_requested 0
Core_0_L1I_prefetch_issued 0
Core_0_L1I_prefetch_useful 0
Core_0_L1I_prefetch_useless 0
Core_0_L1I_prefetch_late 0
Core_0_L1I_prefetch_accuracy 0
Core_0_L1I_prefetch_coverage 0
Core_0_L1I_total_eviction 0

Core_0_L1D_total_access 16278073
Core_0_L1D_total_hit 2199075
Core_0_L1D_total_miss 14078998
Core_0_L1D_total_MPKI 281.58
Core_0_L1D_total_miss_rate 0.864906
Core_0_L1D_demand_access 4064352
Core_0_L1D_demand_hit 823398
Core_0_L1D_demand_miss 3240954
Core_0_L1D_demand_MPKI 64.8191
Core_0_L1D_demand_miss_rate 0.79741
Core_0_L1D_load_access 4064352
Core_0_L1D_load_hit 823398
Core_0_L1D_load_miss 3240954
Core_0_L1D_load_MPKI 64.8191
Core_0_L1D_load_miss_rate 0.79741
Core_0_L1D_rfo_access 0
Core_0_L1D_rfo_hit 0
Core_0_L1D_rfo_miss 0
Core_0_L1D_rfo_MPKI 0
Core_0_L1D_rfo_miss_rate 0
Core_0_L1D_prefetch_access 5070812
Core_0_L1D_prefetch_hit 530451
Core_0_L1D_prefetch_miss 4540361
Core_0_L1D_prefetch_MPKI 90.8072
Core_0_L1D_prefetch_miss_rate 0.895391
Core_0_L1D_writeback_access 7142909
Core_0_L1D_writeback_hit 845226
Core_0_L1D_writeback_miss 6297683
Core_0_L1D_writeback_MPKI 125.954
Core_0_L1D_writeback_miss_rate 0.881669
Core_0_L1D_prefetch_requested 747242795
Core_0_L1D_prefetch_issued 5070813
Core_0_L1D_prefetch_useful 1234744
Core_0_L1D_prefetch_useless 0
Core_0_L1D_prefetch_late 827123
Core_0_L1D_prefetch_accuracy 0.2435
Core_0_L1D_prefetch_coverage 0.275877
Core_0_L1D_total_eviction 3578144

Core_0_L2C_total_access 11300404
Core_0_L2C_total_hit 2487921
Core_0_L2C_total_miss 8812483
Core_0_L2C_total_MPKI 176.25
Core_0_L2C_total_miss_rate 0.779838
Core_0_L2C_demand_access 2336699
Core_0_L2C_demand_hit 351786
Core_0_L2C_demand_miss 1984913
Core_0_L2C_demand_MPKI 39.6983
Core_0_L2C_demand_miss_rate 0.849452
Core_0_L2C_load_access 917126
Core_0_L2C_load_hit 132370
Core_0_L2C_load_miss 784756
Core_0_L2C_load_MPKI 15.6951
Core_0_L2C_load_miss_rate 0.855669
Core_0_L2C_rfo_access 1419573
Core_0_L2C_rfo_hit 219416
Core_0_L2C_rfo_miss 1200157
Core_0_L2C_rfo_MPKI 24.0031
Core_0_L2C_rfo_miss_rate 0.845435
Core_0_L2C_prefetch_access 7177988
Core_0_L2C_prefetch_hit 350418
Core_0_L2C_prefetch_miss 6827570
Core_0_L2C_prefetch_MPKI 136.551
Core_0_L2C_prefetch_miss_rate 0.951182
Core_0_L2C_writeback_access 1785717
Core_0_L2C_writeback_hit 1785717
Core_0_L2C_writeback_miss 0
Core_0_L2C_writeback_MPKI 0
Core_0_L2C_writeback_miss_rate 0
Core_0_L2C_prefetch_requested 3903800
Core_0_L2C_prefetch_issued 3890816
Core_0_L2C_prefetch_useful 395500
Core_0_L2C_prefetch_useless 105456
Core_0_L2C_prefetch_late 279518
Core_0_L2C_prefetch_accuracy 0.10165
Core_0_L2C_prefetch_coverage 0.166148
Core_0_L2C_total_eviction 3577910

Core_0_LLC_total_access 6731715
Core_0_LLC_total_hit 1523035
Core_0_LLC_total_miss 5208680
Core_0_LLC_total_MPKI 104.174
Core_0_LLC_total_miss_rate 0.773752
Core_0_LLC_demand_access 1109923
Core_0_LLC_demand_hit 102485
Core_0_LLC_demand_miss 1007438
Core_0_LLC_demand_MPKI 20.1488
Core_0_LLC_demand_miss_rate 0.907665
Core_0_LLC_load_access 274635
Core_0_LLC_load_hit 22325
Core_0_LLC_load_miss 252310
Core_0_LLC_load_MPKI 5.0462
Core_0_LLC_load_miss_rate 0.91871
Core_0_LLC_rfo_access 835288
Core_0_LLC_rfo_hit 80160
Core_0_LLC_rfo_miss 755128
Core_0_LLC_rfo_MPKI 15.1026
Core_0_LLC_rfo_miss_rate 0.904033
Core_0_LLC_prefetch_access 3836235
Core_0_LLC_prefetch_hit 125126
Core_0_LLC_prefetch_miss 3711109
Core_0_LLC_prefetch_MPKI 74.2222
Core_0_LLC_prefetch_miss_rate 0.967383
Core_0_LLC_writeback_access 1785557
Core_0_LLC_writeback_hit 1295424
Core_0_LLC_writeback_miss 490133
Core_0_LLC_writeback_MPKI 9.80266
Core_0_LLC_writeback_miss_rate 0.274499
Core_0_LLC_prefetch_requested 0
Core_0_LLC_prefetch_issued 0
Core_0_LLC_prefetch_useful 0
Core_0_LLC_prefetch_useless 0
Core_0_LLC_prefetch_late 0
Core_0_LLC_prefetch_accuracy 0
Core_0_LLC_prefetch_coverage 0
Core_0_LLC_total_eviction 4068040

[DRAM Statistics]
Channel_0_RQ_row_buffer_hit 245644
Channel_0_RQ_row_buffer_miss 3332266
Channel_0_WQ_row_buffer_hit 106500
Channel_0_WQ_row_buffer_miss 1680230
Channel_0_WQ_full 35
Channel_0_dbus_congested 18690045
DRAM_total_RQ_row_buffer_hit 245644
DRAM_total_RQ_row_buffer_miss 3332266
DRAM_total_WQ_row_buffer_hit 106500
DRAM_total_WQ_row_buffer_miss 1680230
DRAM_total_WQ_full 35
DRAM_total_dbus_congested 18690045
DRAM_avg_congested_cycle 6.41398

======STLB miss causes ========
Core_0_STLB_miss_cause_breakdown
Core_0_STLB_cause_Demand_Data_miss 16343
Core_0_STLB_cause_Demand_Data_miss_rate 0.292864
Core_0_STLB_cause_Demand_Instruction_miss 0
Core_0_STLB_cause_Demand_Instruction_miss_rate 0
Core_0_STLB_cause_L1D_Prefetch_miss 0
Core_0_STLB_cause_L1D_Prefetch_miss_rate 0
Core_0_STLB_cause_L1I_Prefetch_miss 0
Core_0_STLB_cause_L1I_Prefetch_miss_rate 0
Core_0_STLB_cause_Other_miss 0
Core_0_STLB_cause_Other_miss_rate 0
Core_0_STLB_Demand_miss 16343
Core_0_STLB_Demand_miss_rate 0.292864
Core_0_STLB_L1D_Prefetch_miss 0
Core_0_STLB_L1D_Prefetch_miss_rate 0
Core_0_STLB_Other_miss 0
Core_0_STLB_Other_miss_rate 0
BERTI TO_L1: 71991662 TO_L2: 732045713 TO_L2_BC_MSHR: 484533492
BERTI AVG_LAT: 312.384 NUM_TRACK_LATENCY: 4976474 NUM_CANT_TRACK_LATENCY: 13
BERTI CROSS_PAGE 100883146 NO_CROSS_PAGE: 703154229
BERTI FOUND_BERTI: 79739850 NO_FOUND_BERTI: 21
BERTI AVERAGE_ISSUED: 1.80251
