[VMEM] WARNING: physical memory size is smaller than virtual memory size.

*** ChampSim Multicore Out-of-Order Simulator ***
Warmup Instructions: 20000000
Simulation Instructions: 50000000
Number of CPUs: 1
Page size: 4096
STLB ideal mode: l1pref
STLB ideal fill: on
Core 0: /data0/tzh/champsim_traces/QMM/srv_5_new.xz
VBerti Prefetcher
BERTI HASH ENTANGLING
BERTI IP MASK ffff
Off-chip DRAM Size: 16 GiB Channels: 1 Width: 64-bit Data Rate: 3205 MT/s
[BTB] WARNING: target of return is a lower address than the corresponding call. This is usually a problem with your trace.
[BTB] WARNING: target of return is a lower address than the corresponding call. This is usually a problem with your trace.
[BTB] WARNING: target of return is a lower address than the corresponding call. This is usually a problem with your trace.
[BTB] WARNING: target of return is a lower address than the corresponding call. This is usually a problem with your trace.
[BTB] WARNING: target of return is a lower address than the corresponding call. This is usually a problem with your trace.
[BTB] WARNING: target of return is a lower address than the corresponding call. This is usually a problem with your trace.
[BTB] WARNING: target of return is a lower address than the corresponding call. This is usually a problem with your trace.
[BTB] WARNING: target of return is a lower address than the corresponding call. This is usually a problem with your trace.
[BTB] WARNING: target of return is a lower address than the corresponding call. This is usually a problem with your trace.
[BTB] WARNING: target of return is a lower address than the corresponding call. This is usually a problem with your trace.
Warmup halting CPU 0 at instruction 20000004 cycle 4459933 for remainder of phase
Warmup finished CPU 0 instructions: 20000004 cycles: 4459933 cumulative IPC: 4.484 (Simulation time: 00 hr 01 min 05 sec)
Warmup complete CPU 0 instructions: 20000004 cycles: 4459933 cumulative IPC: 4.484 (Simulation time: 00 hr 01 min 05 sec)
*** Reached end of trace: (0, "/data0/tzh/champsim_traces/QMM/srv_5_new.xz")
*** Reached end of trace: (0, "/data0/tzh/champsim_traces/QMM/srv_5_new.xz")
Simulation finished CPU 0 instructions: 50000004 cycles: 26835105 cumulative IPC: 1.863 (Simulation time: 00 hr 05 min 10 sec)
Simulation complete CPU 0 instructions: 50000004 cycles: 26835105 cumulative IPC: 1.863 (Simulation time: 00 hr 05 min 10 sec)

ChampSim completed all CPUs

=== Simulation ===
CPU 0 runs /data0/tzh/champsim_traces/QMM/srv_5_new.xz

Region of Interest Statistics

CPU 0 cumulative IPC: 1.863 instructions: 50000004 cycles: 26835105
CPU 0 Branch Prediction Accuracy: 98.74% MPKI: 2.256 Average ROB Occupancy at Mispredict: 148.7
Branch type MPKI
BRANCH_DIRECT_JUMP: 0.1324
BRANCH_INDIRECT: 0.1836
BRANCH_CONDITIONAL: 1.374
BRANCH_DIRECT_CALL: 0.2424
BRANCH_INDIRECT_CALL: 0.07656
BRANCH_RETURN: 0.2472

cpu0->cpu0_STLB TOTAL        ACCESS:     833092 HIT:     752760 MISS:      80332 MSHR_MERGE:          0
cpu0->cpu0_STLB LOAD         ACCESS:     833092 HIT:     752760 MISS:      80332 MSHR_MERGE:          0
cpu0->cpu0_STLB RFO          ACCESS:          0 HIT:          0 MISS:          0 MSHR_MERGE:          0
cpu0->cpu0_STLB PREFETCH     ACCESS:          0 HIT:          0 MISS:          0 MSHR_MERGE:          0
cpu0->cpu0_STLB WRITE        ACCESS:          0 HIT:          0 MISS:          0 MSHR_MERGE:          0
cpu0->cpu0_STLB TRANSLATION  ACCESS:          0 HIT:          0 MISS:          0 MSHR_MERGE:          0
cpu0->cpu0_STLB PREFETCH REQUESTED:          0 ISSUED:          0 USEFUL:          0 USELESS:          0 LATE:          0
cpu0->cpu0_STLB AVERAGE MISS LATENCY: 39.16 cycles
cpu0->cpu0_L2C TOTAL        ACCESS:    2278056 HIT:    1490788 MISS:     787268 MSHR_MERGE:        457
cpu0->cpu0_L2C LOAD         ACCESS:    1839974 HIT:    1150684 MISS:     689290 MSHR_MERGE:         34
cpu0->cpu0_L2C RFO          ACCESS:      82689 HIT:      41684 MISS:      41005 MSHR_MERGE:          1
cpu0->cpu0_L2C PREFETCH     ACCESS:      18120 HIT:       8651 MISS:       9469 MSHR_MERGE:        422
cpu0->cpu0_L2C WRITE        ACCESS:     261956 HIT:     260690 MISS:       1266 MSHR_MERGE:          0
cpu0->cpu0_L2C TRANSLATION  ACCESS:      75317 HIT:      29079 MISS:      46238 MSHR_MERGE:          0
cpu0->cpu0_L2C PREFETCH REQUESTED:      17925 ISSUED:      17801 USEFUL:       5305 USELESS:       3661 LATE:         34
cpu0->cpu0_L2C AVERAGE MISS LATENCY: 32.08 cycles
cpu0->cpu0_L1I TOTAL        ACCESS:    7916337 HIT:    5810941 MISS:    2105396 MSHR_MERGE:     815635
cpu0->cpu0_L1I LOAD         ACCESS:    7916337 HIT:    5810941 MISS:    2105396 MSHR_MERGE:     815635
cpu0->cpu0_L1I RFO          ACCESS:          0 HIT:          0 MISS:          0 MSHR_MERGE:          0
cpu0->cpu0_L1I PREFETCH     ACCESS:          0 HIT:          0 MISS:          0 MSHR_MERGE:          0
cpu0->cpu0_L1I WRITE        ACCESS:          0 HIT:          0 MISS:          0 MSHR_MERGE:          0
cpu0->cpu0_L1I TRANSLATION  ACCESS:          0 HIT:          0 MISS:          0 MSHR_MERGE:          0
cpu0->cpu0_L1I PREFETCH REQUESTED:          0 ISSUED:          0 USEFUL:          0 USELESS:          0 LATE:          0
cpu0->cpu0_L1I AVERAGE MISS LATENCY: 13.09 cycles
cpu0->cpu0_L1D TOTAL        ACCESS:   11580476 HIT:   10527209 MISS:    1053267 MSHR_MERGE:     344715
cpu0->cpu0_L1D LOAD         ACCESS:    6427740 HIT:    5680446 MISS:     747294 MSHR_MERGE:     197074
cpu0->cpu0_L1D RFO          ACCESS:          0 HIT:          0 MISS:          0 MSHR_MERGE:          0
cpu0->cpu0_L1D PREFETCH     ACCESS:       8936 HIT:       8617 MISS:        319 MSHR_MERGE:          0
cpu0->cpu0_L1D WRITE        ACCESS:    4961215 HIT:    4732368 MISS:     228847 MSHR_MERGE:     146151
cpu0->cpu0_L1D TRANSLATION  ACCESS:     182585 HIT:     105778 MISS:      76807 MSHR_MERGE:       1490
cpu0->cpu0_L1D PREFETCH REQUESTED:       9775 ISSUED:       8936 USEFUL:         18 USELESS:         11 LATE:          0
cpu0->cpu0_L1D AVERAGE MISS LATENCY: 33.97 cycles
cpu0->cpu0_ITLB TOTAL        ACCESS:    6738934 HIT:    6231661 MISS:     507273 MSHR_MERGE:     314917
cpu0->cpu0_ITLB LOAD         ACCESS:    6738934 HIT:    6231661 MISS:     507273 MSHR_MERGE:     314917
cpu0->cpu0_ITLB RFO          ACCESS:          0 HIT:          0 MISS:          0 MSHR_MERGE:          0
cpu0->cpu0_ITLB PREFETCH     ACCESS:          0 HIT:          0 MISS:          0 MSHR_MERGE:          0
cpu0->cpu0_ITLB WRITE        ACCESS:          0 HIT:          0 MISS:          0 MSHR_MERGE:          0
cpu0->cpu0_ITLB TRANSLATION  ACCESS:          0 HIT:          0 MISS:          0 MSHR_MERGE:          0
cpu0->cpu0_ITLB PREFETCH REQUESTED:          0 ISSUED:          0 USEFUL:          0 USELESS:          0 LATE:          0
cpu0->cpu0_ITLB AVERAGE MISS LATENCY: 8.783 cycles
cpu0->cpu0_DTLB TOTAL        ACCESS:   10714580 HIT:    9847140 MISS:     867440 MSHR_MERGE:     226704
cpu0->cpu0_DTLB LOAD         ACCESS:   10714580 HIT:    9847140 MISS:     867440 MSHR_MERGE:     226704
cpu0->cpu0_DTLB RFO          ACCESS:          0 HIT:          0 MISS:          0 MSHR_MERGE:          0
cpu0->cpu0_DTLB PREFETCH     ACCESS:          0 HIT:          0 MISS:          0 MSHR_MERGE:          0
cpu0->cpu0_DTLB WRITE        ACCESS:          0 HIT:          0 MISS:          0 MSHR_MERGE:          0
cpu0->cpu0_DTLB TRANSLATION  ACCESS:          0 HIT:          0 MISS:          0 MSHR_MERGE:          0
cpu0->cpu0_DTLB PREFETCH REQUESTED:          0 ISSUED:          0 USEFUL:          0 USELESS:          0 LATE:          0
cpu0->cpu0_DTLB AVERAGE MISS LATENCY: 8.916 cycles
cpu0->LLC TOTAL        ACCESS:     918791 HIT:     839959 MISS:      78832 MSHR_MERGE:          0
cpu0->LLC LOAD         ACCESS:     689256 HIT:     632698 MISS:      56558 MSHR_MERGE:          0
cpu0->LLC RFO          ACCESS:      41004 HIT:      29381 MISS:      11623 MSHR_MERGE:          0
cpu0->LLC PREFETCH     ACCESS:       9047 HIT:       3981 MISS:       5066 MSHR_MERGE:          0
cpu0->LLC WRITE        ACCESS:     133246 HIT:     130555 MISS:       2691 MSHR_MERGE:          0
cpu0->LLC TRANSLATION  ACCESS:      46238 HIT:      43344 MISS:       2894 MSHR_MERGE:          0
cpu0->LLC PREFETCH REQUESTED:          0 ISSUED:          0 USEFUL:          0 USELESS:          0 LATE:          0
cpu0->LLC AVERAGE MISS LATENCY: 179.5 cycles

DRAM Statistics

Channel 0 RQ ROW_BUFFER_HIT:       3233
  ROW_BUFFER_MISS:      72907
  AVG DBUS CONGESTED CYCLE: 16.24
Channel 0 WQ ROW_BUFFER_HIT:      11802
  ROW_BUFFER_MISS:      41797
  FULL:          0
Channel 0 REFRESHES ISSUED:       2236

[ROI Statistics]
[System Configuration]
num_cpus 1
cpu_freq 4000
fetch_width 6
decode_width 6
dispatch_width 6
execute_width 6
lq_width 2
sq_width 2
retire_width 6
scheduler_size 128
branch_mispredict_penalty 15
rob_size 352
lq_size 128
sq_size 72
ifetch_buffer_size 64
decode_buffer_size 32
dispatch_buffer_size 32
register_file_size 288
decode_latency 1
dispatch_latency 1
schedule_latency 1
execute_latency 1
page_size 4096
block_size 64
core_0_itlb_set 16
core_0_itlb_way 4
core_0_itlb_rq_size 16
core_0_itlb_wq_size 16
core_0_itlb_pq_size 0
core_0_itlb_mshr_size 8
core_0_itlb_hit_latency 1
core_0_itlb_fill_latency 1
core_0_itlb_max_tag_check 2
core_0_itlb_max_fill 2
core_0_dtlb_set 16
core_0_dtlb_way 4
core_0_dtlb_rq_size 16
core_0_dtlb_wq_size 16
core_0_dtlb_pq_size 0
core_0_dtlb_mshr_size 8
core_0_dtlb_hit_latency 1
core_0_dtlb_fill_latency 1
core_0_dtlb_max_tag_check 2
core_0_dtlb_max_fill 2
core_0_stlb_set 128
core_0_stlb_way 12
core_0_stlb_rq_size 32
core_0_stlb_wq_size 32
core_0_stlb_pq_size 0
core_0_stlb_mshr_size 16
core_0_stlb_hit_latency 4
core_0_stlb_fill_latency 4
core_0_stlb_max_tag_check 1
core_0_stlb_max_fill 1
core_0_l1i_set 64
core_0_l1i_way 8
core_0_l1i_rq_size 64
core_0_l1i_wq_size 64
core_0_l1i_pq_size 32
core_0_l1i_mshr_size 8
core_0_l1i_hit_latency 2
core_0_l1i_fill_latency 2
core_0_l1i_max_tag_check 2
core_0_l1i_max_fill 2
core_0_l1d_set 64
core_0_l1d_way 12
core_0_l1d_rq_size 64
core_0_l1d_wq_size 64
core_0_l1d_pq_size 8
core_0_l1d_mshr_size 16
core_0_l1d_hit_latency 2
core_0_l1d_fill_latency 3
core_0_l1d_max_tag_check 2
core_0_l1d_max_fill 2
core_0_l2c_set 1024
core_0_l2c_way 8
core_0_l2c_rq_size 32
core_0_l2c_wq_size 32
core_0_l2c_pq_size 16
core_0_l2c_mshr_size 32
core_0_l2c_hit_latency 5
core_0_l2c_fill_latency 5
core_0_l2c_max_tag_check 1
core_0_l2c_max_fill 1
llc_set 2048
llc_way 16
llc_rq_size 32
llc_wq_size 32
llc_pq_size 32
llc_mshr_size 64
llc_hit_latency 10
llc_fill_latency 10
llc_max_tag_check 1
llc_max_fill 1
dram_channels 1
dram_ranks 1
dram_bankgroups 8
dram_banks 4
dram_rows 65536
dram_columns 1024
dram_channel_width 8
dram_rq_size 64
dram_wq_size 64
dram_size 17179869184
core_0_itlb_prefetcher no
core_0_dtlb_prefetcher no
core_0_stlb_prefetcher no
core_0_l1i_prefetcher next_line
core_0_l1d_prefetcher vberti
core_0_l2c_prefetcher ip_stride
llc_prefetcher no
llc_replacement drrip

Core_0_instructions 50000004
Core_0_cycles 26835105
Core_0_IPC 1.86323
Core_0_branch_prediction_accuracy 98.744
Core_0_branch_MPKI 2.25596
Core_0_average_ROB_occupancy_at_mispredict 148.714

Core_0_ITLB_total_access 6738934
Core_0_ITLB_total_hit 6231661
Core_0_ITLB_total_miss 507273
Core_0_ITLB_total_MPKI 10.1455
Core_0_ITLB_total_miss_rate 0.075275
Core_0_ITLB_demand_access 6738934
Core_0_ITLB_demand_hit 6231661
Core_0_ITLB_demand_miss 507273
Core_0_ITLB_demand_MPKI 10.1455
Core_0_ITLB_demand_miss_rate 0.075275
Core_0_ITLB_load_access 6738934
Core_0_ITLB_load_hit 6231661
Core_0_ITLB_load_miss 507273
Core_0_ITLB_load_MPKI 10.1455
Core_0_ITLB_load_miss_rate 0.075275
Core_0_ITLB_rfo_access 0
Core_0_ITLB_rfo_hit 0
Core_0_ITLB_rfo_miss 0
Core_0_ITLB_rfo_MPKI 0
Core_0_ITLB_rfo_miss_rate 0
Core_0_ITLB_prefetch_access 0
Core_0_ITLB_prefetch_hit 0
Core_0_ITLB_prefetch_miss 0
Core_0_ITLB_prefetch_MPKI 0
Core_0_ITLB_prefetch_miss_rate 0
Core_0_ITLB_writeback_access 0
Core_0_ITLB_writeback_hit 0
Core_0_ITLB_writeback_miss 0
Core_0_ITLB_writeback_MPKI 0
Core_0_ITLB_writeback_miss_rate 0
Core_0_ITLB_prefetch_requested 0
Core_0_ITLB_prefetch_issued 0
Core_0_ITLB_prefetch_useful 0
Core_0_ITLB_prefetch_useless 0
Core_0_ITLB_prefetch_late 0
Core_0_ITLB_prefetch_accuracy 0
Core_0_ITLB_prefetch_coverage 0
Core_0_ITLB_total_eviction 192356

Core_0_DTLB_total_access 10714580
Core_0_DTLB_total_hit 9847140
Core_0_DTLB_total_miss 867440
Core_0_DTLB_total_MPKI 17.3488
Core_0_DTLB_total_miss_rate 0.0809588
Core_0_DTLB_demand_access 10714580
Core_0_DTLB_demand_hit 9847140
Core_0_DTLB_demand_miss 867440
Core_0_DTLB_demand_MPKI 17.3488
Core_0_DTLB_demand_miss_rate 0.0809588
Core_0_DTLB_load_access 10714580
Core_0_DTLB_load_hit 9847140
Core_0_DTLB_load_miss 867440
Core_0_DTLB_load_MPKI 17.3488
Core_0_DTLB_load_miss_rate 0.0809588
Core_0_DTLB_rfo_access 0
Core_0_DTLB_rfo_hit 0
Core_0_DTLB_rfo_miss 0
Core_0_DTLB_rfo_MPKI 0
Core_0_DTLB_rfo_miss_rate 0
Core_0_DTLB_prefetch_access 0
Core_0_DTLB_prefetch_hit 0
Core_0_DTLB_prefetch_miss 0
Core_0_DTLB_prefetch_MPKI 0
Core_0_DTLB_prefetch_miss_rate 0
Core_0_DTLB_writeback_access 0
Core_0_DTLB_writeback_hit 0
Core_0_DTLB_writeback_miss 0
Core_0_DTLB_writeback_MPKI 0
Core_0_DTLB_writeback_miss_rate 0
Core_0_DTLB_prefetch_requested 0
Core_0_DTLB_prefetch_issued 0
Core_0_DTLB_prefetch_useful 0
Core_0_DTLB_prefetch_useless 0
Core_0_DTLB_prefetch_late 0
Core_0_DTLB_prefetch_accuracy 0
Core_0_DTLB_prefetch_coverage 0
Core_0_DTLB_total_eviction 640736

Core_0_STLB_total_access 833092
Core_0_STLB_total_hit 752760
Core_0_STLB_total_miss 80332
Core_0_STLB_total_MPKI 1.60664
Core_0_STLB_total_miss_rate 0.0964263
Core_0_STLB_demand_access 833092
Core_0_STLB_demand_hit 752760
Core_0_STLB_demand_miss 80332
Core_0_STLB_demand_MPKI 1.60664
Core_0_STLB_demand_miss_rate 0.0964263
Core_0_STLB_load_access 833092
Core_0_STLB_load_hit 752760
Core_0_STLB_load_miss 80332
Core_0_STLB_load_MPKI 1.60664
Core_0_STLB_load_miss_rate 0.0964263
Core_0_STLB_rfo_access 0
Core_0_STLB_rfo_hit 0
Core_0_STLB_rfo_miss 0
Core_0_STLB_rfo_MPKI 0
Core_0_STLB_rfo_miss_rate 0
Core_0_STLB_prefetch_access 0
Core_0_STLB_prefetch_hit 0
Core_0_STLB_prefetch_miss 0
Core_0_STLB_prefetch_MPKI 0
Core_0_STLB_prefetch_miss_rate 0
Core_0_STLB_writeback_access 0
Core_0_STLB_writeback_hit 0
Core_0_STLB_writeback_miss 0
Core_0_STLB_writeback_MPKI 0
Core_0_STLB_writeback_miss_rate 0
Core_0_STLB_prefetch_requested 0
Core_0_STLB_prefetch_issued 0
Core_0_STLB_prefetch_useful 0
Core_0_STLB_prefetch_useless 0
Core_0_STLB_prefetch_late 0
Core_0_STLB_prefetch_accuracy 0
Core_0_STLB_prefetch_coverage 0
Core_0_STLB_total_eviction 80336

Core_0_L1I_total_access 7916337
Core_0_L1I_total_hit 5810941
Core_0_L1I_total_miss 2105396
Core_0_L1I_total_MPKI 42.1079
Core_0_L1I_total_miss_rate 0.265956
Core_0_L1I_demand_access 7916337
Core_0_L1I_demand_hit 5810941
Core_0_L1I_demand_miss 2105396
Core_0_L1I_demand_MPKI 42.1079
Core_0_L1I_demand_miss_rate 0.265956
Core_0_L1I_load_access 7916337
Core_0_L1I_load_hit 5810941
Core_0_L1I_load_miss 2105396
Core_0_L1I_load_MPKI 42.1079
Core_0_L1I_load_miss_rate 0.265956
Core_0_L1I_rfo_access 0
Core_0_L1I_rfo_hit 0
Core_0_L1I_rfo_miss 0
Core_0_L1I_rfo_MPKI 0
Core_0_L1I_rfo_miss_rate 0
Core_0_L1I_prefetch_access 0
Core_0_L1I_prefetch_hit 0
Core_0_L1I_prefetch_miss 0
Core_0_L1I_prefetch_MPKI 0
Core_0_L1I_prefetch_miss_rate 0
Core_0_L1I_writeback_access 0
Core_0_L1I_writeback_hit 0
Core_0_L1I_writeback_miss 0
Core_0_L1I_writeback_MPKI 0
Core_0_L1I_writeback_miss_rate 0
Core_0_L1I_prefetch_requested 0
Core_0_L1I_prefetch_issued 0
Core_0_L1I_prefetch_useful 0
Core_0_L1I_prefetch_useless 0
Core_0_L1I_prefetch_late 0
Core_0_L1I_prefetch_accuracy 0
Core_0_L1I_prefetch_coverage 0
Core_0_L1I_total_eviction 1289762

Core_0_L1D_total_access 11397891
Core_0_L1D_total_hit 10421431
Core_0_L1D_total_miss 976460
Core_0_L1D_total_MPKI 19.5292
Core_0_L1D_total_miss_rate 0.0856702
Core_0_L1D_demand_access 6427740
Core_0_L1D_demand_hit 5680446
Core_0_L1D_demand_miss 747294
Core_0_L1D_demand_MPKI 14.9459
Core_0_L1D_demand_miss_rate 0.116261
Core_0_L1D_load_access 6427740
Core_0_L1D_load_hit 5680446
Core_0_L1D_load_miss 747294
Core_0_L1D_load_MPKI 14.9459
Core_0_L1D_load_miss_rate 0.116261
Core_0_L1D_rfo_access 0
Core_0_L1D_rfo_hit 0
Core_0_L1D_rfo_miss 0
Core_0_L1D_rfo_MPKI 0
Core_0_L1D_rfo_miss_rate 0
Core_0_L1D_prefetch_access 8936
Core_0_L1D_prefetch_hit 8617
Core_0_L1D_prefetch_miss 319
Core_0_L1D_prefetch_MPKI 0.00638
Core_0_L1D_prefetch_miss_rate 0.0356983
Core_0_L1D_writeback_access 4961215
Core_0_L1D_writeback_hit 4732368
Core_0_L1D_writeback_miss 228847
Core_0_L1D_writeback_MPKI 4.57694
Core_0_L1D_writeback_miss_rate 0.0461272
Core_0_L1D_prefetch_requested 9775
Core_0_L1D_prefetch_issued 8936
Core_0_L1D_prefetch_useful 18
Core_0_L1D_prefetch_useless 11
Core_0_L1D_prefetch_late 0
Core_0_L1D_prefetch_accuracy 0.00201432
Core_0_L1D_prefetch_coverage 2.40863e-05
Core_0_L1D_total_eviction 708257

Core_0_L2C_total_access 2202739
Core_0_L2C_total_hit 1461709
Core_0_L2C_total_miss 741030
Core_0_L2C_total_MPKI 14.8206
Core_0_L2C_total_miss_rate 0.336413
Core_0_L2C_demand_access 1922663
Core_0_L2C_demand_hit 1192368
Core_0_L2C_demand_miss 730295
Core_0_L2C_demand_MPKI 14.6059
Core_0_L2C_demand_miss_rate 0.379835
Core_0_L2C_load_access 1839974
Core_0_L2C_load_hit 1150684
Core_0_L2C_load_miss 689290
Core_0_L2C_load_MPKI 13.7858
Core_0_L2C_load_miss_rate 0.374619
Core_0_L2C_rfo_access 82689
Core_0_L2C_rfo_hit 41684
Core_0_L2C_rfo_miss 41005
Core_0_L2C_rfo_MPKI 0.8201
Core_0_L2C_rfo_miss_rate 0.495894
Core_0_L2C_prefetch_access 18120
Core_0_L2C_prefetch_hit 8651
Core_0_L2C_prefetch_miss 9469
Core_0_L2C_prefetch_MPKI 0.18938
Core_0_L2C_prefetch_miss_rate 0.522572
Core_0_L2C_writeback_access 261956
Core_0_L2C_writeback_hit 260690
Core_0_L2C_writeback_miss 1266
Core_0_L2C_writeback_MPKI 0.02532
Core_0_L2C_writeback_miss_rate 0.00483287
Core_0_L2C_prefetch_requested 17925
Core_0_L2C_prefetch_issued 17801
Core_0_L2C_prefetch_useful 5305
Core_0_L2C_prefetch_useless 3661
Core_0_L2C_prefetch_late 34
Core_0_L2C_prefetch_accuracy 0.298017
Core_0_L2C_prefetch_coverage 0.0072118
Core_0_L2C_total_eviction 786811

Core_0_LLC_total_access 872553
Core_0_LLC_total_hit 796615
Core_0_LLC_total_miss 75938
Core_0_LLC_total_MPKI 1.51876
Core_0_LLC_total_miss_rate 0.0870297
Core_0_LLC_demand_access 730260
Core_0_LLC_demand_hit 662079
Core_0_LLC_demand_miss 68181
Core_0_LLC_demand_MPKI 1.36362
Core_0_LLC_demand_miss_rate 0.0933654
Core_0_LLC_load_access 689256
Core_0_LLC_load_hit 632698
Core_0_LLC_load_miss 56558
Core_0_LLC_load_MPKI 1.13116
Core_0_LLC_load_miss_rate 0.0820566
Core_0_LLC_rfo_access 41004
Core_0_LLC_rfo_hit 29381
Core_0_LLC_rfo_miss 11623
Core_0_LLC_rfo_MPKI 0.23246
Core_0_LLC_rfo_miss_rate 0.28346
Core_0_LLC_prefetch_access 9047
Core_0_LLC_prefetch_hit 3981
Core_0_LLC_prefetch_miss 5066
Core_0_LLC_prefetch_MPKI 0.10132
Core_0_LLC_prefetch_miss_rate 0.559965
Core_0_LLC_writeback_access 133246
Core_0_LLC_writeback_hit 130555
Core_0_LLC_writeback_miss 2691
Core_0_LLC_writeback_MPKI 0.05382
Core_0_LLC_writeback_miss_rate 0.0201957
Core_0_LLC_prefetch_requested 0
Core_0_LLC_prefetch_issued 0
Core_0_LLC_prefetch_useful 0
Core_0_LLC_prefetch_useless 0
Core_0_LLC_prefetch_late 0
Core_0_LLC_prefetch_accuracy 0
Core_0_LLC_prefetch_coverage 0
Core_0_LLC_total_eviction 78220

[DRAM Statistics]
Channel_0_RQ_row_buffer_hit 3233
Channel_0_RQ_row_buffer_miss 72907
Channel_0_WQ_row_buffer_hit 11802
Channel_0_WQ_row_buffer_miss 41797
Channel_0_WQ_full 0
Channel_0_dbus_congested 409638
DRAM_total_RQ_row_buffer_hit 3233
DRAM_total_RQ_row_buffer_miss 72907
DRAM_total_WQ_row_buffer_hit 11802
DRAM_total_WQ_row_buffer_miss 41797
DRAM_total_WQ_full 0
DRAM_total_dbus_congested 409638
DRAM_avg_congested_cycle 16.2404

======STLB miss causes ========
Core_0_STLB_miss_cause_breakdown
Core_0_STLB_cause_Demand_Data_miss 52337
Core_0_STLB_cause_Demand_Data_miss_rate 0.0628226
Core_0_STLB_cause_Demand_Instruction_miss 27995
Core_0_STLB_cause_Demand_Instruction_miss_rate 0.0336037
Core_0_STLB_cause_L1D_Prefetch_miss 0
Core_0_STLB_cause_L1D_Prefetch_miss_rate 0
Core_0_STLB_cause_L1I_Prefetch_miss 0
Core_0_STLB_cause_L1I_Prefetch_miss_rate 0
Core_0_STLB_cause_Other_miss 0
Core_0_STLB_cause_Other_miss_rate 0
Core_0_STLB_Demand_miss 80332
Core_0_STLB_Demand_miss_rate 0.0964263
Core_0_STLB_L1D_Prefetch_miss 0
Core_0_STLB_L1D_Prefetch_miss_rate 0
Core_0_STLB_Other_miss 0
Core_0_STLB_Other_miss_rate 0
BERTI TO_L1: 35625 TO_L2: 34684 TO_L2_BC_MSHR: 0
BERTI AVG_LAT: 26.781 NUM_TRACK_LATENCY: 885661 NUM_CANT_TRACK_LATENCY: 0
BERTI CROSS_PAGE 8321 NO_CROSS_PAGE: 61988
BERTI FOUND_BERTI: 465038 NO_FOUND_BERTI: 14819838
BERTI AVERAGE_ISSUED: 6.06211
