[VMEM] WARNING: physical memory size is smaller than virtual memory size.

*** ChampSim Multicore Out-of-Order Simulator ***
Warmup Instructions: 20000000
Simulation Instructions: 50000000
Number of CPUs: 1
Page size: 4096
STLB ideal mode: l1pref
STLB ideal fill: on
Core 0: /data0/tzh/champsim_traces/QMM/srv_67_new.xz
VBerti Prefetcher
BERTI HASH ENTANGLING
BERTI IP MASK ffff
Off-chip DRAM Size: 16 GiB Channels: 1 Width: 64-bit Data Rate: 3205 MT/s
[BTB] WARNING: target of return is a lower address than the corresponding call. This is usually a problem with your trace.
[BTB] WARNING: target of return is a lower address than the corresponding call. This is usually a problem with your trace.
[BTB] WARNING: target of return is a lower address than the corresponding call. This is usually a problem with your trace.
[BTB] WARNING: target of return is a lower address than the corresponding call. This is usually a problem with your trace.
[BTB] WARNING: target of return is a lower address than the corresponding call. This is usually a problem with your trace.
[BTB] WARNING: target of return is a lower address than the corresponding call. This is usually a problem with your trace.
[BTB] WARNING: target of return is a lower address than the corresponding call. This is usually a problem with your trace.
[BTB] WARNING: target of return is a lower address than the corresponding call. This is usually a problem with your trace.
[BTB] WARNING: target of return is a lower address than the corresponding call. This is usually a problem with your trace.
[BTB] WARNING: target of return is a lower address than the corresponding call. This is usually a problem with your trace.
Warmup halting CPU 0 at instruction 20000004 cycle 4515997 for remainder of phase
Warmup finished CPU 0 instructions: 20000004 cycles: 4515997 cumulative IPC: 4.429 (Simulation time: 00 hr 01 min 08 sec)
Warmup complete CPU 0 instructions: 20000004 cycles: 4515997 cumulative IPC: 4.429 (Simulation time: 00 hr 01 min 08 sec)
*** Reached end of trace: (0, "/data0/tzh/champsim_traces/QMM/srv_67_new.xz")
*** Reached end of trace: (0, "/data0/tzh/champsim_traces/QMM/srv_67_new.xz")
Simulation finished CPU 0 instructions: 50000001 cycles: 27650149 cumulative IPC: 1.808 (Simulation time: 00 hr 05 min 25 sec)
Simulation complete CPU 0 instructions: 50000001 cycles: 27650149 cumulative IPC: 1.808 (Simulation time: 00 hr 05 min 25 sec)

ChampSim completed all CPUs

=== Simulation ===
CPU 0 runs /data0/tzh/champsim_traces/QMM/srv_67_new.xz

Region of Interest Statistics

CPU 0 cumulative IPC: 1.808 instructions: 50000001 cycles: 27650149
CPU 0 Branch Prediction Accuracy: 98.62% MPKI: 2.47 Average ROB Occupancy at Mispredict: 139.3
Branch type MPKI
BRANCH_DIRECT_JUMP: 0.1459
BRANCH_INDIRECT: 0.2109
BRANCH_CONDITIONAL: 1.475
BRANCH_DIRECT_CALL: 0.2678
BRANCH_INDIRECT_CALL: 0.1081
BRANCH_RETURN: 0.2629

cpu0->cpu0_STLB TOTAL        ACCESS:     818931 HIT:     737156 MISS:      81775 MSHR_MERGE:          0
cpu0->cpu0_STLB LOAD         ACCESS:     818931 HIT:     737156 MISS:      81775 MSHR_MERGE:          0
cpu0->cpu0_STLB RFO          ACCESS:          0 HIT:          0 MISS:          0 MSHR_MERGE:          0
cpu0->cpu0_STLB PREFETCH     ACCESS:          0 HIT:          0 MISS:          0 MSHR_MERGE:          0
cpu0->cpu0_STLB WRITE        ACCESS:          0 HIT:          0 MISS:          0 MSHR_MERGE:          0
cpu0->cpu0_STLB TRANSLATION  ACCESS:          0 HIT:          0 MISS:          0 MSHR_MERGE:          0
cpu0->cpu0_STLB PREFETCH REQUESTED:          0 ISSUED:          0 USEFUL:          0 USELESS:          0 LATE:          0
cpu0->cpu0_STLB AVERAGE MISS LATENCY: 40.18 cycles
cpu0->cpu0_L2C TOTAL        ACCESS:    2235502 HIT:    1471872 MISS:     763630 MSHR_MERGE:        392
cpu0->cpu0_L2C LOAD         ACCESS:    1800364 HIT:    1136423 MISS:     663941 MSHR_MERGE:         28
cpu0->cpu0_L2C RFO          ACCESS:      82125 HIT:      39281 MISS:      42844 MSHR_MERGE:          0
cpu0->cpu0_L2C PREFETCH     ACCESS:      17951 HIT:       9209 MISS:       8742 MSHR_MERGE:        364
cpu0->cpu0_L2C WRITE        ACCESS:     258185 HIT:     256759 MISS:       1426 MSHR_MERGE:          0
cpu0->cpu0_L2C TRANSLATION  ACCESS:      76877 HIT:      30200 MISS:      46677 MSHR_MERGE:          0
cpu0->cpu0_L2C PREFETCH REQUESTED:      17345 ISSUED:      17340 USEFUL:       5060 USELESS:       3299 LATE:         28
cpu0->cpu0_L2C AVERAGE MISS LATENCY: 33.55 cycles
cpu0->cpu0_L1I TOTAL        ACCESS:    7868635 HIT:    5829359 MISS:    2039276 MSHR_MERGE:     780607
cpu0->cpu0_L1I LOAD         ACCESS:    7868635 HIT:    5829359 MISS:    2039276 MSHR_MERGE:     780607
cpu0->cpu0_L1I RFO          ACCESS:          0 HIT:          0 MISS:          0 MSHR_MERGE:          0
cpu0->cpu0_L1I PREFETCH     ACCESS:          0 HIT:          0 MISS:          0 MSHR_MERGE:          0
cpu0->cpu0_L1I WRITE        ACCESS:          0 HIT:          0 MISS:          0 MSHR_MERGE:          0
cpu0->cpu0_L1I TRANSLATION  ACCESS:          0 HIT:          0 MISS:          0 MSHR_MERGE:          0
cpu0->cpu0_L1I PREFETCH REQUESTED:          0 ISSUED:          0 USEFUL:          0 USELESS:          0 LATE:          0
cpu0->cpu0_L1I AVERAGE MISS LATENCY: 13.33 cycles
cpu0->cpu0_L1D TOTAL        ACCESS:   11598678 HIT:   10556073 MISS:    1042605 MSHR_MERGE:     341283
cpu0->cpu0_L1D LOAD         ACCESS:    6416562 HIT:    5681457 MISS:     735105 MSHR_MERGE:     193404
cpu0->cpu0_L1D RFO          ACCESS:          0 HIT:          0 MISS:          0 MSHR_MERGE:          0
cpu0->cpu0_L1D PREFETCH     ACCESS:      11743 HIT:      11129 MISS:        614 MSHR_MERGE:          0
cpu0->cpu0_L1D WRITE        ACCESS:    4983595 HIT:    4755108 MISS:     228487 MSHR_MERGE:     146357
cpu0->cpu0_L1D TRANSLATION  ACCESS:     186778 HIT:     108379 MISS:      78399 MSHR_MERGE:       1522
cpu0->cpu0_L1D PREFETCH REQUESTED:      13351 ISSUED:      11743 USEFUL:         52 USELESS:          0 LATE:          0
cpu0->cpu0_L1D AVERAGE MISS LATENCY: 34.55 cycles
cpu0->cpu0_ITLB TOTAL        ACCESS:    6696992 HIT:    6202341 MISS:     494651 MSHR_MERGE:     305462
cpu0->cpu0_ITLB LOAD         ACCESS:    6696992 HIT:    6202341 MISS:     494651 MSHR_MERGE:     305462
cpu0->cpu0_ITLB RFO          ACCESS:          0 HIT:          0 MISS:          0 MSHR_MERGE:          0
cpu0->cpu0_ITLB PREFETCH     ACCESS:          0 HIT:          0 MISS:          0 MSHR_MERGE:          0
cpu0->cpu0_ITLB WRITE        ACCESS:          0 HIT:          0 MISS:          0 MSHR_MERGE:          0
cpu0->cpu0_ITLB TRANSLATION  ACCESS:          0 HIT:          0 MISS:          0 MSHR_MERGE:          0
cpu0->cpu0_ITLB PREFETCH REQUESTED:          0 ISSUED:          0 USEFUL:          0 USELESS:          0 LATE:          0
cpu0->cpu0_ITLB AVERAGE MISS LATENCY: 9.156 cycles
cpu0->cpu0_DTLB TOTAL        ACCESS:   10736609 HIT:    9881455 MISS:     855154 MSHR_MERGE:     225412
cpu0->cpu0_DTLB LOAD         ACCESS:   10736609 HIT:    9881455 MISS:     855154 MSHR_MERGE:     225412
cpu0->cpu0_DTLB RFO          ACCESS:          0 HIT:          0 MISS:          0 MSHR_MERGE:          0
cpu0->cpu0_DTLB PREFETCH     ACCESS:          0 HIT:          0 MISS:          0 MSHR_MERGE:          0
cpu0->cpu0_DTLB WRITE        ACCESS:          0 HIT:          0 MISS:          0 MSHR_MERGE:          0
cpu0->cpu0_DTLB TRANSLATION  ACCESS:          0 HIT:          0 MISS:          0 MSHR_MERGE:          0
cpu0->cpu0_DTLB PREFETCH REQUESTED:          0 ISSUED:          0 USEFUL:          0 USELESS:          0 LATE:          0
cpu0->cpu0_DTLB AVERAGE MISS LATENCY: 9.115 cycles
cpu0->LLC TOTAL        ACCESS:     899995 HIT:     817493 MISS:      82502 MSHR_MERGE:          0
cpu0->LLC LOAD         ACCESS:     663912 HIT:     604241 MISS:      59671 MSHR_MERGE:          0
cpu0->LLC RFO          ACCESS:      42844 HIT:      31116 MISS:      11728 MSHR_MERGE:          0
cpu0->LLC PREFETCH     ACCESS:       8378 HIT:       3339 MISS:       5039 MSHR_MERGE:          0
cpu0->LLC WRITE        ACCESS:     138184 HIT:     135454 MISS:       2730 MSHR_MERGE:          0
cpu0->LLC TRANSLATION  ACCESS:      46677 HIT:      43343 MISS:       3334 MSHR_MERGE:          0
cpu0->LLC PREFETCH REQUESTED:          0 ISSUED:          0 USEFUL:          0 USELESS:          0 LATE:          0
cpu0->LLC AVERAGE MISS LATENCY: 180.2 cycles

DRAM Statistics

Channel 0 RQ ROW_BUFFER_HIT:       2971
  ROW_BUFFER_MISS:      76798
  AVG DBUS CONGESTED CYCLE: 15.9
Channel 0 WQ ROW_BUFFER_HIT:      11895
  ROW_BUFFER_MISS:      41107
  FULL:          0
Channel 0 REFRESHES ISSUED:       2304

[ROI Statistics]
[System Configuration]
num_cpus 1
cpu_freq 4000
fetch_width 6
decode_width 6
dispatch_width 6
execute_width 6
lq_width 2
sq_width 2
retire_width 6
scheduler_size 128
branch_mispredict_penalty 15
rob_size 352
lq_size 128
sq_size 72
ifetch_buffer_size 64
decode_buffer_size 32
dispatch_buffer_size 32
register_file_size 288
decode_latency 1
dispatch_latency 1
schedule_latency 1
execute_latency 1
page_size 4096
block_size 64
core_0_itlb_set 16
core_0_itlb_way 4
core_0_itlb_rq_size 16
core_0_itlb_wq_size 16
core_0_itlb_pq_size 0
core_0_itlb_mshr_size 8
core_0_itlb_hit_latency 1
core_0_itlb_fill_latency 1
core_0_itlb_max_tag_check 2
core_0_itlb_max_fill 2
core_0_dtlb_set 16
core_0_dtlb_way 4
core_0_dtlb_rq_size 16
core_0_dtlb_wq_size 16
core_0_dtlb_pq_size 0
core_0_dtlb_mshr_size 8
core_0_dtlb_hit_latency 1
core_0_dtlb_fill_latency 1
core_0_dtlb_max_tag_check 2
core_0_dtlb_max_fill 2
core_0_stlb_set 128
core_0_stlb_way 12
core_0_stlb_rq_size 32
core_0_stlb_wq_size 32
core_0_stlb_pq_size 0
core_0_stlb_mshr_size 16
core_0_stlb_hit_latency 4
core_0_stlb_fill_latency 4
core_0_stlb_max_tag_check 1
core_0_stlb_max_fill 1
core_0_l1i_set 64
core_0_l1i_way 8
core_0_l1i_rq_size 64
core_0_l1i_wq_size 64
core_0_l1i_pq_size 32
core_0_l1i_mshr_size 8
core_0_l1i_hit_latency 2
core_0_l1i_fill_latency 2
core_0_l1i_max_tag_check 2
core_0_l1i_max_fill 2
core_0_l1d_set 64
core_0_l1d_way 12
core_0_l1d_rq_size 64
core_0_l1d_wq_size 64
core_0_l1d_pq_size 8
core_0_l1d_mshr_size 16
core_0_l1d_hit_latency 2
core_0_l1d_fill_latency 3
core_0_l1d_max_tag_check 2
core_0_l1d_max_fill 2
core_0_l2c_set 1024
core_0_l2c_way 8
core_0_l2c_rq_size 32
core_0_l2c_wq_size 32
core_0_l2c_pq_size 16
core_0_l2c_mshr_size 32
core_0_l2c_hit_latency 5
core_0_l2c_fill_latency 5
core_0_l2c_max_tag_check 1
core_0_l2c_max_fill 1
llc_set 2048
llc_way 16
llc_rq_size 32
llc_wq_size 32
llc_pq_size 32
llc_mshr_size 64
llc_hit_latency 10
llc_fill_latency 10
llc_max_tag_check 1
llc_max_fill 1
dram_channels 1
dram_ranks 1
dram_bankgroups 8
dram_banks 4
dram_rows 65536
dram_columns 1024
dram_channel_width 8
dram_rq_size 64
dram_wq_size 64
dram_size 17179869184
core_0_itlb_prefetcher no
core_0_dtlb_prefetcher no
core_0_stlb_prefetcher no
core_0_l1i_prefetcher next_line
core_0_l1d_prefetcher vberti
core_0_l2c_prefetcher ip_stride
llc_prefetcher no
llc_replacement drrip

Core_0_instructions 50000001
Core_0_cycles 27650149
Core_0_IPC 1.80831
Core_0_branch_prediction_accuracy 98.6198
Core_0_branch_MPKI 2.47046
Core_0_average_ROB_occupancy_at_mispredict 139.285

Core_0_ITLB_total_access 6696992
Core_0_ITLB_total_hit 6202341
Core_0_ITLB_total_miss 494651
Core_0_ITLB_total_MPKI 9.89302
Core_0_ITLB_total_miss_rate 0.0738617
Core_0_ITLB_demand_access 6696992
Core_0_ITLB_demand_hit 6202341
Core_0_ITLB_demand_miss 494651
Core_0_ITLB_demand_MPKI 9.89302
Core_0_ITLB_demand_miss_rate 0.0738617
Core_0_ITLB_load_access 6696992
Core_0_ITLB_load_hit 6202341
Core_0_ITLB_load_miss 494651
Core_0_ITLB_load_MPKI 9.89302
Core_0_ITLB_load_miss_rate 0.0738617
Core_0_ITLB_rfo_access 0
Core_0_ITLB_rfo_hit 0
Core_0_ITLB_rfo_miss 0
Core_0_ITLB_rfo_MPKI 0
Core_0_ITLB_rfo_miss_rate 0
Core_0_ITLB_prefetch_access 0
Core_0_ITLB_prefetch_hit 0
Core_0_ITLB_prefetch_miss 0
Core_0_ITLB_prefetch_MPKI 0
Core_0_ITLB_prefetch_miss_rate 0
Core_0_ITLB_writeback_access 0
Core_0_ITLB_writeback_hit 0
Core_0_ITLB_writeback_miss 0
Core_0_ITLB_writeback_MPKI 0
Core_0_ITLB_writeback_miss_rate 0
Core_0_ITLB_prefetch_requested 0
Core_0_ITLB_prefetch_issued 0
Core_0_ITLB_prefetch_useful 0
Core_0_ITLB_prefetch_useless 0
Core_0_ITLB_prefetch_late 0
Core_0_ITLB_prefetch_accuracy 0
Core_0_ITLB_prefetch_coverage 0
Core_0_ITLB_total_eviction 189189

Core_0_DTLB_total_access 10736609
Core_0_DTLB_total_hit 9881455
Core_0_DTLB_total_miss 855154
Core_0_DTLB_total_MPKI 17.1031
Core_0_DTLB_total_miss_rate 0.0796484
Core_0_DTLB_demand_access 10736609
Core_0_DTLB_demand_hit 9881455
Core_0_DTLB_demand_miss 855154
Core_0_DTLB_demand_MPKI 17.1031
Core_0_DTLB_demand_miss_rate 0.0796484
Core_0_DTLB_load_access 10736609
Core_0_DTLB_load_hit 9881455
Core_0_DTLB_load_miss 855154
Core_0_DTLB_load_MPKI 17.1031
Core_0_DTLB_load_miss_rate 0.0796484
Core_0_DTLB_rfo_access 0
Core_0_DTLB_rfo_hit 0
Core_0_DTLB_rfo_miss 0
Core_0_DTLB_rfo_MPKI 0
Core_0_DTLB_rfo_miss_rate 0
Core_0_DTLB_prefetch_access 0
Core_0_DTLB_prefetch_hit 0
Core_0_DTLB_prefetch_miss 0
Core_0_DTLB_prefetch_MPKI 0
Core_0_DTLB_prefetch_miss_rate 0
Core_0_DTLB_writeback_access 0
Core_0_DTLB_writeback_hit 0
Core_0_DTLB_writeback_miss 0
Core_0_DTLB_writeback_MPKI 0
Core_0_DTLB_writeback_miss_rate 0
Core_0_DTLB_prefetch_requested 0
Core_0_DTLB_prefetch_issued 0
Core_0_DTLB_prefetch_useful 0
Core_0_DTLB_prefetch_useless 0
Core_0_DTLB_prefetch_late 0
Core_0_DTLB_prefetch_accuracy 0
Core_0_DTLB_prefetch_coverage 0
Core_0_DTLB_total_eviction 629742

Core_0_STLB_total_access 818931
Core_0_STLB_total_hit 737156
Core_0_STLB_total_miss 81775
Core_0_STLB_total_MPKI 1.6355
Core_0_STLB_total_miss_rate 0.0998558
Core_0_STLB_demand_access 818931
Core_0_STLB_demand_hit 737156
Core_0_STLB_demand_miss 81775
Core_0_STLB_demand_MPKI 1.6355
Core_0_STLB_demand_miss_rate 0.0998558
Core_0_STLB_load_access 818931
Core_0_STLB_load_hit 737156
Core_0_STLB_load_miss 81775
Core_0_STLB_load_MPKI 1.6355
Core_0_STLB_load_miss_rate 0.0998558
Core_0_STLB_rfo_access 0
Core_0_STLB_rfo_hit 0
Core_0_STLB_rfo_miss 0
Core_0_STLB_rfo_MPKI 0
Core_0_STLB_rfo_miss_rate 0
Core_0_STLB_prefetch_access 0
Core_0_STLB_prefetch_hit 0
Core_0_STLB_prefetch_miss 0
Core_0_STLB_prefetch_MPKI 0
Core_0_STLB_prefetch_miss_rate 0
Core_0_STLB_writeback_access 0
Core_0_STLB_writeback_hit 0
Core_0_STLB_writeback_miss 0
Core_0_STLB_writeback_MPKI 0
Core_0_STLB_writeback_miss_rate 0
Core_0_STLB_prefetch_requested 0
Core_0_STLB_prefetch_issued 0
Core_0_STLB_prefetch_useful 0
Core_0_STLB_prefetch_useless 0
Core_0_STLB_prefetch_late 0
Core_0_STLB_prefetch_accuracy 0
Core_0_STLB_prefetch_coverage 0
Core_0_STLB_total_eviction 81775

Core_0_L1I_total_access 7868635
Core_0_L1I_total_hit 5829359
Core_0_L1I_total_miss 2039276
Core_0_L1I_total_MPKI 40.7855
Core_0_L1I_total_miss_rate 0.259165
Core_0_L1I_demand_access 7868635
Core_0_L1I_demand_hit 5829359
Core_0_L1I_demand_miss 2039276
Core_0_L1I_demand_MPKI 40.7855
Core_0_L1I_demand_miss_rate 0.259165
Core_0_L1I_load_access 7868635
Core_0_L1I_load_hit 5829359
Core_0_L1I_load_miss 2039276
Core_0_L1I_load_MPKI 40.7855
Core_0_L1I_load_miss_rate 0.259165
Core_0_L1I_rfo_access 0
Core_0_L1I_rfo_hit 0
Core_0_L1I_rfo_miss 0
Core_0_L1I_rfo_MPKI 0
Core_0_L1I_rfo_miss_rate 0
Core_0_L1I_prefetch_access 0
Core_0_L1I_prefetch_hit 0
Core_0_L1I_prefetch_miss 0
Core_0_L1I_prefetch_MPKI 0
Core_0_L1I_prefetch_miss_rate 0
Core_0_L1I_writeback_access 0
Core_0_L1I_writeback_hit 0
Core_0_L1I_writeback_miss 0
Core_0_L1I_writeback_MPKI 0
Core_0_L1I_writeback_miss_rate 0
Core_0_L1I_prefetch_requested 0
Core_0_L1I_prefetch_issued 0
Core_0_L1I_prefetch_useful 0
Core_0_L1I_prefetch_useless 0
Core_0_L1I_prefetch_late 0
Core_0_L1I_prefetch_accuracy 0
Core_0_L1I_prefetch_coverage 0
Core_0_L1I_total_eviction 1258669

Core_0_L1D_total_access 11411900
Core_0_L1D_total_hit 10447694
Core_0_L1D_total_miss 964206
Core_0_L1D_total_MPKI 19.2841
Core_0_L1D_total_miss_rate 0.0844913
Core_0_L1D_demand_access 6416562
Core_0_L1D_demand_hit 5681457
Core_0_L1D_demand_miss 735105
Core_0_L1D_demand_MPKI 14.7021
Core_0_L1D_demand_miss_rate 0.114564
Core_0_L1D_load_access 6416562
Core_0_L1D_load_hit 5681457
Core_0_L1D_load_miss 735105
Core_0_L1D_load_MPKI 14.7021
Core_0_L1D_load_miss_rate 0.114564
Core_0_L1D_rfo_access 0
Core_0_L1D_rfo_hit 0
Core_0_L1D_rfo_miss 0
Core_0_L1D_rfo_MPKI 0
Core_0_L1D_rfo_miss_rate 0
Core_0_L1D_prefetch_access 11743
Core_0_L1D_prefetch_hit 11129
Core_0_L1D_prefetch_miss 614
Core_0_L1D_prefetch_MPKI 0.01228
Core_0_L1D_prefetch_miss_rate 0.0522865
Core_0_L1D_writeback_access 4983595
Core_0_L1D_writeback_hit 4755108
Core_0_L1D_writeback_miss 228487
Core_0_L1D_writeback_MPKI 4.56974
Core_0_L1D_writeback_miss_rate 0.0458478
Core_0_L1D_prefetch_requested 13351
Core_0_L1D_prefetch_issued 11743
Core_0_L1D_prefetch_useful 52
Core_0_L1D_prefetch_useless 0
Core_0_L1D_prefetch_late 0
Core_0_L1D_prefetch_accuracy 0.00442817
Core_0_L1D_prefetch_coverage 7.07332e-05
Core_0_L1D_total_eviction 700759

Core_0_L2C_total_access 2158625
Core_0_L2C_total_hit 1441672
Core_0_L2C_total_miss 716953
Core_0_L2C_total_MPKI 14.3391
Core_0_L2C_total_miss_rate 0.332134
Core_0_L2C_demand_access 1882489
Core_0_L2C_demand_hit 1175704
Core_0_L2C_demand_miss 706785
Core_0_L2C_demand_MPKI 14.1357
Core_0_L2C_demand_miss_rate 0.375452
Core_0_L2C_load_access 1800364
Core_0_L2C_load_hit 1136423
Core_0_L2C_load_miss 663941
Core_0_L2C_load_MPKI 13.2788
Core_0_L2C_load_miss_rate 0.368782
Core_0_L2C_rfo_access 82125
Core_0_L2C_rfo_hit 39281
Core_0_L2C_rfo_miss 42844
Core_0_L2C_rfo_MPKI 0.85688
Core_0_L2C_rfo_miss_rate 0.521693
Core_0_L2C_prefetch_access 17951
Core_0_L2C_prefetch_hit 9209
Core_0_L2C_prefetch_miss 8742
Core_0_L2C_prefetch_MPKI 0.17484
Core_0_L2C_prefetch_miss_rate 0.486992
Core_0_L2C_writeback_access 258185
Core_0_L2C_writeback_hit 256759
Core_0_L2C_writeback_miss 1426
Core_0_L2C_writeback_MPKI 0.02852
Core_0_L2C_writeback_miss_rate 0.00552317
Core_0_L2C_prefetch_requested 17345
Core_0_L2C_prefetch_issued 17340
Core_0_L2C_prefetch_useful 5060
Core_0_L2C_prefetch_useless 3299
Core_0_L2C_prefetch_late 28
Core_0_L2C_prefetch_accuracy 0.291811
Core_0_L2C_prefetch_coverage 0.00710829
Core_0_L2C_total_eviction 763237

Core_0_LLC_total_access 853318
Core_0_LLC_total_hit 774150
Core_0_LLC_total_miss 79168
Core_0_LLC_total_MPKI 1.58336
Core_0_LLC_total_miss_rate 0.0927767
Core_0_LLC_demand_access 706756
Core_0_LLC_demand_hit 635357
Core_0_LLC_demand_miss 71399
Core_0_LLC_demand_MPKI 1.42798
Core_0_LLC_demand_miss_rate 0.101024
Core_0_LLC_load_access 663912
Core_0_LLC_load_hit 604241
Core_0_LLC_load_miss 59671
Core_0_LLC_load_MPKI 1.19342
Core_0_LLC_load_miss_rate 0.0898779
Core_0_LLC_rfo_access 42844
Core_0_LLC_rfo_hit 31116
Core_0_LLC_rfo_miss 11728
Core_0_LLC_rfo_MPKI 0.23456
Core_0_LLC_rfo_miss_rate 0.273737
Core_0_LLC_prefetch_access 8378
Core_0_LLC_prefetch_hit 3339
Core_0_LLC_prefetch_miss 5039
Core_0_LLC_prefetch_MPKI 0.10078
Core_0_LLC_prefetch_miss_rate 0.601456
Core_0_LLC_writeback_access 138184
Core_0_LLC_writeback_hit 135454
Core_0_LLC_writeback_miss 2730
Core_0_LLC_writeback_MPKI 0.0546
Core_0_LLC_writeback_miss_rate 0.0197563
Core_0_LLC_prefetch_requested 0
Core_0_LLC_prefetch_issued 0
Core_0_LLC_prefetch_useful 0
Core_0_LLC_prefetch_useless 0
Core_0_LLC_prefetch_late 0
Core_0_LLC_prefetch_accuracy 0
Core_0_LLC_prefetch_coverage 0
Core_0_LLC_total_eviction 82388

[DRAM Statistics]
Channel_0_RQ_row_buffer_hit 2971
Channel_0_RQ_row_buffer_miss 76798
Channel_0_WQ_row_buffer_hit 11895
Channel_0_WQ_row_buffer_miss 41107
Channel_0_WQ_full 0
Channel_0_dbus_congested 416477
DRAM_total_RQ_row_buffer_hit 2971
DRAM_total_RQ_row_buffer_miss 76798
DRAM_total_WQ_row_buffer_hit 11895
DRAM_total_WQ_row_buffer_miss 41107
DRAM_total_WQ_full 0
DRAM_total_dbus_congested 416477
DRAM_avg_congested_cycle 15.8986

======STLB miss causes ========
Core_0_STLB_miss_cause_breakdown
Core_0_STLB_cause_Demand_Data_miss 52315
Core_0_STLB_cause_Demand_Data_miss_rate 0.0638821
Core_0_STLB_cause_Demand_Instruction_miss 29460
Core_0_STLB_cause_Demand_Instruction_miss_rate 0.0359737
Core_0_STLB_cause_L1D_Prefetch_miss 0
Core_0_STLB_cause_L1D_Prefetch_miss_rate 0
Core_0_STLB_cause_L1I_Prefetch_miss 0
Core_0_STLB_cause_L1I_Prefetch_miss_rate 0
Core_0_STLB_cause_Other_miss 0
Core_0_STLB_cause_Other_miss_rate 0
Core_0_STLB_Demand_miss 81775
Core_0_STLB_Demand_miss_rate 0.0998558
Core_0_STLB_L1D_Prefetch_miss 0
Core_0_STLB_L1D_Prefetch_miss_rate 0
Core_0_STLB_Other_miss 0
Core_0_STLB_Other_miss_rate 0
BERTI TO_L1: 40625 TO_L2: 33934 TO_L2_BC_MSHR: 0
BERTI AVG_LAT: 27.188 NUM_TRACK_LATENCY: 871187 NUM_CANT_TRACK_LATENCY: 0
BERTI CROSS_PAGE 10527 NO_CROSS_PAGE: 64032
BERTI FOUND_BERTI: 456266 NO_FOUND_BERTI: 14853079
BERTI AVERAGE_ISSUED: 5.74505
