[VMEM] WARNING: physical memory size is smaller than virtual memory size.

*** ChampSim Multicore Out-of-Order Simulator ***
Warmup Instructions: 20000000
Simulation Instructions: 50000000
Number of CPUs: 1
Page size: 4096
STLB ideal mode: l1pref
STLB ideal fill: on
Core 0: /data2/zcq/champsim_traces_xsbench/xs.XXL100nuclide-648B.champsimtrace.xz
VBerti Prefetcher
BERTI HASH ENTANGLING
BERTI IP MASK ffff
Off-chip DRAM Size: 16 GiB Channels: 1 Width: 64-bit Data Rate: 3205 MT/s
Warmup halting CPU 0 at instruction 20000001 cycle 16240080 for remainder of phase
Warmup finished CPU 0 instructions: 20000001 cycles: 16240080 cumulative IPC: 1.232 (Simulation time: 00 hr 02 min 34 sec)
Warmup complete CPU 0 instructions: 20000001 cycles: 16240080 cumulative IPC: 1.232 (Simulation time: 00 hr 02 min 34 sec)
Simulation finished CPU 0 instructions: 50000000 cycles: 359805641 cumulative IPC: 0.139 (Simulation time: 00 hr 23 min 17 sec)
Simulation complete CPU 0 instructions: 50000000 cycles: 359805641 cumulative IPC: 0.139 (Simulation time: 00 hr 23 min 17 sec)

ChampSim completed all CPUs

=== Simulation ===
CPU 0 runs /data2/zcq/champsim_traces_xsbench/xs.XXL100nuclide-648B.champsimtrace.xz

Region of Interest Statistics

CPU 0 cumulative IPC: 0.139 instructions: 50000000 cycles: 359805641
CPU 0 Branch Prediction Accuracy: 87.26% MPKI: 21.54 Average ROB Occupancy at Mispredict: 25.65
Branch type MPKI
BRANCH_DIRECT_JUMP: 0
BRANCH_INDIRECT: 0
BRANCH_CONDITIONAL: 21.54
BRANCH_DIRECT_CALL: 0
BRANCH_INDIRECT_CALL: 0
BRANCH_RETURN: 0

cpu0->cpu0_STLB TOTAL        ACCESS:    1993691 HIT:      63605 MISS:    1930086 MSHR_MERGE:          0
cpu0->cpu0_STLB LOAD         ACCESS:    1993691 HIT:      63605 MISS:    1930086 MSHR_MERGE:          0
cpu0->cpu0_STLB RFO          ACCESS:          0 HIT:          0 MISS:          0 MSHR_MERGE:          0
cpu0->cpu0_STLB PREFETCH     ACCESS:          0 HIT:          0 MISS:          0 MSHR_MERGE:          0
cpu0->cpu0_STLB WRITE        ACCESS:          0 HIT:          0 MISS:          0 MSHR_MERGE:          0
cpu0->cpu0_STLB TRANSLATION  ACCESS:          0 HIT:          0 MISS:          0 MSHR_MERGE:          0
cpu0->cpu0_STLB PREFETCH REQUESTED:          0 ISSUED:          0 USEFUL:          0 USELESS:          0 LATE:          0
cpu0->cpu0_STLB AVERAGE MISS LATENCY: 196 cycles
cpu0->cpu0_L2C TOTAL        ACCESS:    5287656 HIT:     716871 MISS:    4570785 MSHR_MERGE:       4237
cpu0->cpu0_L2C LOAD         ACCESS:    2990520 HIT:     100683 MISS:    2889837 MSHR_MERGE:          0
cpu0->cpu0_L2C RFO          ACCESS:      11092 HIT:      10804 MISS:        288 MSHR_MERGE:          0
cpu0->cpu0_L2C PREFETCH     ACCESS:     612335 HIT:     497826 MISS:     114509 MSHR_MERGE:       4237
cpu0->cpu0_L2C WRITE        ACCESS:      13158 HIT:      13132 MISS:         26 MSHR_MERGE:          0
cpu0->cpu0_L2C TRANSLATION  ACCESS:    1660551 HIT:      94426 MISS:    1566125 MSHR_MERGE:          0
cpu0->cpu0_L2C PREFETCH REQUESTED:     158976 ISSUED:     158976 USEFUL:       6532 USELESS:      67499 LATE:          0
cpu0->cpu0_L2C AVERAGE MISS LATENCY: 152.3 cycles
cpu0->cpu0_L1I TOTAL        ACCESS:      10735 HIT:      10735 MISS:          0 MSHR_MERGE:          0
cpu0->cpu0_L1I LOAD         ACCESS:      10735 HIT:      10735 MISS:          0 MSHR_MERGE:          0
cpu0->cpu0_L1I RFO          ACCESS:          0 HIT:          0 MISS:          0 MSHR_MERGE:          0
cpu0->cpu0_L1I PREFETCH     ACCESS:          0 HIT:          0 MISS:          0 MSHR_MERGE:          0
cpu0->cpu0_L1I WRITE        ACCESS:          0 HIT:          0 MISS:          0 MSHR_MERGE:          0
cpu0->cpu0_L1I TRANSLATION  ACCESS:          0 HIT:          0 MISS:          0 MSHR_MERGE:          0
cpu0->cpu0_L1I PREFETCH REQUESTED:          0 ISSUED:          0 USEFUL:          0 USELESS:          0 LATE:          0
cpu0->cpu0_L1I AVERAGE MISS LATENCY: - cycles
cpu0->cpu0_L1D TOTAL        ACCESS:   10957835 HIT:    4874520 MISS:    6083315 MSHR_MERGE:     967785
cpu0->cpu0_L1D LOAD         ACCESS:    4782051 HIT:    1741686 MISS:    3040365 MSHR_MERGE:      49845
cpu0->cpu0_L1D RFO          ACCESS:          0 HIT:          0 MISS:          0 MSHR_MERGE:          0
cpu0->cpu0_L1D PREFETCH     ACCESS:    1040152 HIT:     586793 MISS:     453359 MSHR_MERGE:          0
cpu0->cpu0_L1D WRITE        ACCESS:     903649 HIT:     875334 MISS:      28315 MSHR_MERGE:      17215
cpu0->cpu0_L1D TRANSLATION  ACCESS:    4231983 HIT:    1670707 MISS:    2561276 MSHR_MERGE:     900725
cpu0->cpu0_L1D PREFETCH REQUESTED:    1197907 ISSUED:    1040152 USEFUL:      17555 USELESS:      22612 LATE:          0
cpu0->cpu0_L1D AVERAGE MISS LATENCY: 154.7 cycles
cpu0->cpu0_ITLB TOTAL        ACCESS:       8672 HIT:       8672 MISS:          0 MSHR_MERGE:          0
cpu0->cpu0_ITLB LOAD         ACCESS:       8672 HIT:       8672 MISS:          0 MSHR_MERGE:          0
cpu0->cpu0_ITLB RFO          ACCESS:          0 HIT:          0 MISS:          0 MSHR_MERGE:          0
cpu0->cpu0_ITLB PREFETCH     ACCESS:          0 HIT:          0 MISS:          0 MSHR_MERGE:          0
cpu0->cpu0_ITLB WRITE        ACCESS:          0 HIT:          0 MISS:          0 MSHR_MERGE:          0
cpu0->cpu0_ITLB TRANSLATION  ACCESS:          0 HIT:          0 MISS:          0 MSHR_MERGE:          0
cpu0->cpu0_ITLB PREFETCH REQUESTED:          0 ISSUED:          0 USEFUL:          0 USELESS:          0 LATE:          0
cpu0->cpu0_ITLB AVERAGE MISS LATENCY: - cycles
cpu0->cpu0_DTLB TOTAL        ACCESS:    6404359 HIT:    4309492 MISS:    2094867 MSHR_MERGE:     101176
cpu0->cpu0_DTLB LOAD         ACCESS:    6404359 HIT:    4309492 MISS:    2094867 MSHR_MERGE:     101176
cpu0->cpu0_DTLB RFO          ACCESS:          0 HIT:          0 MISS:          0 MSHR_MERGE:          0
cpu0->cpu0_DTLB PREFETCH     ACCESS:          0 HIT:          0 MISS:          0 MSHR_MERGE:          0
cpu0->cpu0_DTLB WRITE        ACCESS:          0 HIT:          0 MISS:          0 MSHR_MERGE:          0
cpu0->cpu0_DTLB TRANSLATION  ACCESS:          0 HIT:          0 MISS:          0 MSHR_MERGE:          0
cpu0->cpu0_DTLB PREFETCH REQUESTED:          0 ISSUED:          0 USEFUL:          0 USELESS:          0 LATE:          0
cpu0->cpu0_DTLB AVERAGE MISS LATENCY: 195.7 cycles
cpu0->LLC TOTAL        ACCESS:    4567738 HIT:    1477906 MISS:    3089832 MSHR_MERGE:          0
cpu0->LLC LOAD         ACCESS:    2889837 HIT:     636571 MISS:    2253266 MSHR_MERGE:          0
cpu0->LLC RFO          ACCESS:        288 HIT:        287 MISS:          1 MSHR_MERGE:          0
cpu0->LLC PREFETCH     ACCESS:     110272 HIT:      41404 MISS:      68868 MSHR_MERGE:          0
cpu0->LLC WRITE        ACCESS:       1216 HIT:       1201 MISS:         15 MSHR_MERGE:          0
cpu0->LLC TRANSLATION  ACCESS:    1566125 HIT:     798443 MISS:     767682 MSHR_MERGE:          0
cpu0->LLC PREFETCH REQUESTED:          0 ISSUED:          0 USEFUL:          0 USELESS:          0 LATE:          0
cpu0->LLC AVERAGE MISS LATENCY: 201.6 cycles

DRAM Statistics

Channel 0 RQ ROW_BUFFER_HIT:      15649
  ROW_BUFFER_MISS:    3074168
  AVG DBUS CONGESTED CYCLE: 2.938
Channel 0 WQ ROW_BUFFER_HIT:          5
  ROW_BUFFER_MISS:         11
  FULL:          0
Channel 0 REFRESHES ISSUED:      29984

[ROI Statistics]
[System Configuration]
num_cpus 1
cpu_freq 4000
fetch_width 6
decode_width 6
dispatch_width 6
execute_width 6
lq_width 2
sq_width 2
retire_width 6
scheduler_size 128
branch_mispredict_penalty 15
rob_size 352
lq_size 128
sq_size 72
ifetch_buffer_size 64
decode_buffer_size 32
dispatch_buffer_size 32
register_file_size 288
decode_latency 1
dispatch_latency 1
schedule_latency 1
execute_latency 1
page_size 4096
block_size 64
core_0_itlb_set 16
core_0_itlb_way 4
core_0_itlb_rq_size 16
core_0_itlb_wq_size 16
core_0_itlb_pq_size 0
core_0_itlb_mshr_size 8
core_0_itlb_hit_latency 1
core_0_itlb_fill_latency 1
core_0_itlb_max_tag_check 2
core_0_itlb_max_fill 2
core_0_dtlb_set 16
core_0_dtlb_way 4
core_0_dtlb_rq_size 16
core_0_dtlb_wq_size 16
core_0_dtlb_pq_size 0
core_0_dtlb_mshr_size 8
core_0_dtlb_hit_latency 1
core_0_dtlb_fill_latency 1
core_0_dtlb_max_tag_check 2
core_0_dtlb_max_fill 2
core_0_stlb_set 128
core_0_stlb_way 12
core_0_stlb_rq_size 32
core_0_stlb_wq_size 32
core_0_stlb_pq_size 0
core_0_stlb_mshr_size 16
core_0_stlb_hit_latency 4
core_0_stlb_fill_latency 4
core_0_stlb_max_tag_check 1
core_0_stlb_max_fill 1
core_0_l1i_set 64
core_0_l1i_way 8
core_0_l1i_rq_size 64
core_0_l1i_wq_size 64
core_0_l1i_pq_size 32
core_0_l1i_mshr_size 8
core_0_l1i_hit_latency 2
core_0_l1i_fill_latency 2
core_0_l1i_max_tag_check 2
core_0_l1i_max_fill 2
core_0_l1d_set 64
core_0_l1d_way 12
core_0_l1d_rq_size 64
core_0_l1d_wq_size 64
core_0_l1d_pq_size 8
core_0_l1d_mshr_size 16
core_0_l1d_hit_latency 2
core_0_l1d_fill_latency 3
core_0_l1d_max_tag_check 2
core_0_l1d_max_fill 2
core_0_l2c_set 1024
core_0_l2c_way 8
core_0_l2c_rq_size 32
core_0_l2c_wq_size 32
core_0_l2c_pq_size 16
core_0_l2c_mshr_size 32
core_0_l2c_hit_latency 5
core_0_l2c_fill_latency 5
core_0_l2c_max_tag_check 1
core_0_l2c_max_fill 1
llc_set 2048
llc_way 16
llc_rq_size 32
llc_wq_size 32
llc_pq_size 32
llc_mshr_size 64
llc_hit_latency 10
llc_fill_latency 10
llc_max_tag_check 1
llc_max_fill 1
dram_channels 1
dram_ranks 1
dram_bankgroups 8
dram_banks 4
dram_rows 65536
dram_columns 1024
dram_channel_width 8
dram_rq_size 64
dram_wq_size 64
dram_size 17179869184
core_0_itlb_prefetcher no
core_0_dtlb_prefetcher no
core_0_stlb_prefetcher no
core_0_l1i_prefetcher next_line
core_0_l1d_prefetcher vberti
core_0_l2c_prefetcher ip_stride
llc_prefetcher no
llc_replacement drrip

Core_0_instructions 50000000
Core_0_cycles 359805641
Core_0_IPC 0.138964
Core_0_branch_prediction_accuracy 87.2577
Core_0_branch_MPKI 21.5401
Core_0_average_ROB_occupancy_at_mispredict 25.6515

Core_0_ITLB_total_access 8672
Core_0_ITLB_total_hit 8672
Core_0_ITLB_total_miss 0
Core_0_ITLB_total_MPKI 0
Core_0_ITLB_total_miss_rate 0
Core_0_ITLB_demand_access 8672
Core_0_ITLB_demand_hit 8672
Core_0_ITLB_demand_miss 0
Core_0_ITLB_demand_MPKI 0
Core_0_ITLB_demand_miss_rate 0
Core_0_ITLB_load_access 8672
Core_0_ITLB_load_hit 8672
Core_0_ITLB_load_miss 0
Core_0_ITLB_load_MPKI 0
Core_0_ITLB_load_miss_rate 0
Core_0_ITLB_rfo_access 0
Core_0_ITLB_rfo_hit 0
Core_0_ITLB_rfo_miss 0
Core_0_ITLB_rfo_MPKI 0
Core_0_ITLB_rfo_miss_rate 0
Core_0_ITLB_prefetch_access 0
Core_0_ITLB_prefetch_hit 0
Core_0_ITLB_prefetch_miss 0
Core_0_ITLB_prefetch_MPKI 0
Core_0_ITLB_prefetch_miss_rate 0
Core_0_ITLB_writeback_access 0
Core_0_ITLB_writeback_hit 0
Core_0_ITLB_writeback_miss 0
Core_0_ITLB_writeback_MPKI 0
Core_0_ITLB_writeback_miss_rate 0
Core_0_ITLB_prefetch_requested 0
Core_0_ITLB_prefetch_issued 0
Core_0_ITLB_prefetch_useful 0
Core_0_ITLB_prefetch_useless 0
Core_0_ITLB_prefetch_late 0
Core_0_ITLB_prefetch_accuracy 0
Core_0_ITLB_prefetch_coverage 0
Core_0_ITLB_total_eviction 0

Core_0_DTLB_total_access 6404359
Core_0_DTLB_total_hit 4309492
Core_0_DTLB_total_miss 2094867
Core_0_DTLB_total_MPKI 41.8973
Core_0_DTLB_total_miss_rate 0.3271
Core_0_DTLB_demand_access 6404359
Core_0_DTLB_demand_hit 4309492
Core_0_DTLB_demand_miss 2094867
Core_0_DTLB_demand_MPKI 41.8973
Core_0_DTLB_demand_miss_rate 0.3271
Core_0_DTLB_load_access 6404359
Core_0_DTLB_load_hit 4309492
Core_0_DTLB_load_miss 2094867
Core_0_DTLB_load_MPKI 41.8973
Core_0_DTLB_load_miss_rate 0.3271
Core_0_DTLB_rfo_access 0
Core_0_DTLB_rfo_hit 0
Core_0_DTLB_rfo_miss 0
Core_0_DTLB_rfo_MPKI 0
Core_0_DTLB_rfo_miss_rate 0
Core_0_DTLB_prefetch_access 0
Core_0_DTLB_prefetch_hit 0
Core_0_DTLB_prefetch_miss 0
Core_0_DTLB_prefetch_MPKI 0
Core_0_DTLB_prefetch_miss_rate 0
Core_0_DTLB_writeback_access 0
Core_0_DTLB_writeback_hit 0
Core_0_DTLB_writeback_miss 0
Core_0_DTLB_writeback_MPKI 0
Core_0_DTLB_writeback_miss_rate 0
Core_0_DTLB_prefetch_requested 0
Core_0_DTLB_prefetch_issued 0
Core_0_DTLB_prefetch_useful 0
Core_0_DTLB_prefetch_useless 0
Core_0_DTLB_prefetch_late 0
Core_0_DTLB_prefetch_accuracy 0
Core_0_DTLB_prefetch_coverage 0
Core_0_DTLB_total_eviction 1993695

Core_0_STLB_total_access 1993691
Core_0_STLB_total_hit 63605
Core_0_STLB_total_miss 1930086
Core_0_STLB_total_MPKI 38.6017
Core_0_STLB_total_miss_rate 0.968097
Core_0_STLB_demand_access 1993691
Core_0_STLB_demand_hit 63605
Core_0_STLB_demand_miss 1930086
Core_0_STLB_demand_MPKI 38.6017
Core_0_STLB_demand_miss_rate 0.968097
Core_0_STLB_load_access 1993691
Core_0_STLB_load_hit 63605
Core_0_STLB_load_miss 1930086
Core_0_STLB_load_MPKI 38.6017
Core_0_STLB_load_miss_rate 0.968097
Core_0_STLB_rfo_access 0
Core_0_STLB_rfo_hit 0
Core_0_STLB_rfo_miss 0
Core_0_STLB_rfo_MPKI 0
Core_0_STLB_rfo_miss_rate 0
Core_0_STLB_prefetch_access 0
Core_0_STLB_prefetch_hit 0
Core_0_STLB_prefetch_miss 0
Core_0_STLB_prefetch_MPKI 0
Core_0_STLB_prefetch_miss_rate 0
Core_0_STLB_writeback_access 0
Core_0_STLB_writeback_hit 0
Core_0_STLB_writeback_miss 0
Core_0_STLB_writeback_MPKI 0
Core_0_STLB_writeback_miss_rate 0
Core_0_STLB_prefetch_requested 0
Core_0_STLB_prefetch_issued 0
Core_0_STLB_prefetch_useful 0
Core_0_STLB_prefetch_useless 0
Core_0_STLB_prefetch_late 0
Core_0_STLB_prefetch_accuracy 0
Core_0_STLB_prefetch_coverage 0
Core_0_STLB_total_eviction 1930962

Core_0_L1I_total_access 10735
Core_0_L1I_total_hit 10735
Core_0_L1I_total_miss 0
Core_0_L1I_total_MPKI 0
Core_0_L1I_total_miss_rate 0
Core_0_L1I_demand_access 10735
Core_0_L1I_demand_hit 10735
Core_0_L1I_demand_miss 0
Core_0_L1I_demand_MPKI 0
Core_0_L1I_demand_miss_rate 0
Core_0_L1I_load_access 10735
Core_0_L1I_load_hit 10735
Core_0_L1I_load_miss 0
Core_0_L1I_load_MPKI 0
Core_0_L1I_load_miss_rate 0
Core_0_L1I_rfo_access 0
Core_0_L1I_rfo_hit 0
Core_0_L1I_rfo_miss 0
Core_0_L1I_rfo_MPKI 0
Core_0_L1I_rfo_miss_rate 0
Core_0_L1I_prefetch_access 0
Core_0_L1I_prefetch_hit 0
Core_0_L1I_prefetch_miss 0
Core_0_L1I_prefetch_MPKI 0
Core_0_L1I_prefetch_miss_rate 0
Core_0_L1I_writeback_access 0
Core_0_L1I_writeback_hit 0
Core_0_L1I_writeback_miss 0
Core_0_L1I_writeback_MPKI 0
Core_0_L1I_writeback_miss_rate 0
Core_0_L1I_prefetch_requested 0
Core_0_L1I_prefetch_issued 0
Core_0_L1I_prefetch_useful 0
Core_0_L1I_prefetch_useless 0
Core_0_L1I_prefetch_late 0
Core_0_L1I_prefetch_accuracy 0
Core_0_L1I_prefetch_coverage 0
Core_0_L1I_total_eviction 0

Core_0_L1D_total_access 6725852
Core_0_L1D_total_hit 3203813
Core_0_L1D_total_miss 3522039
Core_0_L1D_total_MPKI 70.4408
Core_0_L1D_total_miss_rate 0.523657
Core_0_L1D_demand_access 4782051
Core_0_L1D_demand_hit 1741686
Core_0_L1D_demand_miss 3040365
Core_0_L1D_demand_MPKI 60.8073
Core_0_L1D_demand_miss_rate 0.635787
Core_0_L1D_load_access 4782051
Core_0_L1D_load_hit 1741686
Core_0_L1D_load_miss 3040365
Core_0_L1D_load_MPKI 60.8073
Core_0_L1D_load_miss_rate 0.635787
Core_0_L1D_rfo_access 0
Core_0_L1D_rfo_hit 0
Core_0_L1D_rfo_miss 0
Core_0_L1D_rfo_MPKI 0
Core_0_L1D_rfo_miss_rate 0
Core_0_L1D_prefetch_access 1040152
Core_0_L1D_prefetch_hit 586793
Core_0_L1D_prefetch_miss 453359
Core_0_L1D_prefetch_MPKI 9.06718
Core_0_L1D_prefetch_miss_rate 0.435858
Core_0_L1D_writeback_access 903649
Core_0_L1D_writeback_hit 875334
Core_0_L1D_writeback_miss 28315
Core_0_L1D_writeback_MPKI 0.5663
Core_0_L1D_writeback_miss_rate 0.0313341
Core_0_L1D_prefetch_requested 1197907
Core_0_L1D_prefetch_issued 1040152
Core_0_L1D_prefetch_useful 17555
Core_0_L1D_prefetch_useless 22612
Core_0_L1D_prefetch_late 0
Core_0_L1D_prefetch_accuracy 0.0168773
Core_0_L1D_prefetch_coverage 0.00574083
Core_0_L1D_total_eviction 4702345

Core_0_L2C_total_access 3627105
Core_0_L2C_total_hit 622445
Core_0_L2C_total_miss 3004660
Core_0_L2C_total_MPKI 60.0932
Core_0_L2C_total_miss_rate 0.828391
Core_0_L2C_demand_access 3001612
Core_0_L2C_demand_hit 111487
Core_0_L2C_demand_miss 2890125
Core_0_L2C_demand_MPKI 57.8025
Core_0_L2C_demand_miss_rate 0.962858
Core_0_L2C_load_access 2990520
Core_0_L2C_load_hit 100683
Core_0_L2C_load_miss 2889837
Core_0_L2C_load_MPKI 57.7967
Core_0_L2C_load_miss_rate 0.966333
Core_0_L2C_rfo_access 11092
Core_0_L2C_rfo_hit 10804
Core_0_L2C_rfo_miss 288
Core_0_L2C_rfo_MPKI 0.00576
Core_0_L2C_rfo_miss_rate 0.0259647
Core_0_L2C_prefetch_access 612335
Core_0_L2C_prefetch_hit 497826
Core_0_L2C_prefetch_miss 114509
Core_0_L2C_prefetch_MPKI 2.29018
Core_0_L2C_prefetch_miss_rate 0.187004
Core_0_L2C_writeback_access 13158
Core_0_L2C_writeback_hit 13132
Core_0_L2C_writeback_miss 26
Core_0_L2C_writeback_MPKI 0.00052
Core_0_L2C_writeback_miss_rate 0.00197598
Core_0_L2C_prefetch_requested 158976
Core_0_L2C_prefetch_issued 158976
Core_0_L2C_prefetch_useful 6532
Core_0_L2C_prefetch_useless 67499
Core_0_L2C_prefetch_late 0
Core_0_L2C_prefetch_accuracy 0.041088
Core_0_L2C_prefetch_coverage 0.00225501
Core_0_L2C_total_eviction 4566548

Core_0_LLC_total_access 3001613
Core_0_LLC_total_hit 679463
Core_0_LLC_total_miss 2322150
Core_0_LLC_total_MPKI 46.443
Core_0_LLC_total_miss_rate 0.773634
Core_0_LLC_demand_access 2890125
Core_0_LLC_demand_hit 636858
Core_0_LLC_demand_miss 2253267
Core_0_LLC_demand_MPKI 45.0653
Core_0_LLC_demand_miss_rate 0.779643
Core_0_LLC_load_access 2889837
Core_0_LLC_load_hit 636571
Core_0_LLC_load_miss 2253266
Core_0_LLC_load_MPKI 45.0653
Core_0_LLC_load_miss_rate 0.779721
Core_0_LLC_rfo_access 288
Core_0_LLC_rfo_hit 287
Core_0_LLC_rfo_miss 1
Core_0_LLC_rfo_MPKI 2e-05
Core_0_LLC_rfo_miss_rate 0.00347222
Core_0_LLC_prefetch_access 110272
Core_0_LLC_prefetch_hit 41404
Core_0_LLC_prefetch_miss 68868
Core_0_LLC_prefetch_MPKI 1.37736
Core_0_LLC_prefetch_miss_rate 0.624528
Core_0_LLC_writeback_access 1216
Core_0_LLC_writeback_hit 1201
Core_0_LLC_writeback_miss 15
Core_0_LLC_writeback_MPKI 0.0003
Core_0_LLC_writeback_miss_rate 0.0123355
Core_0_LLC_prefetch_requested 0
Core_0_LLC_prefetch_issued 0
Core_0_LLC_prefetch_useful 0
Core_0_LLC_prefetch_useless 0
Core_0_LLC_prefetch_late 0
Core_0_LLC_prefetch_accuracy 0
Core_0_LLC_prefetch_coverage 0
Core_0_LLC_total_eviction 3089832

[DRAM Statistics]
Channel_0_RQ_row_buffer_hit 15649
Channel_0_RQ_row_buffer_miss 3074168
Channel_0_WQ_row_buffer_hit 5
Channel_0_WQ_row_buffer_miss 11
Channel_0_WQ_full 0
Channel_0_dbus_congested 3286948
DRAM_total_RQ_row_buffer_hit 15649
DRAM_total_RQ_row_buffer_miss 3074168
DRAM_total_WQ_row_buffer_hit 5
DRAM_total_WQ_row_buffer_miss 11
DRAM_total_WQ_full 0
DRAM_total_dbus_congested 3286948
DRAM_avg_congested_cycle 2.93805

======STLB miss causes ========
Core_0_STLB_miss_cause_breakdown
Core_0_STLB_cause_Demand_Data_miss 1930086
Core_0_STLB_cause_Demand_Data_miss_rate 0.968097
Core_0_STLB_cause_Demand_Instruction_miss 0
Core_0_STLB_cause_Demand_Instruction_miss_rate 0
Core_0_STLB_cause_L1D_Prefetch_miss 0
Core_0_STLB_cause_L1D_Prefetch_miss_rate 0
Core_0_STLB_cause_L1I_Prefetch_miss 0
Core_0_STLB_cause_L1I_Prefetch_miss_rate 0
Core_0_STLB_cause_Other_miss 0
Core_0_STLB_cause_Other_miss_rate 0
Core_0_STLB_Demand_miss 1930086
Core_0_STLB_Demand_miss_rate 0.968097
Core_0_STLB_L1D_Prefetch_miss 0
Core_0_STLB_L1D_Prefetch_miss_rate 0
Core_0_STLB_Other_miss 0
Core_0_STLB_Other_miss_rate 0
BERTI TO_L1: 683218 TO_L2: 808471 TO_L2_BC_MSHR: 0
BERTI AVG_LAT: 126.613 NUM_TRACK_LATENCY: 4242650 NUM_CANT_TRACK_LATENCY: 0
BERTI CROSS_PAGE 152727 NO_CROSS_PAGE: 1338962
BERTI FOUND_BERTI: 5897323 NO_FOUND_BERTI: 1807916
BERTI AVERAGE_ISSUED: 3.03159
