[VMEM] WARNING: physical memory size is smaller than virtual memory size.

*** ChampSim Multicore Out-of-Order Simulator ***
Warmup Instructions: 20000000
Simulation Instructions: 50000000
Number of CPUs: 1
Page size: 4096
STLB ideal mode: l1pref
STLB ideal fill: on
Core 0: /data2/zcq/champsim_traces_xsbench/xs.XXL64unionized-24B.champsimtrace.xz
VBerti Prefetcher
BERTI HASH ENTANGLING
BERTI IP MASK ffff
Off-chip DRAM Size: 16 GiB Channels: 1 Width: 64-bit Data Rate: 3205 MT/s
Warmup halting CPU 0 at instruction 20000003 cycle 5026420 for remainder of phase
Warmup finished CPU 0 instructions: 20000003 cycles: 5026420 cumulative IPC: 3.979 (Simulation time: 00 hr 01 min 01 sec)
Warmup complete CPU 0 instructions: 20000003 cycles: 5026420 cumulative IPC: 3.979 (Simulation time: 00 hr 01 min 01 sec)
Simulation finished CPU 0 instructions: 50000003 cycles: 225596530 cumulative IPC: 0.2216 (Simulation time: 00 hr 18 min 26 sec)
Simulation complete CPU 0 instructions: 50000003 cycles: 225596530 cumulative IPC: 0.2216 (Simulation time: 00 hr 18 min 26 sec)

ChampSim completed all CPUs

=== Simulation ===
CPU 0 runs /data2/zcq/champsim_traces_xsbench/xs.XXL64unionized-24B.champsimtrace.xz

Region of Interest Statistics

CPU 0 cumulative IPC: 0.2216 instructions: 50000003 cycles: 225596530
CPU 0 Branch Prediction Accuracy: 92.4% MPKI: 18.26 Average ROB Occupancy at Mispredict: 37.4
Branch type MPKI
BRANCH_DIRECT_JUMP: 2e-05
BRANCH_INDIRECT: 0
BRANCH_CONDITIONAL: 18.26
BRANCH_DIRECT_CALL: 4e-05
BRANCH_INDIRECT_CALL: 6e-05
BRANCH_RETURN: 0.00038

cpu0->cpu0_STLB TOTAL        ACCESS:    1376890 HIT:     662869 MISS:     714021 MSHR_MERGE:          0
cpu0->cpu0_STLB LOAD         ACCESS:    1376890 HIT:     662869 MISS:     714021 MSHR_MERGE:          0
cpu0->cpu0_STLB RFO          ACCESS:          0 HIT:          0 MISS:          0 MSHR_MERGE:          0
cpu0->cpu0_STLB PREFETCH     ACCESS:          0 HIT:          0 MISS:          0 MSHR_MERGE:          0
cpu0->cpu0_STLB WRITE        ACCESS:          0 HIT:          0 MISS:          0 MSHR_MERGE:          0
cpu0->cpu0_STLB TRANSLATION  ACCESS:          0 HIT:          0 MISS:          0 MSHR_MERGE:          0
cpu0->cpu0_STLB PREFETCH REQUESTED:          0 ISSUED:          0 USEFUL:          0 USELESS:          0 LATE:          0
cpu0->cpu0_STLB AVERAGE MISS LATENCY: 23.16 cycles
cpu0->cpu0_L2C TOTAL        ACCESS:    7040369 HIT:    4667109 MISS:    2373260 MSHR_MERGE:     268138
cpu0->cpu0_L2C LOAD         ACCESS:    1743531 HIT:     177819 MISS:    1565712 MSHR_MERGE:      50621
cpu0->cpu0_L2C RFO          ACCESS:      86822 HIT:      53374 MISS:      33448 MSHR_MERGE:       7824
cpu0->cpu0_L2C PREFETCH     ACCESS:    3979572 HIT:    3222519 MISS:     757053 MSHR_MERGE:     209693
cpu0->cpu0_L2C WRITE        ACCESS:     742833 HIT:     742821 MISS:         12 MSHR_MERGE:          0
cpu0->cpu0_L2C TRANSLATION  ACCESS:     487611 HIT:     470576 MISS:      17035 MSHR_MERGE:          0
cpu0->cpu0_L2C PREFETCH REQUESTED:    1075280 ISSUED:    1064443 USEFUL:     172437 USELESS:       2180 LATE:      46024
cpu0->cpu0_L2C AVERAGE MISS LATENCY: 224 cycles
cpu0->cpu0_L1I TOTAL        ACCESS:     619373 HIT:     619370 MISS:          3 MSHR_MERGE:          0
cpu0->cpu0_L1I LOAD         ACCESS:     619373 HIT:     619370 MISS:          3 MSHR_MERGE:          0
cpu0->cpu0_L1I RFO          ACCESS:          0 HIT:          0 MISS:          0 MSHR_MERGE:          0
cpu0->cpu0_L1I PREFETCH     ACCESS:          0 HIT:          0 MISS:          0 MSHR_MERGE:          0
cpu0->cpu0_L1I WRITE        ACCESS:          0 HIT:          0 MISS:          0 MSHR_MERGE:          0
cpu0->cpu0_L1I TRANSLATION  ACCESS:          0 HIT:          0 MISS:          0 MSHR_MERGE:          0
cpu0->cpu0_L1I PREFETCH REQUESTED:          0 ISSUED:          0 USEFUL:          0 USELESS:          0 LATE:          0
cpu0->cpu0_L1I AVERAGE MISS LATENCY: 297.3 cycles
cpu0->cpu0_L1D TOTAL        ACCESS:   32582087 HIT:   26316996 MISS:    6265091 MSHR_MERGE:    1010660
cpu0->cpu0_L1D LOAD         ACCESS:   10367006 HIT:    8076083 MISS:    2290923 MSHR_MERGE:     547395
cpu0->cpu0_L1D RFO          ACCESS:          0 HIT:          0 MISS:          0 MSHR_MERGE:          0
cpu0->cpu0_L1D PREFETCH     ACCESS:   14499962 HIT:   11545913 MISS:    2954049 MSHR_MERGE:      17579
cpu0->cpu0_L1D WRITE        ACCESS:    6288264 HIT:    5756598 MISS:     531666 MSHR_MERGE:     444844
cpu0->cpu0_L1D TRANSLATION  ACCESS:    1426855 HIT:     938402 MISS:     488453 MSHR_MERGE:        842
cpu0->cpu0_L1D PREFETCH REQUESTED:   60941951 ISSUED:   14499954 USEFUL:     362046 USELESS:       1952 LATE:      22733
cpu0->cpu0_L1D AVERAGE MISS LATENCY: 166.1 cycles
cpu0->cpu0_ITLB TOTAL        ACCESS:     590750 HIT:     590750 MISS:          0 MSHR_MERGE:          0
cpu0->cpu0_ITLB LOAD         ACCESS:     590750 HIT:     590750 MISS:          0 MSHR_MERGE:          0
cpu0->cpu0_ITLB RFO          ACCESS:          0 HIT:          0 MISS:          0 MSHR_MERGE:          0
cpu0->cpu0_ITLB PREFETCH     ACCESS:          0 HIT:          0 MISS:          0 MSHR_MERGE:          0
cpu0->cpu0_ITLB WRITE        ACCESS:          0 HIT:          0 MISS:          0 MSHR_MERGE:          0
cpu0->cpu0_ITLB TRANSLATION  ACCESS:          0 HIT:          0 MISS:          0 MSHR_MERGE:          0
cpu0->cpu0_ITLB PREFETCH REQUESTED:          0 ISSUED:          0 USEFUL:          0 USELESS:          0 LATE:          0
cpu0->cpu0_ITLB AVERAGE MISS LATENCY: - cycles
cpu0->cpu0_DTLB TOTAL        ACCESS:   25673636 HIT:   23808847 MISS:    1864789 MSHR_MERGE:     487899
cpu0->cpu0_DTLB LOAD         ACCESS:   25673636 HIT:   23808847 MISS:    1864789 MSHR_MERGE:     487899
cpu0->cpu0_DTLB RFO          ACCESS:          0 HIT:          0 MISS:          0 MSHR_MERGE:          0
cpu0->cpu0_DTLB PREFETCH     ACCESS:          0 HIT:          0 MISS:          0 MSHR_MERGE:          0
cpu0->cpu0_DTLB WRITE        ACCESS:          0 HIT:          0 MISS:          0 MSHR_MERGE:          0
cpu0->cpu0_DTLB TRANSLATION  ACCESS:          0 HIT:          0 MISS:          0 MSHR_MERGE:          0
cpu0->cpu0_DTLB PREFETCH REQUESTED:          0 ISSUED:          0 USEFUL:          0 USELESS:          0 LATE:          0
cpu0->cpu0_DTLB AVERAGE MISS LATENCY: 17.53 cycles
cpu0->LLC TOTAL        ACCESS:    2806694 HIT:     493867 MISS:    2312827 MSHR_MERGE:      58745
cpu0->LLC LOAD         ACCESS:    1515091 HIT:     184765 MISS:    1330326 MSHR_MERGE:      11665
cpu0->LLC RFO          ACCESS:      25624 HIT:       5189 MISS:      20435 MSHR_MERGE:        377
cpu0->LLC PREFETCH     ACCESS:     547347 HIT:      86313 MISS:     461034 MSHR_MERGE:      46703
cpu0->LLC WRITE        ACCESS:     701597 HIT:     213462 MISS:     488135 MSHR_MERGE:          0
cpu0->LLC TRANSLATION  ACCESS:      17035 HIT:       4138 MISS:      12897 MSHR_MERGE:          0
cpu0->LLC PREFETCH REQUESTED:          0 ISSUED:          0 USEFUL:          0 USELESS:          0 LATE:          0
cpu0->LLC AVERAGE MISS LATENCY: 174.2 cycles

DRAM Statistics

Channel 0 RQ ROW_BUFFER_HIT:      17433
  ROW_BUFFER_MISS:    1748175
  AVG DBUS CONGESTED CYCLE: 6.593
Channel 0 WQ ROW_BUFFER_HIT:     168438
  ROW_BUFFER_MISS:     430900
  FULL:        433
Channel 0 REFRESHES ISSUED:      18800

[ROI Statistics]
[System Configuration]
num_cpus 1
cpu_freq 4000
fetch_width 6
decode_width 6
dispatch_width 6
execute_width 6
lq_width 2
sq_width 2
retire_width 6
scheduler_size 128
branch_mispredict_penalty 15
rob_size 352
lq_size 128
sq_size 72
ifetch_buffer_size 64
decode_buffer_size 32
dispatch_buffer_size 32
register_file_size 288
decode_latency 1
dispatch_latency 1
schedule_latency 1
execute_latency 1
page_size 4096
block_size 64
core_0_itlb_set 16
core_0_itlb_way 4
core_0_itlb_rq_size 16
core_0_itlb_wq_size 16
core_0_itlb_pq_size 0
core_0_itlb_mshr_size 8
core_0_itlb_hit_latency 1
core_0_itlb_fill_latency 1
core_0_itlb_max_tag_check 2
core_0_itlb_max_fill 2
core_0_dtlb_set 16
core_0_dtlb_way 4
core_0_dtlb_rq_size 16
core_0_dtlb_wq_size 16
core_0_dtlb_pq_size 0
core_0_dtlb_mshr_size 8
core_0_dtlb_hit_latency 1
core_0_dtlb_fill_latency 1
core_0_dtlb_max_tag_check 2
core_0_dtlb_max_fill 2
core_0_stlb_set 128
core_0_stlb_way 12
core_0_stlb_rq_size 32
core_0_stlb_wq_size 32
core_0_stlb_pq_size 0
core_0_stlb_mshr_size 16
core_0_stlb_hit_latency 4
core_0_stlb_fill_latency 4
core_0_stlb_max_tag_check 1
core_0_stlb_max_fill 1
core_0_l1i_set 64
core_0_l1i_way 8
core_0_l1i_rq_size 64
core_0_l1i_wq_size 64
core_0_l1i_pq_size 32
core_0_l1i_mshr_size 8
core_0_l1i_hit_latency 2
core_0_l1i_fill_latency 2
core_0_l1i_max_tag_check 2
core_0_l1i_max_fill 2
core_0_l1d_set 64
core_0_l1d_way 12
core_0_l1d_rq_size 64
core_0_l1d_wq_size 64
core_0_l1d_pq_size 8
core_0_l1d_mshr_size 16
core_0_l1d_hit_latency 2
core_0_l1d_fill_latency 3
core_0_l1d_max_tag_check 2
core_0_l1d_max_fill 2
core_0_l2c_set 1024
core_0_l2c_way 8
core_0_l2c_rq_size 32
core_0_l2c_wq_size 32
core_0_l2c_pq_size 16
core_0_l2c_mshr_size 32
core_0_l2c_hit_latency 5
core_0_l2c_fill_latency 5
core_0_l2c_max_tag_check 1
core_0_l2c_max_fill 1
llc_set 2048
llc_way 16
llc_rq_size 32
llc_wq_size 32
llc_pq_size 32
llc_mshr_size 64
llc_hit_latency 10
llc_fill_latency 10
llc_max_tag_check 1
llc_max_fill 1
dram_channels 1
dram_ranks 1
dram_bankgroups 8
dram_banks 4
dram_rows 65536
dram_columns 1024
dram_channel_width 8
dram_rq_size 64
dram_wq_size 64
dram_size 17179869184
core_0_itlb_prefetcher no
core_0_dtlb_prefetcher no
core_0_stlb_prefetcher no
core_0_l1i_prefetcher next_line
core_0_l1d_prefetcher vberti
core_0_l2c_prefetcher ip_stride
llc_prefetcher no
llc_replacement drrip

Core_0_instructions 50000003
Core_0_cycles 225596530
Core_0_IPC 0.221635
Core_0_branch_prediction_accuracy 92.3951
Core_0_branch_MPKI 18.2617
Core_0_average_ROB_occupancy_at_mispredict 37.3971

Core_0_ITLB_total_access 590750
Core_0_ITLB_total_hit 590750
Core_0_ITLB_total_miss 0
Core_0_ITLB_total_MPKI 0
Core_0_ITLB_total_miss_rate 0
Core_0_ITLB_demand_access 590750
Core_0_ITLB_demand_hit 590750
Core_0_ITLB_demand_miss 0
Core_0_ITLB_demand_MPKI 0
Core_0_ITLB_demand_miss_rate 0
Core_0_ITLB_load_access 590750
Core_0_ITLB_load_hit 590750
Core_0_ITLB_load_miss 0
Core_0_ITLB_load_MPKI 0
Core_0_ITLB_load_miss_rate 0
Core_0_ITLB_rfo_access 0
Core_0_ITLB_rfo_hit 0
Core_0_ITLB_rfo_miss 0
Core_0_ITLB_rfo_MPKI 0
Core_0_ITLB_rfo_miss_rate 0
Core_0_ITLB_prefetch_access 0
Core_0_ITLB_prefetch_hit 0
Core_0_ITLB_prefetch_miss 0
Core_0_ITLB_prefetch_MPKI 0
Core_0_ITLB_prefetch_miss_rate 0
Core_0_ITLB_writeback_access 0
Core_0_ITLB_writeback_hit 0
Core_0_ITLB_writeback_miss 0
Core_0_ITLB_writeback_MPKI 0
Core_0_ITLB_writeback_miss_rate 0
Core_0_ITLB_prefetch_requested 0
Core_0_ITLB_prefetch_issued 0
Core_0_ITLB_prefetch_useful 0
Core_0_ITLB_prefetch_useless 0
Core_0_ITLB_prefetch_late 0
Core_0_ITLB_prefetch_accuracy 0
Core_0_ITLB_prefetch_coverage 0
Core_0_ITLB_total_eviction 0

Core_0_DTLB_total_access 25673636
Core_0_DTLB_total_hit 23808847
Core_0_DTLB_total_miss 1864789
Core_0_DTLB_total_MPKI 37.2958
Core_0_DTLB_total_miss_rate 0.0726344
Core_0_DTLB_demand_access 25673636
Core_0_DTLB_demand_hit 23808847
Core_0_DTLB_demand_miss 1864789
Core_0_DTLB_demand_MPKI 37.2958
Core_0_DTLB_demand_miss_rate 0.0726344
Core_0_DTLB_load_access 25673636
Core_0_DTLB_load_hit 23808847
Core_0_DTLB_load_miss 1864789
Core_0_DTLB_load_MPKI 37.2958
Core_0_DTLB_load_miss_rate 0.0726344
Core_0_DTLB_rfo_access 0
Core_0_DTLB_rfo_hit 0
Core_0_DTLB_rfo_miss 0
Core_0_DTLB_rfo_MPKI 0
Core_0_DTLB_rfo_miss_rate 0
Core_0_DTLB_prefetch_access 0
Core_0_DTLB_prefetch_hit 0
Core_0_DTLB_prefetch_miss 0
Core_0_DTLB_prefetch_MPKI 0
Core_0_DTLB_prefetch_miss_rate 0
Core_0_DTLB_writeback_access 0
Core_0_DTLB_writeback_hit 0
Core_0_DTLB_writeback_miss 0
Core_0_DTLB_writeback_MPKI 0
Core_0_DTLB_writeback_miss_rate 0
Core_0_DTLB_prefetch_requested 0
Core_0_DTLB_prefetch_issued 0
Core_0_DTLB_prefetch_useful 0
Core_0_DTLB_prefetch_useless 0
Core_0_DTLB_prefetch_late 0
Core_0_DTLB_prefetch_accuracy 0
Core_0_DTLB_prefetch_coverage 0
Core_0_DTLB_total_eviction 1376890

Core_0_STLB_total_access 1376890
Core_0_STLB_total_hit 662869
Core_0_STLB_total_miss 714021
Core_0_STLB_total_MPKI 14.2804
Core_0_STLB_total_miss_rate 0.518575
Core_0_STLB_demand_access 1376890
Core_0_STLB_demand_hit 662869
Core_0_STLB_demand_miss 714021
Core_0_STLB_demand_MPKI 14.2804
Core_0_STLB_demand_miss_rate 0.518575
Core_0_STLB_load_access 1376890
Core_0_STLB_load_hit 662869
Core_0_STLB_load_miss 714021
Core_0_STLB_load_MPKI 14.2804
Core_0_STLB_load_miss_rate 0.518575
Core_0_STLB_rfo_access 0
Core_0_STLB_rfo_hit 0
Core_0_STLB_rfo_miss 0
Core_0_STLB_rfo_MPKI 0
Core_0_STLB_rfo_miss_rate 0
Core_0_STLB_prefetch_access 0
Core_0_STLB_prefetch_hit 0
Core_0_STLB_prefetch_miss 0
Core_0_STLB_prefetch_MPKI 0
Core_0_STLB_prefetch_miss_rate 0
Core_0_STLB_writeback_access 0
Core_0_STLB_writeback_hit 0
Core_0_STLB_writeback_miss 0
Core_0_STLB_writeback_MPKI 0
Core_0_STLB_writeback_miss_rate 0
Core_0_STLB_prefetch_requested 0
Core_0_STLB_prefetch_issued 0
Core_0_STLB_prefetch_useful 0
Core_0_STLB_prefetch_useless 0
Core_0_STLB_prefetch_late 0
Core_0_STLB_prefetch_accuracy 0
Core_0_STLB_prefetch_coverage 0
Core_0_STLB_total_eviction 720363

Core_0_L1I_total_access 619373
Core_0_L1I_total_hit 619370
Core_0_L1I_total_miss 3
Core_0_L1I_total_MPKI 6e-05
Core_0_L1I_total_miss_rate 4.84361e-06
Core_0_L1I_demand_access 619373
Core_0_L1I_demand_hit 619370
Core_0_L1I_demand_miss 3
Core_0_L1I_demand_MPKI 6e-05
Core_0_L1I_demand_miss_rate 4.84361e-06
Core_0_L1I_load_access 619373
Core_0_L1I_load_hit 619370
Core_0_L1I_load_miss 3
Core_0_L1I_load_MPKI 6e-05
Core_0_L1I_load_miss_rate 4.84361e-06
Core_0_L1I_rfo_access 0
Core_0_L1I_rfo_hit 0
Core_0_L1I_rfo_miss 0
Core_0_L1I_rfo_MPKI 0
Core_0_L1I_rfo_miss_rate 0
Core_0_L1I_prefetch_access 0
Core_0_L1I_prefetch_hit 0
Core_0_L1I_prefetch_miss 0
Core_0_L1I_prefetch_MPKI 0
Core_0_L1I_prefetch_miss_rate 0
Core_0_L1I_writeback_access 0
Core_0_L1I_writeback_hit 0
Core_0_L1I_writeback_miss 0
Core_0_L1I_writeback_MPKI 0
Core_0_L1I_writeback_miss_rate 0
Core_0_L1I_prefetch_requested 0
Core_0_L1I_prefetch_issued 0
Core_0_L1I_prefetch_useful 0
Core_0_L1I_prefetch_useless 0
Core_0_L1I_prefetch_late 0
Core_0_L1I_prefetch_accuracy 0
Core_0_L1I_prefetch_coverage 0
Core_0_L1I_total_eviction 0

Core_0_L1D_total_access 31155232
Core_0_L1D_total_hit 25378594
Core_0_L1D_total_miss 5776638
Core_0_L1D_total_MPKI 115.533
Core_0_L1D_total_miss_rate 0.185415
Core_0_L1D_demand_access 10367006
Core_0_L1D_demand_hit 8076083
Core_0_L1D_demand_miss 2290923
Core_0_L1D_demand_MPKI 45.8185
Core_0_L1D_demand_miss_rate 0.220982
Core_0_L1D_load_access 10367006
Core_0_L1D_load_hit 8076083
Core_0_L1D_load_miss 2290923
Core_0_L1D_load_MPKI 45.8185
Core_0_L1D_load_miss_rate 0.220982
Core_0_L1D_rfo_access 0
Core_0_L1D_rfo_hit 0
Core_0_L1D_rfo_miss 0
Core_0_L1D_rfo_MPKI 0
Core_0_L1D_rfo_miss_rate 0
Core_0_L1D_prefetch_access 14499962
Core_0_L1D_prefetch_hit 11545913
Core_0_L1D_prefetch_miss 2954049
Core_0_L1D_prefetch_MPKI 59.081
Core_0_L1D_prefetch_miss_rate 0.203728
Core_0_L1D_writeback_access 6288264
Core_0_L1D_writeback_hit 5756598
Core_0_L1D_writeback_miss 531666
Core_0_L1D_writeback_MPKI 10.6333
Core_0_L1D_writeback_miss_rate 0.0845489
Core_0_L1D_prefetch_requested 60941951
Core_0_L1D_prefetch_issued 14499954
Core_0_L1D_prefetch_useful 362046
Core_0_L1D_prefetch_useless 1952
Core_0_L1D_prefetch_late 22733
Core_0_L1D_prefetch_accuracy 0.0249688
Core_0_L1D_prefetch_coverage 0.136468
Core_0_L1D_total_eviction 2681950

Core_0_L2C_total_access 6552758
Core_0_L2C_total_hit 4196533
Core_0_L2C_total_miss 2356225
Core_0_L2C_total_MPKI 47.1245
Core_0_L2C_total_miss_rate 0.359578
Core_0_L2C_demand_access 1830353
Core_0_L2C_demand_hit 231193
Core_0_L2C_demand_miss 1599160
Core_0_L2C_demand_MPKI 31.9832
Core_0_L2C_demand_miss_rate 0.873689
Core_0_L2C_load_access 1743531
Core_0_L2C_load_hit 177819
Core_0_L2C_load_miss 1565712
Core_0_L2C_load_MPKI 31.3142
Core_0_L2C_load_miss_rate 0.898012
Core_0_L2C_rfo_access 86822
Core_0_L2C_rfo_hit 53374
Core_0_L2C_rfo_miss 33448
Core_0_L2C_rfo_MPKI 0.66896
Core_0_L2C_rfo_miss_rate 0.385248
Core_0_L2C_prefetch_access 3979572
Core_0_L2C_prefetch_hit 3222519
Core_0_L2C_prefetch_miss 757053
Core_0_L2C_prefetch_MPKI 15.1411
Core_0_L2C_prefetch_miss_rate 0.190235
Core_0_L2C_writeback_access 742833
Core_0_L2C_writeback_hit 742821
Core_0_L2C_writeback_miss 12
Core_0_L2C_writeback_MPKI 0.00024
Core_0_L2C_writeback_miss_rate 1.61544e-05
Core_0_L2C_prefetch_requested 1075280
Core_0_L2C_prefetch_issued 1064443
Core_0_L2C_prefetch_useful 172437
Core_0_L2C_prefetch_useless 2180
Core_0_L2C_prefetch_late 46024
Core_0_L2C_prefetch_accuracy 0.161997
Core_0_L2C_prefetch_coverage 0.0973342
Core_0_L2C_total_eviction 2025343

Core_0_LLC_total_access 2789659
Core_0_LLC_total_hit 489729
Core_0_LLC_total_miss 2299930
Core_0_LLC_total_MPKI 45.9986
Core_0_LLC_total_miss_rate 0.824448
Core_0_LLC_demand_access 1540715
Core_0_LLC_demand_hit 189954
Core_0_LLC_demand_miss 1350761
Core_0_LLC_demand_MPKI 27.0152
Core_0_LLC_demand_miss_rate 0.87671
Core_0_LLC_load_access 1515091
Core_0_LLC_load_hit 184765
Core_0_LLC_load_miss 1330326
Core_0_LLC_load_MPKI 26.6065
Core_0_LLC_load_miss_rate 0.87805
Core_0_LLC_rfo_access 25624
Core_0_LLC_rfo_hit 5189
Core_0_LLC_rfo_miss 20435
Core_0_LLC_rfo_MPKI 0.4087
Core_0_LLC_rfo_miss_rate 0.797495
Core_0_LLC_prefetch_access 547347
Core_0_LLC_prefetch_hit 86313
Core_0_LLC_prefetch_miss 461034
Core_0_LLC_prefetch_MPKI 9.22068
Core_0_LLC_prefetch_miss_rate 0.842307
Core_0_LLC_writeback_access 701597
Core_0_LLC_writeback_hit 213462
Core_0_LLC_writeback_miss 488135
Core_0_LLC_writeback_MPKI 9.7627
Core_0_LLC_writeback_miss_rate 0.695748
Core_0_LLC_prefetch_requested 0
Core_0_LLC_prefetch_issued 0
Core_0_LLC_prefetch_useful 0
Core_0_LLC_prefetch_useless 0
Core_0_LLC_prefetch_late 0
Core_0_LLC_prefetch_accuracy 0
Core_0_LLC_prefetch_coverage 0
Core_0_LLC_total_eviction 2254082

[DRAM Statistics]
Channel_0_RQ_row_buffer_hit 17433
Channel_0_RQ_row_buffer_miss 1748175
Channel_0_WQ_row_buffer_hit 168438
Channel_0_WQ_row_buffer_miss 430900
Channel_0_WQ_full 433
Channel_0_dbus_congested 6490837
DRAM_total_RQ_row_buffer_hit 17433
DRAM_total_RQ_row_buffer_miss 1748175
DRAM_total_WQ_row_buffer_hit 168438
DRAM_total_WQ_row_buffer_miss 430900
DRAM_total_WQ_full 433
DRAM_total_dbus_congested 6490837
DRAM_avg_congested_cycle 6.59252

======STLB miss causes ========
Core_0_STLB_miss_cause_breakdown
Core_0_STLB_cause_Demand_Data_miss 714021
Core_0_STLB_cause_Demand_Data_miss_rate 0.518575
Core_0_STLB_cause_Demand_Instruction_miss 0
Core_0_STLB_cause_Demand_Instruction_miss_rate 0
Core_0_STLB_cause_L1D_Prefetch_miss 0
Core_0_STLB_cause_L1D_Prefetch_miss_rate 0
Core_0_STLB_cause_L1I_Prefetch_miss 0
Core_0_STLB_cause_L1I_Prefetch_miss_rate 0
Core_0_STLB_cause_Other_miss 0
Core_0_STLB_cause_Other_miss_rate 0
Core_0_STLB_Demand_miss 714021
Core_0_STLB_Demand_miss_rate 0.518575
Core_0_STLB_L1D_Prefetch_miss 0
Core_0_STLB_L1D_Prefetch_miss_rate 0
Core_0_STLB_Other_miss 0
Core_0_STLB_Other_miss_rate 0
BERTI TO_L1: 38458837 TO_L2: 42262387 TO_L2_BC_MSHR: 6487646
BERTI AVG_LAT: 164.802 NUM_TRACK_LATENCY: 2632763 NUM_CANT_TRACK_LATENCY: 32
BERTI CROSS_PAGE 10082133 NO_CROSS_PAGE: 70639091
BERTI FOUND_BERTI: 16504562 NO_FOUND_BERTI: 6017875
BERTI AVERAGE_ISSUED: 3.22082
