[VMEM] WARNING: physical memory size is smaller than virtual memory size.

*** ChampSim Multicore Out-of-Order Simulator ***
Warmup Instructions: 20000000
Simulation Instructions: 50000000
Number of CPUs: 1
Page size: 4096
STLB ideal mode: l1pref
STLB ideal fill: on
Core 0: /data2/zcq/champsim_traces_xsbench/xs.XXL100hash-563B.champsimtrace.xz
VBerti Prefetcher
BERTI HASH ENTANGLING
BERTI IP MASK ffff
Off-chip DRAM Size: 16 GiB Channels: 1 Width: 64-bit Data Rate: 3205 MT/s
Warmup halting CPU 0 at instruction 20000004 cycle 13855195 for remainder of phase
Warmup finished CPU 0 instructions: 20000004 cycles: 13855195 cumulative IPC: 1.444 (Simulation time: 00 hr 02 min 37 sec)
Warmup complete CPU 0 instructions: 20000004 cycles: 13855195 cumulative IPC: 1.444 (Simulation time: 00 hr 02 min 37 sec)
Simulation finished CPU 0 instructions: 50000000 cycles: 261446735 cumulative IPC: 0.1912 (Simulation time: 00 hr 20 min 30 sec)
Simulation complete CPU 0 instructions: 50000000 cycles: 261446735 cumulative IPC: 0.1912 (Simulation time: 00 hr 20 min 30 sec)

ChampSim completed all CPUs

=== Simulation ===
CPU 0 runs /data2/zcq/champsim_traces_xsbench/xs.XXL100hash-563B.champsimtrace.xz

Region of Interest Statistics

CPU 0 cumulative IPC: 0.1912 instructions: 50000000 cycles: 261446735
CPU 0 Branch Prediction Accuracy: 92.96% MPKI: 10.17 Average ROB Occupancy at Mispredict: 65.96
Branch type MPKI
BRANCH_DIRECT_JUMP: 2e-05
BRANCH_INDIRECT: 0
BRANCH_CONDITIONAL: 10.17
BRANCH_DIRECT_CALL: 0
BRANCH_INDIRECT_CALL: 0
BRANCH_RETURN: 0

cpu0->cpu0_STLB TOTAL        ACCESS:     474181 HIT:       7723 MISS:     466458 MSHR_MERGE:          0
cpu0->cpu0_STLB LOAD         ACCESS:     474181 HIT:       7723 MISS:     466458 MSHR_MERGE:          0
cpu0->cpu0_STLB RFO          ACCESS:          0 HIT:          0 MISS:          0 MSHR_MERGE:          0
cpu0->cpu0_STLB PREFETCH     ACCESS:          0 HIT:          0 MISS:          0 MSHR_MERGE:          0
cpu0->cpu0_STLB WRITE        ACCESS:          0 HIT:          0 MISS:          0 MSHR_MERGE:          0
cpu0->cpu0_STLB TRANSLATION  ACCESS:          0 HIT:          0 MISS:          0 MSHR_MERGE:          0
cpu0->cpu0_STLB PREFETCH REQUESTED:          0 ISSUED:          0 USEFUL:          0 USELESS:          0 LATE:          0
cpu0->cpu0_STLB AVERAGE MISS LATENCY: 405.8 cycles
cpu0->cpu0_L2C TOTAL        ACCESS:    3880370 HIT:    1119506 MISS:    2760864 MSHR_MERGE:      18777
cpu0->cpu0_L2C LOAD         ACCESS:    2207595 HIT:      37297 MISS:    2170298 MSHR_MERGE:       1098
cpu0->cpu0_L2C RFO          ACCESS:       6207 HIT:       6166 MISS:         41 MSHR_MERGE:          0
cpu0->cpu0_L2C PREFETCH     ACCESS:    1083605 HIT:     860730 MISS:     222875 MSHR_MERGE:      17679
cpu0->cpu0_L2C WRITE        ACCESS:       8405 HIT:       8367 MISS:         38 MSHR_MERGE:          0
cpu0->cpu0_L2C TRANSLATION  ACCESS:     574558 HIT:     206946 MISS:     367612 MSHR_MERGE:          0
cpu0->cpu0_L2C PREFETCH REQUESTED:     274818 ISSUED:     274818 USEFUL:      19979 USELESS:     139470 LATE:       1086
cpu0->cpu0_L2C AVERAGE MISS LATENCY: 220.6 cycles
cpu0->cpu0_L1I TOTAL        ACCESS:     173013 HIT:     173013 MISS:          0 MSHR_MERGE:          0
cpu0->cpu0_L1I LOAD         ACCESS:     173013 HIT:     173013 MISS:          0 MSHR_MERGE:          0
cpu0->cpu0_L1I RFO          ACCESS:          0 HIT:          0 MISS:          0 MSHR_MERGE:          0
cpu0->cpu0_L1I PREFETCH     ACCESS:          0 HIT:          0 MISS:          0 MSHR_MERGE:          0
cpu0->cpu0_L1I WRITE        ACCESS:          0 HIT:          0 MISS:          0 MSHR_MERGE:          0
cpu0->cpu0_L1I TRANSLATION  ACCESS:          0 HIT:          0 MISS:          0 MSHR_MERGE:          0
cpu0->cpu0_L1I PREFETCH REQUESTED:          0 ISSUED:          0 USEFUL:          0 USELESS:          0 LATE:          0
cpu0->cpu0_L1I AVERAGE MISS LATENCY: - cycles
cpu0->cpu0_L1D TOTAL        ACCESS:   11554659 HIT:    7288041 MISS:    4266618 MSHR_MERGE:     669460
cpu0->cpu0_L1D LOAD         ACCESS:    6866758 HIT:    4158607 MISS:    2708151 MSHR_MERGE:     500556
cpu0->cpu0_L1D RFO          ACCESS:          0 HIT:          0 MISS:          0 MSHR_MERGE:          0
cpu0->cpu0_L1D PREFETCH     ACCESS:    1962121 HIT:    1153308 MISS:     808813 MSHR_MERGE:         18
cpu0->cpu0_L1D WRITE        ACCESS:    1628408 HIT:    1612829 MISS:      15579 MSHR_MERGE:       9369
cpu0->cpu0_L1D TRANSLATION  ACCESS:    1097372 HIT:     363297 MISS:     734075 MSHR_MERGE:     159517
cpu0->cpu0_L1D PREFETCH REQUESTED:    1962491 ISSUED:    1962120 USEFUL:      63972 USELESS:      17512 LATE:         15
cpu0->cpu0_L1D AVERAGE MISS LATENCY: 210.4 cycles
cpu0->cpu0_ITLB TOTAL        ACCESS:     144585 HIT:     144585 MISS:          0 MSHR_MERGE:          0
cpu0->cpu0_ITLB LOAD         ACCESS:     144585 HIT:     144585 MISS:          0 MSHR_MERGE:          0
cpu0->cpu0_ITLB RFO          ACCESS:          0 HIT:          0 MISS:          0 MSHR_MERGE:          0
cpu0->cpu0_ITLB PREFETCH     ACCESS:          0 HIT:          0 MISS:          0 MSHR_MERGE:          0
cpu0->cpu0_ITLB WRITE        ACCESS:          0 HIT:          0 MISS:          0 MSHR_MERGE:          0
cpu0->cpu0_ITLB TRANSLATION  ACCESS:          0 HIT:          0 MISS:          0 MSHR_MERGE:          0
cpu0->cpu0_ITLB PREFETCH REQUESTED:          0 ISSUED:          0 USEFUL:          0 USELESS:          0 LATE:          0
cpu0->cpu0_ITLB AVERAGE MISS LATENCY: - cycles
cpu0->cpu0_DTLB TOTAL        ACCESS:    9875928 HIT:    8169440 MISS:    1706488 MSHR_MERGE:    1232307
cpu0->cpu0_DTLB LOAD         ACCESS:    9875928 HIT:    8169440 MISS:    1706488 MSHR_MERGE:    1232307
cpu0->cpu0_DTLB RFO          ACCESS:          0 HIT:          0 MISS:          0 MSHR_MERGE:          0
cpu0->cpu0_DTLB PREFETCH     ACCESS:          0 HIT:          0 MISS:          0 MSHR_MERGE:          0
cpu0->cpu0_DTLB WRITE        ACCESS:          0 HIT:          0 MISS:          0 MSHR_MERGE:          0
cpu0->cpu0_DTLB TRANSLATION  ACCESS:          0 HIT:          0 MISS:          0 MSHR_MERGE:          0
cpu0->cpu0_DTLB PREFETCH REQUESTED:          0 ISSUED:          0 USEFUL:          0 USELESS:          0 LATE:          0
cpu0->cpu0_DTLB AVERAGE MISS LATENCY: 405.1 cycles
cpu0->LLC TOTAL        ACCESS:    2742373 HIT:      80836 MISS:    2661537 MSHR_MERGE:          0
cpu0->LLC LOAD         ACCESS:    2169200 HIT:       4395 MISS:    2164805 MSHR_MERGE:          0
cpu0->LLC RFO          ACCESS:         41 HIT:         41 MISS:          0 MSHR_MERGE:          0
cpu0->LLC PREFETCH     ACCESS:     205196 HIT:      13547 MISS:     191649 MSHR_MERGE:          0
cpu0->LLC WRITE        ACCESS:        324 HIT:        316 MISS:          8 MSHR_MERGE:          0
cpu0->LLC TRANSLATION  ACCESS:     367612 HIT:      62537 MISS:     305075 MSHR_MERGE:          0
cpu0->LLC PREFETCH REQUESTED:          0 ISSUED:          0 USEFUL:          0 USELESS:          0 LATE:          0
cpu0->LLC AVERAGE MISS LATENCY: 210.2 cycles

DRAM Statistics

Channel 0 RQ ROW_BUFFER_HIT:      40008
  ROW_BUFFER_MISS:    2621521
  AVG DBUS CONGESTED CYCLE: 3.001
Channel 0 WQ ROW_BUFFER_HIT:          3
  ROW_BUFFER_MISS:          4
  FULL:          0
Channel 0 REFRESHES ISSUED:      21787

[ROI Statistics]
[System Configuration]
num_cpus 1
cpu_freq 4000
fetch_width 6
decode_width 6
dispatch_width 6
execute_width 6
lq_width 2
sq_width 2
retire_width 6
scheduler_size 128
branch_mispredict_penalty 15
rob_size 352
lq_size 128
sq_size 72
ifetch_buffer_size 64
decode_buffer_size 32
dispatch_buffer_size 32
register_file_size 288
decode_latency 1
dispatch_latency 1
schedule_latency 1
execute_latency 1
page_size 4096
block_size 64
core_0_itlb_set 16
core_0_itlb_way 4
core_0_itlb_rq_size 16
core_0_itlb_wq_size 16
core_0_itlb_pq_size 0
core_0_itlb_mshr_size 8
core_0_itlb_hit_latency 1
core_0_itlb_fill_latency 1
core_0_itlb_max_tag_check 2
core_0_itlb_max_fill 2
core_0_dtlb_set 16
core_0_dtlb_way 4
core_0_dtlb_rq_size 16
core_0_dtlb_wq_size 16
core_0_dtlb_pq_size 0
core_0_dtlb_mshr_size 8
core_0_dtlb_hit_latency 1
core_0_dtlb_fill_latency 1
core_0_dtlb_max_tag_check 2
core_0_dtlb_max_fill 2
core_0_stlb_set 128
core_0_stlb_way 12
core_0_stlb_rq_size 32
core_0_stlb_wq_size 32
core_0_stlb_pq_size 0
core_0_stlb_mshr_size 16
core_0_stlb_hit_latency 4
core_0_stlb_fill_latency 4
core_0_stlb_max_tag_check 1
core_0_stlb_max_fill 1
core_0_l1i_set 64
core_0_l1i_way 8
core_0_l1i_rq_size 64
core_0_l1i_wq_size 64
core_0_l1i_pq_size 32
core_0_l1i_mshr_size 8
core_0_l1i_hit_latency 2
core_0_l1i_fill_latency 2
core_0_l1i_max_tag_check 2
core_0_l1i_max_fill 2
core_0_l1d_set 64
core_0_l1d_way 12
core_0_l1d_rq_size 64
core_0_l1d_wq_size 64
core_0_l1d_pq_size 8
core_0_l1d_mshr_size 16
core_0_l1d_hit_latency 2
core_0_l1d_fill_latency 3
core_0_l1d_max_tag_check 2
core_0_l1d_max_fill 2
core_0_l2c_set 1024
core_0_l2c_way 8
core_0_l2c_rq_size 32
core_0_l2c_wq_size 32
core_0_l2c_pq_size 16
core_0_l2c_mshr_size 32
core_0_l2c_hit_latency 5
core_0_l2c_fill_latency 5
core_0_l2c_max_tag_check 1
core_0_l2c_max_fill 1
llc_set 2048
llc_way 16
llc_rq_size 32
llc_wq_size 32
llc_pq_size 32
llc_mshr_size 64
llc_hit_latency 10
llc_fill_latency 10
llc_max_tag_check 1
llc_max_fill 1
dram_channels 1
dram_ranks 1
dram_bankgroups 8
dram_banks 4
dram_rows 65536
dram_columns 1024
dram_channel_width 8
dram_rq_size 64
dram_wq_size 64
dram_size 17179869184
core_0_itlb_prefetcher no
core_0_dtlb_prefetcher no
core_0_stlb_prefetcher no
core_0_l1i_prefetcher next_line
core_0_l1d_prefetcher vberti
core_0_l2c_prefetcher ip_stride
llc_prefetcher no
llc_replacement drrip

Core_0_instructions 50000000
Core_0_cycles 261446735
Core_0_IPC 0.191244
Core_0_branch_prediction_accuracy 92.9578
Core_0_branch_MPKI 10.1736
Core_0_average_ROB_occupancy_at_mispredict 65.9621

Core_0_ITLB_total_access 144585
Core_0_ITLB_total_hit 144585
Core_0_ITLB_total_miss 0
Core_0_ITLB_total_MPKI 0
Core_0_ITLB_total_miss_rate 0
Core_0_ITLB_demand_access 144585
Core_0_ITLB_demand_hit 144585
Core_0_ITLB_demand_miss 0
Core_0_ITLB_demand_MPKI 0
Core_0_ITLB_demand_miss_rate 0
Core_0_ITLB_load_access 144585
Core_0_ITLB_load_hit 144585
Core_0_ITLB_load_miss 0
Core_0_ITLB_load_MPKI 0
Core_0_ITLB_load_miss_rate 0
Core_0_ITLB_rfo_access 0
Core_0_ITLB_rfo_hit 0
Core_0_ITLB_rfo_miss 0
Core_0_ITLB_rfo_MPKI 0
Core_0_ITLB_rfo_miss_rate 0
Core_0_ITLB_prefetch_access 0
Core_0_ITLB_prefetch_hit 0
Core_0_ITLB_prefetch_miss 0
Core_0_ITLB_prefetch_MPKI 0
Core_0_ITLB_prefetch_miss_rate 0
Core_0_ITLB_writeback_access 0
Core_0_ITLB_writeback_hit 0
Core_0_ITLB_writeback_miss 0
Core_0_ITLB_writeback_MPKI 0
Core_0_ITLB_writeback_miss_rate 0
Core_0_ITLB_prefetch_requested 0
Core_0_ITLB_prefetch_issued 0
Core_0_ITLB_prefetch_useful 0
Core_0_ITLB_prefetch_useless 0
Core_0_ITLB_prefetch_late 0
Core_0_ITLB_prefetch_accuracy 0
Core_0_ITLB_prefetch_coverage 0
Core_0_ITLB_total_eviction 0

Core_0_DTLB_total_access 9875928
Core_0_DTLB_total_hit 8169440
Core_0_DTLB_total_miss 1706488
Core_0_DTLB_total_MPKI 34.1298
Core_0_DTLB_total_miss_rate 0.172793
Core_0_DTLB_demand_access 9875928
Core_0_DTLB_demand_hit 8169440
Core_0_DTLB_demand_miss 1706488
Core_0_DTLB_demand_MPKI 34.1298
Core_0_DTLB_demand_miss_rate 0.172793
Core_0_DTLB_load_access 9875928
Core_0_DTLB_load_hit 8169440
Core_0_DTLB_load_miss 1706488
Core_0_DTLB_load_MPKI 34.1298
Core_0_DTLB_load_miss_rate 0.172793
Core_0_DTLB_rfo_access 0
Core_0_DTLB_rfo_hit 0
Core_0_DTLB_rfo_miss 0
Core_0_DTLB_rfo_MPKI 0
Core_0_DTLB_rfo_miss_rate 0
Core_0_DTLB_prefetch_access 0
Core_0_DTLB_prefetch_hit 0
Core_0_DTLB_prefetch_miss 0
Core_0_DTLB_prefetch_MPKI 0
Core_0_DTLB_prefetch_miss_rate 0
Core_0_DTLB_writeback_access 0
Core_0_DTLB_writeback_hit 0
Core_0_DTLB_writeback_miss 0
Core_0_DTLB_writeback_MPKI 0
Core_0_DTLB_writeback_miss_rate 0
Core_0_DTLB_prefetch_requested 0
Core_0_DTLB_prefetch_issued 0
Core_0_DTLB_prefetch_useful 0
Core_0_DTLB_prefetch_useless 0
Core_0_DTLB_prefetch_late 0
Core_0_DTLB_prefetch_accuracy 0
Core_0_DTLB_prefetch_coverage 0
Core_0_DTLB_total_eviction 474185

Core_0_STLB_total_access 474181
Core_0_STLB_total_hit 7723
Core_0_STLB_total_miss 466458
Core_0_STLB_total_MPKI 9.32916
Core_0_STLB_total_miss_rate 0.983713
Core_0_STLB_demand_access 474181
Core_0_STLB_demand_hit 7723
Core_0_STLB_demand_miss 466458
Core_0_STLB_demand_MPKI 9.32916
Core_0_STLB_demand_miss_rate 0.983713
Core_0_STLB_load_access 474181
Core_0_STLB_load_hit 7723
Core_0_STLB_load_miss 466458
Core_0_STLB_load_MPKI 9.32916
Core_0_STLB_load_miss_rate 0.983713
Core_0_STLB_rfo_access 0
Core_0_STLB_rfo_hit 0
Core_0_STLB_rfo_miss 0
Core_0_STLB_rfo_MPKI 0
Core_0_STLB_rfo_miss_rate 0
Core_0_STLB_prefetch_access 0
Core_0_STLB_prefetch_hit 0
Core_0_STLB_prefetch_miss 0
Core_0_STLB_prefetch_MPKI 0
Core_0_STLB_prefetch_miss_rate 0
Core_0_STLB_writeback_access 0
Core_0_STLB_writeback_hit 0
Core_0_STLB_writeback_miss 0
Core_0_STLB_writeback_MPKI 0
Core_0_STLB_writeback_miss_rate 0
Core_0_STLB_prefetch_requested 0
Core_0_STLB_prefetch_issued 0
Core_0_STLB_prefetch_useful 0
Core_0_STLB_prefetch_useless 0
Core_0_STLB_prefetch_late 0
Core_0_STLB_prefetch_accuracy 0
Core_0_STLB_prefetch_coverage 0
Core_0_STLB_total_eviction 466856

Core_0_L1I_total_access 173013
Core_0_L1I_total_hit 173013
Core_0_L1I_total_miss 0
Core_0_L1I_total_MPKI 0
Core_0_L1I_total_miss_rate 0
Core_0_L1I_demand_access 173013
Core_0_L1I_demand_hit 173013
Core_0_L1I_demand_miss 0
Core_0_L1I_demand_MPKI 0
Core_0_L1I_demand_miss_rate 0
Core_0_L1I_load_access 173013
Core_0_L1I_load_hit 173013
Core_0_L1I_load_miss 0
Core_0_L1I_load_MPKI 0
Core_0_L1I_load_miss_rate 0
Core_0_L1I_rfo_access 0
Core_0_L1I_rfo_hit 0
Core_0_L1I_rfo_miss 0
Core_0_L1I_rfo_MPKI 0
Core_0_L1I_rfo_miss_rate 0
Core_0_L1I_prefetch_access 0
Core_0_L1I_prefetch_hit 0
Core_0_L1I_prefetch_miss 0
Core_0_L1I_prefetch_MPKI 0
Core_0_L1I_prefetch_miss_rate 0
Core_0_L1I_writeback_access 0
Core_0_L1I_writeback_hit 0
Core_0_L1I_writeback_miss 0
Core_0_L1I_writeback_MPKI 0
Core_0_L1I_writeback_miss_rate 0
Core_0_L1I_prefetch_requested 0
Core_0_L1I_prefetch_issued 0
Core_0_L1I_prefetch_useful 0
Core_0_L1I_prefetch_useless 0
Core_0_L1I_prefetch_late 0
Core_0_L1I_prefetch_accuracy 0
Core_0_L1I_prefetch_coverage 0
Core_0_L1I_total_eviction 0

Core_0_L1D_total_access 10457287
Core_0_L1D_total_hit 6924744
Core_0_L1D_total_miss 3532543
Core_0_L1D_total_MPKI 70.6509
Core_0_L1D_total_miss_rate 0.337807
Core_0_L1D_demand_access 6866758
Core_0_L1D_demand_hit 4158607
Core_0_L1D_demand_miss 2708151
Core_0_L1D_demand_MPKI 54.163
Core_0_L1D_demand_miss_rate 0.394386
Core_0_L1D_load_access 6866758
Core_0_L1D_load_hit 4158607
Core_0_L1D_load_miss 2708151
Core_0_L1D_load_MPKI 54.163
Core_0_L1D_load_miss_rate 0.394386
Core_0_L1D_rfo_access 0
Core_0_L1D_rfo_hit 0
Core_0_L1D_rfo_miss 0
Core_0_L1D_rfo_MPKI 0
Core_0_L1D_rfo_miss_rate 0
Core_0_L1D_prefetch_access 1962121
Core_0_L1D_prefetch_hit 1153308
Core_0_L1D_prefetch_miss 808813
Core_0_L1D_prefetch_MPKI 16.1763
Core_0_L1D_prefetch_miss_rate 0.412214
Core_0_L1D_writeback_access 1628408
Core_0_L1D_writeback_hit 1612829
Core_0_L1D_writeback_miss 15579
Core_0_L1D_writeback_MPKI 0.31158
Core_0_L1D_writeback_miss_rate 0.00956701
Core_0_L1D_prefetch_requested 1962491
Core_0_L1D_prefetch_issued 1962120
Core_0_L1D_prefetch_useful 63972
Core_0_L1D_prefetch_useless 17512
Core_0_L1D_prefetch_late 15
Core_0_L1D_prefetch_accuracy 0.0326035
Core_0_L1D_prefetch_coverage 0.0230769
Core_0_L1D_total_eviction 2869842

Core_0_L2C_total_access 3305812
Core_0_L2C_total_hit 912560
Core_0_L2C_total_miss 2393252
Core_0_L2C_total_MPKI 47.865
Core_0_L2C_total_miss_rate 0.723953
Core_0_L2C_demand_access 2213802
Core_0_L2C_demand_hit 43463
Core_0_L2C_demand_miss 2170339
Core_0_L2C_demand_MPKI 43.4068
Core_0_L2C_demand_miss_rate 0.980367
Core_0_L2C_load_access 2207595
Core_0_L2C_load_hit 37297
Core_0_L2C_load_miss 2170298
Core_0_L2C_load_MPKI 43.406
Core_0_L2C_load_miss_rate 0.983105
Core_0_L2C_rfo_access 6207
Core_0_L2C_rfo_hit 6166
Core_0_L2C_rfo_miss 41
Core_0_L2C_rfo_MPKI 0.00082
Core_0_L2C_rfo_miss_rate 0.00660545
Core_0_L2C_prefetch_access 1083605
Core_0_L2C_prefetch_hit 860730
Core_0_L2C_prefetch_miss 222875
Core_0_L2C_prefetch_MPKI 4.4575
Core_0_L2C_prefetch_miss_rate 0.205679
Core_0_L2C_writeback_access 8405
Core_0_L2C_writeback_hit 8367
Core_0_L2C_writeback_miss 38
Core_0_L2C_writeback_MPKI 0.00076
Core_0_L2C_writeback_miss_rate 0.00452112
Core_0_L2C_prefetch_requested 274818
Core_0_L2C_prefetch_issued 274818
Core_0_L2C_prefetch_useful 19979
Core_0_L2C_prefetch_useless 139470
Core_0_L2C_prefetch_late 1086
Core_0_L2C_prefetch_accuracy 0.072699
Core_0_L2C_prefetch_coverage 0.00912151
Core_0_L2C_total_eviction 2742085

Core_0_LLC_total_access 2374761
Core_0_LLC_total_hit 18299
Core_0_LLC_total_miss 2356462
Core_0_LLC_total_MPKI 47.1292
Core_0_LLC_total_miss_rate 0.992294
Core_0_LLC_demand_access 2169241
Core_0_LLC_demand_hit 4436
Core_0_LLC_demand_miss 2164805
Core_0_LLC_demand_MPKI 43.2961
Core_0_LLC_demand_miss_rate 0.997955
Core_0_LLC_load_access 2169200
Core_0_LLC_load_hit 4395
Core_0_LLC_load_miss 2164805
Core_0_LLC_load_MPKI 43.2961
Core_0_LLC_load_miss_rate 0.997974
Core_0_LLC_rfo_access 41
Core_0_LLC_rfo_hit 41
Core_0_LLC_rfo_miss 0
Core_0_LLC_rfo_MPKI 0
Core_0_LLC_rfo_miss_rate 0
Core_0_LLC_prefetch_access 205196
Core_0_LLC_prefetch_hit 13547
Core_0_LLC_prefetch_miss 191649
Core_0_LLC_prefetch_MPKI 3.83298
Core_0_LLC_prefetch_miss_rate 0.93398
Core_0_LLC_writeback_access 324
Core_0_LLC_writeback_hit 316
Core_0_LLC_writeback_miss 8
Core_0_LLC_writeback_MPKI 0.00016
Core_0_LLC_writeback_miss_rate 0.0246914
Core_0_LLC_prefetch_requested 0
Core_0_LLC_prefetch_issued 0
Core_0_LLC_prefetch_useful 0
Core_0_LLC_prefetch_useless 0
Core_0_LLC_prefetch_late 0
Core_0_LLC_prefetch_accuracy 0
Core_0_LLC_prefetch_coverage 0
Core_0_LLC_total_eviction 2661537

[DRAM Statistics]
Channel_0_RQ_row_buffer_hit 40008
Channel_0_RQ_row_buffer_miss 2621521
Channel_0_WQ_row_buffer_hit 3
Channel_0_WQ_row_buffer_miss 4
Channel_0_WQ_full 0
Channel_0_dbus_congested 4183421
DRAM_total_RQ_row_buffer_hit 40008
DRAM_total_RQ_row_buffer_miss 2621521
DRAM_total_WQ_row_buffer_hit 3
DRAM_total_WQ_row_buffer_miss 4
DRAM_total_WQ_full 0
DRAM_total_dbus_congested 4183421
DRAM_avg_congested_cycle 3.00107

======STLB miss causes ========
Core_0_STLB_miss_cause_breakdown
Core_0_STLB_cause_Demand_Data_miss 466458
Core_0_STLB_cause_Demand_Data_miss_rate 0.983713
Core_0_STLB_cause_Demand_Instruction_miss 0
Core_0_STLB_cause_Demand_Instruction_miss_rate 0
Core_0_STLB_cause_L1D_Prefetch_miss 0
Core_0_STLB_cause_L1D_Prefetch_miss_rate 0
Core_0_STLB_cause_L1I_Prefetch_miss 0
Core_0_STLB_cause_L1I_Prefetch_miss_rate 0
Core_0_STLB_cause_Other_miss 0
Core_0_STLB_cause_Other_miss_rate 0
Core_0_STLB_Demand_miss 466458
Core_0_STLB_Demand_miss_rate 0.983713
Core_0_STLB_L1D_Prefetch_miss 0
Core_0_STLB_L1D_Prefetch_miss_rate 0
Core_0_STLB_Other_miss 0
Core_0_STLB_Other_miss_rate 0
BERTI TO_L1: 1970044 TO_L2: 1263248 TO_L2_BC_MSHR: 4
BERTI AVG_LAT: 164.303 NUM_TRACK_LATENCY: 3209573 NUM_CANT_TRACK_LATENCY: 0
BERTI CROSS_PAGE 117424 NO_CROSS_PAGE: 3115868
BERTI FOUND_BERTI: 6757138 NO_FOUND_BERTI: 4102982
BERTI AVERAGE_ISSUED: 1.96214
