[VMEM] WARNING: physical memory size is smaller than virtual memory size.

*** ChampSim Multicore Out-of-Order Simulator ***
Warmup Instructions: 20000000
Simulation Instructions: 50000000
Number of CPUs: 1
Page size: 4096
STLB ideal mode: l1pref
STLB ideal fill: on
Core 0: /data2/zcq/champsim_traces_xsbench/xs.XL100nuclide-577B.champsimtrace.xz
VBerti Prefetcher
BERTI HASH ENTANGLING
BERTI IP MASK ffff
Off-chip DRAM Size: 16 GiB Channels: 1 Width: 64-bit Data Rate: 3205 MT/s
Warmup halting CPU 0 at instruction 20000001 cycle 15487651 for remainder of phase
Warmup finished CPU 0 instructions: 20000001 cycles: 15487651 cumulative IPC: 1.291 (Simulation time: 00 hr 02 min 47 sec)
Warmup complete CPU 0 instructions: 20000001 cycles: 15487651 cumulative IPC: 1.291 (Simulation time: 00 hr 02 min 47 sec)
Simulation finished CPU 0 instructions: 50000000 cycles: 333546696 cumulative IPC: 0.1499 (Simulation time: 00 hr 25 min 17 sec)
Simulation complete CPU 0 instructions: 50000000 cycles: 333546696 cumulative IPC: 0.1499 (Simulation time: 00 hr 25 min 17 sec)

ChampSim completed all CPUs

=== Simulation ===
CPU 0 runs /data2/zcq/champsim_traces_xsbench/xs.XL100nuclide-577B.champsimtrace.xz

Region of Interest Statistics

CPU 0 cumulative IPC: 0.1499 instructions: 50000000 cycles: 333546696
CPU 0 Branch Prediction Accuracy: 87.26% MPKI: 21.33 Average ROB Occupancy at Mispredict: 26.05
Branch type MPKI
BRANCH_DIRECT_JUMP: 2e-05
BRANCH_INDIRECT: 0
BRANCH_CONDITIONAL: 21.33
BRANCH_DIRECT_CALL: 0
BRANCH_INDIRECT_CALL: 0
BRANCH_RETURN: 0

cpu0->cpu0_STLB TOTAL        ACCESS:    1904746 HIT:      74970 MISS:    1829776 MSHR_MERGE:          0
cpu0->cpu0_STLB LOAD         ACCESS:    1904746 HIT:      74970 MISS:    1829776 MSHR_MERGE:          0
cpu0->cpu0_STLB RFO          ACCESS:          0 HIT:          0 MISS:          0 MSHR_MERGE:          0
cpu0->cpu0_STLB PREFETCH     ACCESS:          0 HIT:          0 MISS:          0 MSHR_MERGE:          0
cpu0->cpu0_STLB WRITE        ACCESS:          0 HIT:          0 MISS:          0 MSHR_MERGE:          0
cpu0->cpu0_STLB TRANSLATION  ACCESS:          0 HIT:          0 MISS:          0 MSHR_MERGE:          0
cpu0->cpu0_STLB PREFETCH REQUESTED:          0 ISSUED:          0 USEFUL:          0 USELESS:          0 LATE:          0
cpu0->cpu0_STLB AVERAGE MISS LATENCY: 168.1 cycles
cpu0->cpu0_L2C TOTAL        ACCESS:    5027408 HIT:     752596 MISS:    4274812 MSHR_MERGE:       4451
cpu0->cpu0_L2C LOAD         ACCESS:    2935501 HIT:     126148 MISS:    2809353 MSHR_MERGE:         41
cpu0->cpu0_L2C RFO          ACCESS:       6383 HIT:       5883 MISS:        500 MSHR_MERGE:          0
cpu0->cpu0_L2C PREFETCH     ACCESS:     635318 HIT:     506809 MISS:     128509 MSHR_MERGE:       4410
cpu0->cpu0_L2C WRITE        ACCESS:       8963 HIT:       8917 MISS:         46 MSHR_MERGE:          0
cpu0->cpu0_L2C TRANSLATION  ACCESS:    1441243 HIT:     104839 MISS:    1336404 MSHR_MERGE:          0
cpu0->cpu0_L2C PREFETCH REQUESTED:     166121 ISSUED:     166121 USEFUL:       7720 USELESS:      80818 LATE:         41
cpu0->cpu0_L2C AVERAGE MISS LATENCY: 149.4 cycles
cpu0->cpu0_L1I TOTAL        ACCESS:      11051 HIT:      11050 MISS:          1 MSHR_MERGE:          0
cpu0->cpu0_L1I LOAD         ACCESS:      11051 HIT:      11050 MISS:          1 MSHR_MERGE:          0
cpu0->cpu0_L1I RFO          ACCESS:          0 HIT:          0 MISS:          0 MSHR_MERGE:          0
cpu0->cpu0_L1I PREFETCH     ACCESS:          0 HIT:          0 MISS:          0 MSHR_MERGE:          0
cpu0->cpu0_L1I WRITE        ACCESS:          0 HIT:          0 MISS:          0 MSHR_MERGE:          0
cpu0->cpu0_L1I TRANSLATION  ACCESS:          0 HIT:          0 MISS:          0 MSHR_MERGE:          0
cpu0->cpu0_L1I PREFETCH REQUESTED:          0 ISSUED:          0 USEFUL:          0 USELESS:          0 LATE:          0
cpu0->cpu0_L1I AVERAGE MISS LATENCY: 224 cycles
cpu0->cpu0_L1D TOTAL        ACCESS:   10719441 HIT:    5146703 MISS:    5572738 MSHR_MERGE:     720393
cpu0->cpu0_L1D LOAD         ACCESS:    4817700 HIT:    1828426 MISS:    2989274 MSHR_MERGE:      53774
cpu0->cpu0_L1D RFO          ACCESS:          0 HIT:          0 MISS:          0 MSHR_MERGE:          0
cpu0->cpu0_L1D PREFETCH     ACCESS:    1061915 HIT:     591954 MISS:     469961 MSHR_MERGE:        764
cpu0->cpu0_L1D WRITE        ACCESS:     948094 HIT:     921773 MISS:      26321 MSHR_MERGE:      19916
cpu0->cpu0_L1D TRANSLATION  ACCESS:    3891732 HIT:    1804550 MISS:    2087182 MSHR_MERGE:     645939
cpu0->cpu0_L1D PREFETCH REQUESTED:    1193603 ISSUED:    1061911 USEFUL:      19317 USELESS:      23577 LATE:        130
cpu0->cpu0_L1D AVERAGE MISS LATENCY: 150.4 cycles
cpu0->cpu0_ITLB TOTAL        ACCESS:       8958 HIT:       8958 MISS:          0 MSHR_MERGE:          0
cpu0->cpu0_ITLB LOAD         ACCESS:       8958 HIT:       8958 MISS:          0 MSHR_MERGE:          0
cpu0->cpu0_ITLB RFO          ACCESS:          0 HIT:          0 MISS:          0 MSHR_MERGE:          0
cpu0->cpu0_ITLB PREFETCH     ACCESS:          0 HIT:          0 MISS:          0 MSHR_MERGE:          0
cpu0->cpu0_ITLB WRITE        ACCESS:          0 HIT:          0 MISS:          0 MSHR_MERGE:          0
cpu0->cpu0_ITLB TRANSLATION  ACCESS:          0 HIT:          0 MISS:          0 MSHR_MERGE:          0
cpu0->cpu0_ITLB PREFETCH REQUESTED:          0 ISSUED:          0 USEFUL:          0 USELESS:          0 LATE:          0
cpu0->cpu0_ITLB AVERAGE MISS LATENCY: - cycles
cpu0->cpu0_DTLB TOTAL        ACCESS:    6484452 HIT:    4467001 MISS:    2017451 MSHR_MERGE:     112705
cpu0->cpu0_DTLB LOAD         ACCESS:    6484452 HIT:    4467001 MISS:    2017451 MSHR_MERGE:     112705
cpu0->cpu0_DTLB RFO          ACCESS:          0 HIT:          0 MISS:          0 MSHR_MERGE:          0
cpu0->cpu0_DTLB PREFETCH     ACCESS:          0 HIT:          0 MISS:          0 MSHR_MERGE:          0
cpu0->cpu0_DTLB WRITE        ACCESS:          0 HIT:          0 MISS:          0 MSHR_MERGE:          0
cpu0->cpu0_DTLB TRANSLATION  ACCESS:          0 HIT:          0 MISS:          0 MSHR_MERGE:          0
cpu0->cpu0_DTLB PREFETCH REQUESTED:          0 ISSUED:          0 USEFUL:          0 USELESS:          0 LATE:          0
cpu0->cpu0_DTLB AVERAGE MISS LATENCY: 167.4 cycles
cpu0->LLC TOTAL        ACCESS:    4272076 HIT:    1424210 MISS:    2847866 MSHR_MERGE:          0
cpu0->LLC LOAD         ACCESS:    2809312 HIT:     657363 MISS:    2151949 MSHR_MERGE:          0
cpu0->LLC RFO          ACCESS:        500 HIT:        500 MISS:          0 MSHR_MERGE:          0
cpu0->LLC PREFETCH     ACCESS:     124099 HIT:      40037 MISS:      84062 MSHR_MERGE:          0
cpu0->LLC WRITE        ACCESS:       1761 HIT:       1757 MISS:          4 MSHR_MERGE:          0
cpu0->LLC TRANSLATION  ACCESS:    1336404 HIT:     724553 MISS:     611851 MSHR_MERGE:          0
cpu0->LLC PREFETCH REQUESTED:          0 ISSUED:          0 USEFUL:          0 USELESS:          0 LATE:          0
cpu0->LLC AVERAGE MISS LATENCY: 200.6 cycles

DRAM Statistics

Channel 0 RQ ROW_BUFFER_HIT:      28924
  ROW_BUFFER_MISS:    2818937
  AVG DBUS CONGESTED CYCLE: 2.941
Channel 0 WQ ROW_BUFFER_HIT:          1
  ROW_BUFFER_MISS:          2
  FULL:          0
Channel 0 REFRESHES ISSUED:      27796

[ROI Statistics]
[System Configuration]
num_cpus 1
cpu_freq 4000
fetch_width 6
decode_width 6
dispatch_width 6
execute_width 6
lq_width 2
sq_width 2
retire_width 6
scheduler_size 128
branch_mispredict_penalty 15
rob_size 352
lq_size 128
sq_size 72
ifetch_buffer_size 64
decode_buffer_size 32
dispatch_buffer_size 32
register_file_size 288
decode_latency 1
dispatch_latency 1
schedule_latency 1
execute_latency 1
page_size 4096
block_size 64
core_0_itlb_set 16
core_0_itlb_way 4
core_0_itlb_rq_size 16
core_0_itlb_wq_size 16
core_0_itlb_pq_size 0
core_0_itlb_mshr_size 8
core_0_itlb_hit_latency 1
core_0_itlb_fill_latency 1
core_0_itlb_max_tag_check 2
core_0_itlb_max_fill 2
core_0_dtlb_set 16
core_0_dtlb_way 4
core_0_dtlb_rq_size 16
core_0_dtlb_wq_size 16
core_0_dtlb_pq_size 0
core_0_dtlb_mshr_size 8
core_0_dtlb_hit_latency 1
core_0_dtlb_fill_latency 1
core_0_dtlb_max_tag_check 2
core_0_dtlb_max_fill 2
core_0_stlb_set 128
core_0_stlb_way 12
core_0_stlb_rq_size 32
core_0_stlb_wq_size 32
core_0_stlb_pq_size 0
core_0_stlb_mshr_size 16
core_0_stlb_hit_latency 4
core_0_stlb_fill_latency 4
core_0_stlb_max_tag_check 1
core_0_stlb_max_fill 1
core_0_l1i_set 64
core_0_l1i_way 8
core_0_l1i_rq_size 64
core_0_l1i_wq_size 64
core_0_l1i_pq_size 32
core_0_l1i_mshr_size 8
core_0_l1i_hit_latency 2
core_0_l1i_fill_latency 2
core_0_l1i_max_tag_check 2
core_0_l1i_max_fill 2
core_0_l1d_set 64
core_0_l1d_way 12
core_0_l1d_rq_size 64
core_0_l1d_wq_size 64
core_0_l1d_pq_size 8
core_0_l1d_mshr_size 16
core_0_l1d_hit_latency 2
core_0_l1d_fill_latency 3
core_0_l1d_max_tag_check 2
core_0_l1d_max_fill 2
core_0_l2c_set 1024
core_0_l2c_way 8
core_0_l2c_rq_size 32
core_0_l2c_wq_size 32
core_0_l2c_pq_size 16
core_0_l2c_mshr_size 32
core_0_l2c_hit_latency 5
core_0_l2c_fill_latency 5
core_0_l2c_max_tag_check 1
core_0_l2c_max_fill 1
llc_set 2048
llc_way 16
llc_rq_size 32
llc_wq_size 32
llc_pq_size 32
llc_mshr_size 64
llc_hit_latency 10
llc_fill_latency 10
llc_max_tag_check 1
llc_max_fill 1
dram_channels 1
dram_ranks 1
dram_bankgroups 8
dram_banks 4
dram_rows 65536
dram_columns 1024
dram_channel_width 8
dram_rq_size 64
dram_wq_size 64
dram_size 17179869184
core_0_itlb_prefetcher no
core_0_dtlb_prefetcher no
core_0_stlb_prefetcher no
core_0_l1i_prefetcher next_line
core_0_l1d_prefetcher vberti
core_0_l2c_prefetcher ip_stride
llc_prefetcher no
llc_replacement drrip

Core_0_instructions 50000000
Core_0_cycles 333546696
Core_0_IPC 0.149904
Core_0_branch_prediction_accuracy 87.255
Core_0_branch_MPKI 21.3321
Core_0_average_ROB_occupancy_at_mispredict 26.0471

Core_0_ITLB_total_access 8958
Core_0_ITLB_total_hit 8958
Core_0_ITLB_total_miss 0
Core_0_ITLB_total_MPKI 0
Core_0_ITLB_total_miss_rate 0
Core_0_ITLB_demand_access 8958
Core_0_ITLB_demand_hit 8958
Core_0_ITLB_demand_miss 0
Core_0_ITLB_demand_MPKI 0
Core_0_ITLB_demand_miss_rate 0
Core_0_ITLB_load_access 8958
Core_0_ITLB_load_hit 8958
Core_0_ITLB_load_miss 0
Core_0_ITLB_load_MPKI 0
Core_0_ITLB_load_miss_rate 0
Core_0_ITLB_rfo_access 0
Core_0_ITLB_rfo_hit 0
Core_0_ITLB_rfo_miss 0
Core_0_ITLB_rfo_MPKI 0
Core_0_ITLB_rfo_miss_rate 0
Core_0_ITLB_prefetch_access 0
Core_0_ITLB_prefetch_hit 0
Core_0_ITLB_prefetch_miss 0
Core_0_ITLB_prefetch_MPKI 0
Core_0_ITLB_prefetch_miss_rate 0
Core_0_ITLB_writeback_access 0
Core_0_ITLB_writeback_hit 0
Core_0_ITLB_writeback_miss 0
Core_0_ITLB_writeback_MPKI 0
Core_0_ITLB_writeback_miss_rate 0
Core_0_ITLB_prefetch_requested 0
Core_0_ITLB_prefetch_issued 0
Core_0_ITLB_prefetch_useful 0
Core_0_ITLB_prefetch_useless 0
Core_0_ITLB_prefetch_late 0
Core_0_ITLB_prefetch_accuracy 0
Core_0_ITLB_prefetch_coverage 0
Core_0_ITLB_total_eviction 0

Core_0_DTLB_total_access 6484452
Core_0_DTLB_total_hit 4467001
Core_0_DTLB_total_miss 2017451
Core_0_DTLB_total_MPKI 40.349
Core_0_DTLB_total_miss_rate 0.311121
Core_0_DTLB_demand_access 6484452
Core_0_DTLB_demand_hit 4467001
Core_0_DTLB_demand_miss 2017451
Core_0_DTLB_demand_MPKI 40.349
Core_0_DTLB_demand_miss_rate 0.311121
Core_0_DTLB_load_access 6484452
Core_0_DTLB_load_hit 4467001
Core_0_DTLB_load_miss 2017451
Core_0_DTLB_load_MPKI 40.349
Core_0_DTLB_load_miss_rate 0.311121
Core_0_DTLB_rfo_access 0
Core_0_DTLB_rfo_hit 0
Core_0_DTLB_rfo_miss 0
Core_0_DTLB_rfo_MPKI 0
Core_0_DTLB_rfo_miss_rate 0
Core_0_DTLB_prefetch_access 0
Core_0_DTLB_prefetch_hit 0
Core_0_DTLB_prefetch_miss 0
Core_0_DTLB_prefetch_MPKI 0
Core_0_DTLB_prefetch_miss_rate 0
Core_0_DTLB_writeback_access 0
Core_0_DTLB_writeback_hit 0
Core_0_DTLB_writeback_miss 0
Core_0_DTLB_writeback_MPKI 0
Core_0_DTLB_writeback_miss_rate 0
Core_0_DTLB_prefetch_requested 0
Core_0_DTLB_prefetch_issued 0
Core_0_DTLB_prefetch_useful 0
Core_0_DTLB_prefetch_useless 0
Core_0_DTLB_prefetch_late 0
Core_0_DTLB_prefetch_accuracy 0
Core_0_DTLB_prefetch_coverage 0
Core_0_DTLB_total_eviction 1904754

Core_0_STLB_total_access 1904746
Core_0_STLB_total_hit 74970
Core_0_STLB_total_miss 1829776
Core_0_STLB_total_MPKI 36.5955
Core_0_STLB_total_miss_rate 0.96064
Core_0_STLB_demand_access 1904746
Core_0_STLB_demand_hit 74970
Core_0_STLB_demand_miss 1829776
Core_0_STLB_demand_MPKI 36.5955
Core_0_STLB_demand_miss_rate 0.96064
Core_0_STLB_load_access 1904746
Core_0_STLB_load_hit 74970
Core_0_STLB_load_miss 1829776
Core_0_STLB_load_MPKI 36.5955
Core_0_STLB_load_miss_rate 0.96064
Core_0_STLB_rfo_access 0
Core_0_STLB_rfo_hit 0
Core_0_STLB_rfo_miss 0
Core_0_STLB_rfo_MPKI 0
Core_0_STLB_rfo_miss_rate 0
Core_0_STLB_prefetch_access 0
Core_0_STLB_prefetch_hit 0
Core_0_STLB_prefetch_miss 0
Core_0_STLB_prefetch_MPKI 0
Core_0_STLB_prefetch_miss_rate 0
Core_0_STLB_writeback_access 0
Core_0_STLB_writeback_hit 0
Core_0_STLB_writeback_miss 0
Core_0_STLB_writeback_MPKI 0
Core_0_STLB_writeback_miss_rate 0
Core_0_STLB_prefetch_requested 0
Core_0_STLB_prefetch_issued 0
Core_0_STLB_prefetch_useful 0
Core_0_STLB_prefetch_useless 0
Core_0_STLB_prefetch_late 0
Core_0_STLB_prefetch_accuracy 0
Core_0_STLB_prefetch_coverage 0
Core_0_STLB_total_eviction 1830719

Core_0_L1I_total_access 11051
Core_0_L1I_total_hit 11050
Core_0_L1I_total_miss 1
Core_0_L1I_total_MPKI 2e-05
Core_0_L1I_total_miss_rate 9.04895e-05
Core_0_L1I_demand_access 11051
Core_0_L1I_demand_hit 11050
Core_0_L1I_demand_miss 1
Core_0_L1I_demand_MPKI 2e-05
Core_0_L1I_demand_miss_rate 9.04895e-05
Core_0_L1I_load_access 11051
Core_0_L1I_load_hit 11050
Core_0_L1I_load_miss 1
Core_0_L1I_load_MPKI 2e-05
Core_0_L1I_load_miss_rate 9.04895e-05
Core_0_L1I_rfo_access 0
Core_0_L1I_rfo_hit 0
Core_0_L1I_rfo_miss 0
Core_0_L1I_rfo_MPKI 0
Core_0_L1I_rfo_miss_rate 0
Core_0_L1I_prefetch_access 0
Core_0_L1I_prefetch_hit 0
Core_0_L1I_prefetch_miss 0
Core_0_L1I_prefetch_MPKI 0
Core_0_L1I_prefetch_miss_rate 0
Core_0_L1I_writeback_access 0
Core_0_L1I_writeback_hit 0
Core_0_L1I_writeback_miss 0
Core_0_L1I_writeback_MPKI 0
Core_0_L1I_writeback_miss_rate 0
Core_0_L1I_prefetch_requested 0
Core_0_L1I_prefetch_issued 0
Core_0_L1I_prefetch_useful 0
Core_0_L1I_prefetch_useless 0
Core_0_L1I_prefetch_late 0
Core_0_L1I_prefetch_accuracy 0
Core_0_L1I_prefetch_coverage 0
Core_0_L1I_total_eviction 0

Core_0_L1D_total_access 6827709
Core_0_L1D_total_hit 3342153
Core_0_L1D_total_miss 3485556
Core_0_L1D_total_MPKI 69.7111
Core_0_L1D_total_miss_rate 0.510502
Core_0_L1D_demand_access 4817700
Core_0_L1D_demand_hit 1828426
Core_0_L1D_demand_miss 2989274
Core_0_L1D_demand_MPKI 59.7855
Core_0_L1D_demand_miss_rate 0.620477
Core_0_L1D_load_access 4817700
Core_0_L1D_load_hit 1828426
Core_0_L1D_load_miss 2989274
Core_0_L1D_load_MPKI 59.7855
Core_0_L1D_load_miss_rate 0.620477
Core_0_L1D_rfo_access 0
Core_0_L1D_rfo_hit 0
Core_0_L1D_rfo_miss 0
Core_0_L1D_rfo_MPKI 0
Core_0_L1D_rfo_miss_rate 0
Core_0_L1D_prefetch_access 1061915
Core_0_L1D_prefetch_hit 591954
Core_0_L1D_prefetch_miss 469961
Core_0_L1D_prefetch_MPKI 9.39922
Core_0_L1D_prefetch_miss_rate 0.44256
Core_0_L1D_writeback_access 948094
Core_0_L1D_writeback_hit 921773
Core_0_L1D_writeback_miss 26321
Core_0_L1D_writeback_MPKI 0.52642
Core_0_L1D_writeback_miss_rate 0.027762
Core_0_L1D_prefetch_requested 1193603
Core_0_L1D_prefetch_issued 1061911
Core_0_L1D_prefetch_useful 19317
Core_0_L1D_prefetch_useless 23577
Core_0_L1D_prefetch_late 130
Core_0_L1D_prefetch_accuracy 0.0181908
Core_0_L1D_prefetch_coverage 0.00642061
Core_0_L1D_total_eviction 4426037

Core_0_L2C_total_access 3586165
Core_0_L2C_total_hit 647757
Core_0_L2C_total_miss 2938408
Core_0_L2C_total_MPKI 58.7682
Core_0_L2C_total_miss_rate 0.819373
Core_0_L2C_demand_access 2941884
Core_0_L2C_demand_hit 132031
Core_0_L2C_demand_miss 2809853
Core_0_L2C_demand_MPKI 56.1971
Core_0_L2C_demand_miss_rate 0.95512
Core_0_L2C_load_access 2935501
Core_0_L2C_load_hit 126148
Core_0_L2C_load_miss 2809353
Core_0_L2C_load_MPKI 56.1871
Core_0_L2C_load_miss_rate 0.957027
Core_0_L2C_rfo_access 6383
Core_0_L2C_rfo_hit 5883
Core_0_L2C_rfo_miss 500
Core_0_L2C_rfo_MPKI 0.01
Core_0_L2C_rfo_miss_rate 0.0783331
Core_0_L2C_prefetch_access 635318
Core_0_L2C_prefetch_hit 506809
Core_0_L2C_prefetch_miss 128509
Core_0_L2C_prefetch_MPKI 2.57018
Core_0_L2C_prefetch_miss_rate 0.202275
Core_0_L2C_writeback_access 8963
Core_0_L2C_writeback_hit 8917
Core_0_L2C_writeback_miss 46
Core_0_L2C_writeback_MPKI 0.00092
Core_0_L2C_writeback_miss_rate 0.00513221
Core_0_L2C_prefetch_requested 166121
Core_0_L2C_prefetch_issued 166121
Core_0_L2C_prefetch_useful 7720
Core_0_L2C_prefetch_useless 80818
Core_0_L2C_prefetch_late 41
Core_0_L2C_prefetch_accuracy 0.0464721
Core_0_L2C_prefetch_coverage 0.00273995
Core_0_L2C_total_eviction 4270354

Core_0_LLC_total_access 2935672
Core_0_LLC_total_hit 699657
Core_0_LLC_total_miss 2236015
Core_0_LLC_total_MPKI 44.7203
Core_0_LLC_total_miss_rate 0.761671
Core_0_LLC_demand_access 2809812
Core_0_LLC_demand_hit 657863
Core_0_LLC_demand_miss 2151949
Core_0_LLC_demand_MPKI 43.039
Core_0_LLC_demand_miss_rate 0.765869
Core_0_LLC_load_access 2809312
Core_0_LLC_load_hit 657363
Core_0_LLC_load_miss 2151949
Core_0_LLC_load_MPKI 43.039
Core_0_LLC_load_miss_rate 0.766006
Core_0_LLC_rfo_access 500
Core_0_LLC_rfo_hit 500
Core_0_LLC_rfo_miss 0
Core_0_LLC_rfo_MPKI 0
Core_0_LLC_rfo_miss_rate 0
Core_0_LLC_prefetch_access 124099
Core_0_LLC_prefetch_hit 40037
Core_0_LLC_prefetch_miss 84062
Core_0_LLC_prefetch_MPKI 1.68124
Core_0_LLC_prefetch_miss_rate 0.677379
Core_0_LLC_writeback_access 1761
Core_0_LLC_writeback_hit 1757
Core_0_LLC_writeback_miss 4
Core_0_LLC_writeback_MPKI 8e-05
Core_0_LLC_writeback_miss_rate 0.00227144
Core_0_LLC_prefetch_requested 0
Core_0_LLC_prefetch_issued 0
Core_0_LLC_prefetch_useful 0
Core_0_LLC_prefetch_useless 0
Core_0_LLC_prefetch_late 0
Core_0_LLC_prefetch_accuracy 0
Core_0_LLC_prefetch_coverage 0
Core_0_LLC_total_eviction 2847864

[DRAM Statistics]
Channel_0_RQ_row_buffer_hit 28924
Channel_0_RQ_row_buffer_miss 2818937
Channel_0_WQ_row_buffer_hit 1
Channel_0_WQ_row_buffer_miss 2
Channel_0_WQ_full 0
Channel_0_dbus_congested 3073050
DRAM_total_RQ_row_buffer_hit 28924
DRAM_total_RQ_row_buffer_miss 2818937
DRAM_total_WQ_row_buffer_hit 1
DRAM_total_WQ_row_buffer_miss 2
DRAM_total_WQ_full 0
DRAM_total_dbus_congested 3073050
DRAM_avg_congested_cycle 2.94071

======STLB miss causes ========
Core_0_STLB_miss_cause_breakdown
Core_0_STLB_cause_Demand_Data_miss 1829776
Core_0_STLB_cause_Demand_Data_miss_rate 0.96064
Core_0_STLB_cause_Demand_Instruction_miss 0
Core_0_STLB_cause_Demand_Instruction_miss_rate 0
Core_0_STLB_cause_L1D_Prefetch_miss 0
Core_0_STLB_cause_L1D_Prefetch_miss_rate 0
Core_0_STLB_cause_L1I_Prefetch_miss 0
Core_0_STLB_cause_L1I_Prefetch_miss_rate 0
Core_0_STLB_cause_Other_miss 0
Core_0_STLB_cause_Other_miss_rate 0
Core_0_STLB_Demand_miss 1829776
Core_0_STLB_Demand_miss_rate 0.96064
Core_0_STLB_L1D_Prefetch_miss 0
Core_0_STLB_L1D_Prefetch_miss_rate 0
Core_0_STLB_Other_miss 0
Core_0_STLB_Other_miss_rate 0
BERTI TO_L1: 713158 TO_L2: 755113 TO_L2_BC_MSHR: 3
BERTI AVG_LAT: 123.423 NUM_TRACK_LATENCY: 4168177 NUM_CANT_TRACK_LATENCY: 0
BERTI CROSS_PAGE 149404 NO_CROSS_PAGE: 1318867
BERTI FOUND_BERTI: 6023056 NO_FOUND_BERTI: 1790750
BERTI AVERAGE_ISSUED: 2.8335
