[VMEM] WARNING: physical memory size is smaller than virtual memory size.

*** ChampSim Multicore Out-of-Order Simulator ***
Warmup Instructions: 20000000
Simulation Instructions: 50000000
Number of CPUs: 1
Page size: 4096
Core 0: /data0/tzh/champsim_traces/Ligra/ligra_PageRankDelta.com-lj.ungraph.gcc_6.3.0_O3.drop_52000M.length_250M.champsimtrace.xz
 L1D Berti prefetcher
Off-chip DRAM Size: 16 GiB Channels: 1 Width: 64-bit Data Rate: 3205 MT/s
Warmup halting CPU 0 at instruction 20000004 cycle 4579265 for remainder of phase
Warmup finished CPU 0 instructions: 20000004 cycles: 4579265 cumulative IPC: 4.368 (Simulation time: 00 hr 01 min 11 sec)
Warmup complete CPU 0 instructions: 20000004 cycles: 4579265 cumulative IPC: 4.368 (Simulation time: 00 hr 01 min 11 sec)
Simulation finished CPU 0 instructions: 50000003 cycles: 88798432 cumulative IPC: 0.5631 (Simulation time: 00 hr 09 min 21 sec)
Simulation complete CPU 0 instructions: 50000003 cycles: 88798432 cumulative IPC: 0.5631 (Simulation time: 00 hr 09 min 21 sec)

ChampSim completed all CPUs

=== Simulation ===
CPU 0 runs /data0/tzh/champsim_traces/Ligra/ligra_PageRankDelta.com-lj.ungraph.gcc_6.3.0_O3.drop_52000M.length_250M.champsimtrace.xz

Region of Interest Statistics

CPU 0 cumulative IPC: 0.5631 instructions: 50000003 cycles: 88798432
CPU 0 Branch Prediction Accuracy: 90.09% MPKI: 10.67 Average ROB Occupancy at Mispredict: 43.72
Branch type MPKI
BRANCH_DIRECT_JUMP: 0
BRANCH_INDIRECT: 0
BRANCH_CONDITIONAL: 10.67
BRANCH_DIRECT_CALL: 0
BRANCH_INDIRECT_CALL: 0
BRANCH_RETURN: 0

cpu0->cpu0_STLB TOTAL        ACCESS:     384962 HIT:     199545 MISS:     185417 MSHR_MERGE:          0
cpu0->cpu0_STLB LOAD         ACCESS:     384962 HIT:     199545 MISS:     185417 MSHR_MERGE:          0
cpu0->cpu0_STLB RFO          ACCESS:          0 HIT:          0 MISS:          0 MSHR_MERGE:          0
cpu0->cpu0_STLB PREFETCH     ACCESS:          0 HIT:          0 MISS:          0 MSHR_MERGE:          0
cpu0->cpu0_STLB WRITE        ACCESS:          0 HIT:          0 MISS:          0 MSHR_MERGE:          0
cpu0->cpu0_STLB TRANSLATION  ACCESS:          0 HIT:          0 MISS:          0 MSHR_MERGE:          0
cpu0->cpu0_STLB PREFETCH REQUESTED:          0 ISSUED:          0 USEFUL:          0 USELESS:          0 LATE:          0
cpu0->cpu0_STLB AVERAGE MISS LATENCY: 30.34 cycles
cpu0->cpu0_L2C TOTAL        ACCESS:    4555536 HIT:    2864894 MISS:    1690642 MSHR_MERGE:     272048
cpu0->cpu0_L2C LOAD         ACCESS:     538246 HIT:      86235 MISS:     452011 MSHR_MERGE:      11654
cpu0->cpu0_L2C RFO          ACCESS:       1552 HIT:       1552 MISS:          0 MSHR_MERGE:          0
cpu0->cpu0_L2C PREFETCH     ACCESS:    3335231 HIT:    2120347 MISS:    1214884 MSHR_MERGE:     260394
cpu0->cpu0_L2C WRITE        ACCESS:     540316 HIT:     540297 MISS:         19 MSHR_MERGE:          0
cpu0->cpu0_L2C TRANSLATION  ACCESS:     140191 HIT:     116463 MISS:      23728 MSHR_MERGE:          0
cpu0->cpu0_L2C PREFETCH REQUESTED:    2890766 ISSUED:    2882503 USEFUL:     464853 USELESS:     430904 LATE:      11654
cpu0->cpu0_L2C AVERAGE MISS LATENCY: 196.1 cycles
cpu0->cpu0_L1I TOTAL        ACCESS:    1411479 HIT:    1411479 MISS:          0 MSHR_MERGE:          0
cpu0->cpu0_L1I LOAD         ACCESS:    1411479 HIT:    1411479 MISS:          0 MSHR_MERGE:          0
cpu0->cpu0_L1I RFO          ACCESS:          0 HIT:          0 MISS:          0 MSHR_MERGE:          0
cpu0->cpu0_L1I PREFETCH     ACCESS:          0 HIT:          0 MISS:          0 MSHR_MERGE:          0
cpu0->cpu0_L1I WRITE        ACCESS:          0 HIT:          0 MISS:          0 MSHR_MERGE:          0
cpu0->cpu0_L1I TRANSLATION  ACCESS:          0 HIT:          0 MISS:          0 MSHR_MERGE:          0
cpu0->cpu0_L1I PREFETCH REQUESTED:          0 ISSUED:          0 USEFUL:          0 USELESS:          0 LATE:          0
cpu0->cpu0_L1I AVERAGE MISS LATENCY: - cycles
cpu0->cpu0_L1D TOTAL        ACCESS:   16272770 HIT:   14985079 MISS:    1287691 MSHR_MERGE:     154900
cpu0->cpu0_L1D LOAD         ACCESS:   10685689 HIT:    9997113 MISS:     688576 MSHR_MERGE:     150330
cpu0->cpu0_L1D RFO          ACCESS:          0 HIT:          0 MISS:          0 MSHR_MERGE:          0
cpu0->cpu0_L1D PREFETCH     ACCESS:     493114 HIT:      37910 MISS:     455204 MSHR_MERGE:       2493
cpu0->cpu0_L1D WRITE        ACCESS:    4723591 HIT:    4720222 MISS:       3369 MSHR_MERGE:       1726
cpu0->cpu0_L1D TRANSLATION  ACCESS:     370376 HIT:     229834 MISS:     140542 MSHR_MERGE:        351
cpu0->cpu0_L1D PREFETCH REQUESTED:     493840 ISSUED:     493111 USEFUL:     390352 USELESS:      62358 LATE:       5441
cpu0->cpu0_L1D AVERAGE MISS LATENCY: 145.4 cycles
cpu0->cpu0_ITLB TOTAL        ACCESS:    1091958 HIT:    1091958 MISS:          0 MSHR_MERGE:          0
cpu0->cpu0_ITLB LOAD         ACCESS:    1091958 HIT:    1091958 MISS:          0 MSHR_MERGE:          0
cpu0->cpu0_ITLB RFO          ACCESS:          0 HIT:          0 MISS:          0 MSHR_MERGE:          0
cpu0->cpu0_ITLB PREFETCH     ACCESS:          0 HIT:          0 MISS:          0 MSHR_MERGE:          0
cpu0->cpu0_ITLB WRITE        ACCESS:          0 HIT:          0 MISS:          0 MSHR_MERGE:          0
cpu0->cpu0_ITLB TRANSLATION  ACCESS:          0 HIT:          0 MISS:          0 MSHR_MERGE:          0
cpu0->cpu0_ITLB PREFETCH REQUESTED:          0 ISSUED:          0 USEFUL:          0 USELESS:          0 LATE:          0
cpu0->cpu0_ITLB AVERAGE MISS LATENCY: - cycles
cpu0->cpu0_DTLB TOTAL        ACCESS:   15336913 HIT:   14865644 MISS:     471269 MSHR_MERGE:      86307
cpu0->cpu0_DTLB LOAD         ACCESS:   15336913 HIT:   14865644 MISS:     471269 MSHR_MERGE:      86307
cpu0->cpu0_DTLB RFO          ACCESS:          0 HIT:          0 MISS:          0 MSHR_MERGE:          0
cpu0->cpu0_DTLB PREFETCH     ACCESS:          0 HIT:          0 MISS:          0 MSHR_MERGE:          0
cpu0->cpu0_DTLB WRITE        ACCESS:          0 HIT:          0 MISS:          0 MSHR_MERGE:          0
cpu0->cpu0_DTLB TRANSLATION  ACCESS:          0 HIT:          0 MISS:          0 MSHR_MERGE:          0
cpu0->cpu0_DTLB PREFETCH REQUESTED:          0 ISSUED:          0 USEFUL:          0 USELESS:          0 LATE:          0
cpu0->cpu0_DTLB AVERAGE MISS LATENCY: 20.1 cycles
cpu0->LLC TOTAL        ACCESS:    1943089 HIT:     366145 MISS:    1576944 MSHR_MERGE:          0
cpu0->LLC LOAD         ACCESS:     440357 HIT:      78078 MISS:     362279 MSHR_MERGE:          0
cpu0->LLC RFO          ACCESS:          0 HIT:          0 MISS:          0 MSHR_MERGE:          0
cpu0->LLC PREFETCH     ACCESS:     954490 HIT:      98109 MISS:     856381 MSHR_MERGE:          0
cpu0->LLC WRITE        ACCESS:     524514 HIT:     168741 MISS:     355773 MSHR_MERGE:          0
cpu0->LLC TRANSLATION  ACCESS:      23728 HIT:      21217 MISS:       2511 MSHR_MERGE:          0
cpu0->LLC PREFETCH REQUESTED:          0 ISSUED:          0 USEFUL:          0 USELESS:          0 LATE:          0
cpu0->LLC AVERAGE MISS LATENCY: 120.8 cycles

DRAM Statistics

Channel 0 RQ ROW_BUFFER_HIT:       6671
  ROW_BUFFER_MISS:    1214238
  AVG DBUS CONGESTED CYCLE: 6.328
Channel 0 WQ ROW_BUFFER_HIT:     128946
  ROW_BUFFER_MISS:     302470
  FULL:          0
Channel 0 REFRESHES ISSUED:       7400

[ROI Statistics]
[System Configuration]
num_cpus 1
cpu_freq 4000
fetch_width 6
decode_width 6
dispatch_width 6
execute_width 6
lq_width 2
sq_width 2
retire_width 6
scheduler_size 128
branch_mispredict_penalty 15
rob_size 352
lq_size 128
sq_size 72
ifetch_buffer_size 64
decode_buffer_size 32
dispatch_buffer_size 32
register_file_size 288
decode_latency 1
dispatch_latency 1
schedule_latency 1
execute_latency 1
page_size 4096
block_size 64
core_0_itlb_set 16
core_0_itlb_way 4
core_0_itlb_rq_size 16
core_0_itlb_wq_size 16
core_0_itlb_pq_size 0
core_0_itlb_mshr_size 8
core_0_itlb_hit_latency 1
core_0_itlb_fill_latency 1
core_0_itlb_max_tag_check 2
core_0_itlb_max_fill 2
core_0_dtlb_set 16
core_0_dtlb_way 4
core_0_dtlb_rq_size 16
core_0_dtlb_wq_size 16
core_0_dtlb_pq_size 0
core_0_dtlb_mshr_size 8
core_0_dtlb_hit_latency 1
core_0_dtlb_fill_latency 1
core_0_dtlb_max_tag_check 2
core_0_dtlb_max_fill 2
core_0_stlb_set 128
core_0_stlb_way 12
core_0_stlb_rq_size 32
core_0_stlb_wq_size 32
core_0_stlb_pq_size 0
core_0_stlb_mshr_size 16
core_0_stlb_hit_latency 4
core_0_stlb_fill_latency 4
core_0_stlb_max_tag_check 1
core_0_stlb_max_fill 1
core_0_l1i_set 64
core_0_l1i_way 8
core_0_l1i_rq_size 64
core_0_l1i_wq_size 64
core_0_l1i_pq_size 32
core_0_l1i_mshr_size 8
core_0_l1i_hit_latency 2
core_0_l1i_fill_latency 2
core_0_l1i_max_tag_check 2
core_0_l1i_max_fill 2
core_0_l1d_set 64
core_0_l1d_way 12
core_0_l1d_rq_size 64
core_0_l1d_wq_size 64
core_0_l1d_pq_size 8
core_0_l1d_mshr_size 16
core_0_l1d_hit_latency 2
core_0_l1d_fill_latency 3
core_0_l1d_max_tag_check 2
core_0_l1d_max_fill 2
core_0_l2c_set 1024
core_0_l2c_way 8
core_0_l2c_rq_size 32
core_0_l2c_wq_size 32
core_0_l2c_pq_size 16
core_0_l2c_mshr_size 32
core_0_l2c_hit_latency 5
core_0_l2c_fill_latency 5
core_0_l2c_max_tag_check 1
core_0_l2c_max_fill 1
llc_set 2048
llc_way 16
llc_rq_size 32
llc_wq_size 32
llc_pq_size 32
llc_mshr_size 64
llc_hit_latency 10
llc_fill_latency 10
llc_max_tag_check 1
llc_max_fill 1
dram_channels 1
dram_ranks 1
dram_bankgroups 8
dram_banks 4
dram_rows 65536
dram_columns 1024
dram_channel_width 8
dram_rq_size 64
dram_wq_size 64
dram_size 17179869184
core_0_itlb_prefetcher no
core_0_dtlb_prefetcher no
core_0_stlb_prefetcher no
core_0_l1i_prefetcher next_line
core_0_l1d_prefetcher berti
core_0_l2c_prefetcher pythia
llc_prefetcher no
llc_replacement drrip

Core_0_instructions 50000003
Core_0_cycles 88798432
Core_0_IPC 0.563073
Core_0_branch_prediction_accuracy 90.0906
Core_0_branch_MPKI 10.6679
Core_0_average_ROB_occupancy_at_mispredict 43.7186

Core_0_ITLB_total_access 1091958
Core_0_ITLB_total_hit 1091958
Core_0_ITLB_total_miss 0
Core_0_ITLB_total_MPKI 0
Core_0_ITLB_total_miss_rate 0
Core_0_ITLB_demand_access 1091958
Core_0_ITLB_demand_hit 1091958
Core_0_ITLB_demand_miss 0
Core_0_ITLB_demand_MPKI 0
Core_0_ITLB_demand_miss_rate 0
Core_0_ITLB_load_access 1091958
Core_0_ITLB_load_hit 1091958
Core_0_ITLB_load_miss 0
Core_0_ITLB_load_MPKI 0
Core_0_ITLB_load_miss_rate 0
Core_0_ITLB_rfo_access 0
Core_0_ITLB_rfo_hit 0
Core_0_ITLB_rfo_miss 0
Core_0_ITLB_rfo_MPKI 0
Core_0_ITLB_rfo_miss_rate 0
Core_0_ITLB_prefetch_access 0
Core_0_ITLB_prefetch_hit 0
Core_0_ITLB_prefetch_miss 0
Core_0_ITLB_prefetch_MPKI 0
Core_0_ITLB_prefetch_miss_rate 0
Core_0_ITLB_writeback_access 0
Core_0_ITLB_writeback_hit 0
Core_0_ITLB_writeback_miss 0
Core_0_ITLB_writeback_MPKI 0
Core_0_ITLB_writeback_miss_rate 0
Core_0_ITLB_prefetch_requested 0
Core_0_ITLB_prefetch_issued 0
Core_0_ITLB_prefetch_useful 0
Core_0_ITLB_prefetch_useless 0
Core_0_ITLB_prefetch_late 0
Core_0_ITLB_prefetch_accuracy 0
Core_0_ITLB_prefetch_coverage 0

Core_0_DTLB_total_access 15336913
Core_0_DTLB_total_hit 14865644
Core_0_DTLB_total_miss 471269
Core_0_DTLB_total_MPKI 9.42538
Core_0_DTLB_total_miss_rate 0.0307278
Core_0_DTLB_demand_access 15336913
Core_0_DTLB_demand_hit 14865644
Core_0_DTLB_demand_miss 471269
Core_0_DTLB_demand_MPKI 9.42538
Core_0_DTLB_demand_miss_rate 0.0307278
Core_0_DTLB_load_access 15336913
Core_0_DTLB_load_hit 14865644
Core_0_DTLB_load_miss 471269
Core_0_DTLB_load_MPKI 9.42538
Core_0_DTLB_load_miss_rate 0.0307278
Core_0_DTLB_rfo_access 0
Core_0_DTLB_rfo_hit 0
Core_0_DTLB_rfo_miss 0
Core_0_DTLB_rfo_MPKI 0
Core_0_DTLB_rfo_miss_rate 0
Core_0_DTLB_prefetch_access 0
Core_0_DTLB_prefetch_hit 0
Core_0_DTLB_prefetch_miss 0
Core_0_DTLB_prefetch_MPKI 0
Core_0_DTLB_prefetch_miss_rate 0
Core_0_DTLB_writeback_access 0
Core_0_DTLB_writeback_hit 0
Core_0_DTLB_writeback_miss 0
Core_0_DTLB_writeback_MPKI 0
Core_0_DTLB_writeback_miss_rate 0
Core_0_DTLB_prefetch_requested 0
Core_0_DTLB_prefetch_issued 0
Core_0_DTLB_prefetch_useful 0
Core_0_DTLB_prefetch_useless 0
Core_0_DTLB_prefetch_late 0
Core_0_DTLB_prefetch_accuracy 0
Core_0_DTLB_prefetch_coverage 0

Core_0_STLB_total_access 384962
Core_0_STLB_total_hit 199545
Core_0_STLB_total_miss 185417
Core_0_STLB_total_MPKI 3.70834
Core_0_STLB_total_miss_rate 0.48165
Core_0_STLB_demand_access 384962
Core_0_STLB_demand_hit 199545
Core_0_STLB_demand_miss 185417
Core_0_STLB_demand_MPKI 3.70834
Core_0_STLB_demand_miss_rate 0.48165
Core_0_STLB_load_access 384962
Core_0_STLB_load_hit 199545
Core_0_STLB_load_miss 185417
Core_0_STLB_load_MPKI 3.70834
Core_0_STLB_load_miss_rate 0.48165
Core_0_STLB_rfo_access 0
Core_0_STLB_rfo_hit 0
Core_0_STLB_rfo_miss 0
Core_0_STLB_rfo_MPKI 0
Core_0_STLB_rfo_miss_rate 0
Core_0_STLB_prefetch_access 0
Core_0_STLB_prefetch_hit 0
Core_0_STLB_prefetch_miss 0
Core_0_STLB_prefetch_MPKI 0
Core_0_STLB_prefetch_miss_rate 0
Core_0_STLB_writeback_access 0
Core_0_STLB_writeback_hit 0
Core_0_STLB_writeback_miss 0
Core_0_STLB_writeback_MPKI 0
Core_0_STLB_writeback_miss_rate 0
Core_0_STLB_prefetch_requested 0
Core_0_STLB_prefetch_issued 0
Core_0_STLB_prefetch_useful 0
Core_0_STLB_prefetch_useless 0
Core_0_STLB_prefetch_late 0
Core_0_STLB_prefetch_accuracy 0
Core_0_STLB_prefetch_coverage 0

Core_0_L1I_total_access 1411479
Core_0_L1I_total_hit 1411479
Core_0_L1I_total_miss 0
Core_0_L1I_total_MPKI 0
Core_0_L1I_total_miss_rate 0
Core_0_L1I_demand_access 1411479
Core_0_L1I_demand_hit 1411479
Core_0_L1I_demand_miss 0
Core_0_L1I_demand_MPKI 0
Core_0_L1I_demand_miss_rate 0
Core_0_L1I_load_access 1411479
Core_0_L1I_load_hit 1411479
Core_0_L1I_load_miss 0
Core_0_L1I_load_MPKI 0
Core_0_L1I_load_miss_rate 0
Core_0_L1I_rfo_access 0
Core_0_L1I_rfo_hit 0
Core_0_L1I_rfo_miss 0
Core_0_L1I_rfo_MPKI 0
Core_0_L1I_rfo_miss_rate 0
Core_0_L1I_prefetch_access 0
Core_0_L1I_prefetch_hit 0
Core_0_L1I_prefetch_miss 0
Core_0_L1I_prefetch_MPKI 0
Core_0_L1I_prefetch_miss_rate 0
Core_0_L1I_writeback_access 0
Core_0_L1I_writeback_hit 0
Core_0_L1I_writeback_miss 0
Core_0_L1I_writeback_MPKI 0
Core_0_L1I_writeback_miss_rate 0
Core_0_L1I_prefetch_requested 0
Core_0_L1I_prefetch_issued 0
Core_0_L1I_prefetch_useful 0
Core_0_L1I_prefetch_useless 0
Core_0_L1I_prefetch_late 0
Core_0_L1I_prefetch_accuracy 0
Core_0_L1I_prefetch_coverage 0

Core_0_L1D_total_access 15902394
Core_0_L1D_total_hit 14755245
Core_0_L1D_total_miss 1147149
Core_0_L1D_total_MPKI 22.943
Core_0_L1D_total_miss_rate 0.0721369
Core_0_L1D_demand_access 10685689
Core_0_L1D_demand_hit 9997113
Core_0_L1D_demand_miss 688576
Core_0_L1D_demand_MPKI 13.7715
Core_0_L1D_demand_miss_rate 0.0644391
Core_0_L1D_load_access 10685689
Core_0_L1D_load_hit 9997113
Core_0_L1D_load_miss 688576
Core_0_L1D_load_MPKI 13.7715
Core_0_L1D_load_miss_rate 0.0644391
Core_0_L1D_rfo_access 0
Core_0_L1D_rfo_hit 0
Core_0_L1D_rfo_miss 0
Core_0_L1D_rfo_MPKI 0
Core_0_L1D_rfo_miss_rate 0
Core_0_L1D_prefetch_access 493114
Core_0_L1D_prefetch_hit 37910
Core_0_L1D_prefetch_miss 455204
Core_0_L1D_prefetch_MPKI 9.10408
Core_0_L1D_prefetch_miss_rate 0.923121
Core_0_L1D_writeback_access 4723591
Core_0_L1D_writeback_hit 4720222
Core_0_L1D_writeback_miss 3369
Core_0_L1D_writeback_MPKI 0.06738
Core_0_L1D_writeback_miss_rate 0.000713229
Core_0_L1D_prefetch_requested 493840
Core_0_L1D_prefetch_issued 493111
Core_0_L1D_prefetch_useful 390352
Core_0_L1D_prefetch_useless 62358
Core_0_L1D_prefetch_late 5441
Core_0_L1D_prefetch_accuracy 0.791611
Core_0_L1D_prefetch_coverage 0.361796

Core_0_L2C_total_access 4415345
Core_0_L2C_total_hit 2748431
Core_0_L2C_total_miss 1666914
Core_0_L2C_total_MPKI 33.3383
Core_0_L2C_total_miss_rate 0.377527
Core_0_L2C_demand_access 539798
Core_0_L2C_demand_hit 87787
Core_0_L2C_demand_miss 452011
Core_0_L2C_demand_MPKI 9.04022
Core_0_L2C_demand_miss_rate 0.837371
Core_0_L2C_load_access 538246
Core_0_L2C_load_hit 86235
Core_0_L2C_load_miss 452011
Core_0_L2C_load_MPKI 9.04022
Core_0_L2C_load_miss_rate 0.839785
Core_0_L2C_rfo_access 1552
Core_0_L2C_rfo_hit 1552
Core_0_L2C_rfo_miss 0
Core_0_L2C_rfo_MPKI 0
Core_0_L2C_rfo_miss_rate 0
Core_0_L2C_prefetch_access 3335231
Core_0_L2C_prefetch_hit 2120347
Core_0_L2C_prefetch_miss 1214884
Core_0_L2C_prefetch_MPKI 24.2977
Core_0_L2C_prefetch_miss_rate 0.364258
Core_0_L2C_writeback_access 540316
Core_0_L2C_writeback_hit 540297
Core_0_L2C_writeback_miss 19
Core_0_L2C_writeback_MPKI 0.00038
Core_0_L2C_writeback_miss_rate 3.51646e-05
Core_0_L2C_prefetch_requested 2890766
Core_0_L2C_prefetch_issued 2882503
Core_0_L2C_prefetch_useful 464853
Core_0_L2C_prefetch_useless 430904
Core_0_L2C_prefetch_late 11654
Core_0_L2C_prefetch_accuracy 0.161267
Core_0_L2C_prefetch_coverage 0.507003

Core_0_LLC_total_access 1919361
Core_0_LLC_total_hit 344928
Core_0_LLC_total_miss 1574433
Core_0_LLC_total_MPKI 31.4887
Core_0_LLC_total_miss_rate 0.82029
Core_0_LLC_demand_access 440357
Core_0_LLC_demand_hit 78078
Core_0_LLC_demand_miss 362279
Core_0_LLC_demand_MPKI 7.24558
Core_0_LLC_demand_miss_rate 0.822694
Core_0_LLC_load_access 440357
Core_0_LLC_load_hit 78078
Core_0_LLC_load_miss 362279
Core_0_LLC_load_MPKI 7.24558
Core_0_LLC_load_miss_rate 0.822694
Core_0_LLC_rfo_access 0
Core_0_LLC_rfo_hit 0
Core_0_LLC_rfo_miss 0
Core_0_LLC_rfo_MPKI 0
Core_0_LLC_rfo_miss_rate 0
Core_0_LLC_prefetch_access 954490
Core_0_LLC_prefetch_hit 98109
Core_0_LLC_prefetch_miss 856381
Core_0_LLC_prefetch_MPKI 17.1276
Core_0_LLC_prefetch_miss_rate 0.897213
Core_0_LLC_writeback_access 524514
Core_0_LLC_writeback_hit 168741
Core_0_LLC_writeback_miss 355773
Core_0_LLC_writeback_MPKI 7.11546
Core_0_LLC_writeback_miss_rate 0.678291
Core_0_LLC_prefetch_requested 0
Core_0_LLC_prefetch_issued 0
Core_0_LLC_prefetch_useful 0
Core_0_LLC_prefetch_useless 0
Core_0_LLC_prefetch_late 0
Core_0_LLC_prefetch_accuracy 0
Core_0_LLC_prefetch_coverage 0

[DRAM Statistics]
Channel_0_RQ_row_buffer_hit 6671
Channel_0_RQ_row_buffer_miss 1214238
Channel_0_WQ_row_buffer_hit 128946
Channel_0_WQ_row_buffer_miss 302470
Channel_0_WQ_full 0
Channel_0_dbus_congested 4432931
DRAM_total_RQ_row_buffer_hit 6671
DRAM_total_RQ_row_buffer_miss 1214238
DRAM_total_WQ_row_buffer_hit 128946
DRAM_total_WQ_row_buffer_miss 302470
DRAM_total_WQ_full 0
DRAM_total_dbus_congested 4432931
DRAM_avg_congested_cycle 6.32806

====== DRAM_RQ_TRAFFIC ========
DRAM_RQ_READ_TRAFFIC_BREAKDOWN:
data_demand_read.count = 362279
data_demand_read.share = 29.67%

inst_demand_read.count = 0
inst_demand_read.share = 0.00%

cache_inst_prefetch.count = 0
cache_inst_prefetch.share = 0.00%

cache_data_prefetch.count = 856381
cache_data_prefetch.share = 70.13%

stlb_data_demand.count = 2205
stlb_data_demand.share = 0.18%

stlb_inst_demand.count = 0
stlb_inst_demand.share = 0.00%

stlb_l1i_pref.count = 0
stlb_l1i_pref.share = 0.00%

stlb_l1d_pref.count = 306
stlb_l1d_pref.share = 0.03%

DRAM_RQ_READ_TRAFFIC_SUMMARY:
cache_demand.count = 362279
cache_demand.share = 29.67%

cache_prefetch.count = 856381
cache_prefetch.share = 70.13%

stlb_demand.count = 2205
stlb_demand.share = 0.18%

stlb_prefetch.count = 306
stlb_prefetch.share = 0.03%

DRAM_RQ_READ_TRAFFIC_DEBUG:
total_classified_read.count = 1221171
unclassified_read.count = 0
total_read_with_other.count = 1221171

classified_plus_unclassified_check.count = 1221171
dram_rq_read_total_observed.count = 1221171
dram_rq_read_total_observed.per_1K_instructions = 24.4234

STLB_MISS_PTW_DRAM_TOUCH_BREAKDOWN:
stlb_miss_total.count = 185417

stlb_miss_touch_dram.count = 2498
stlb_miss_touch_dram.share = 1.35%

stlb_miss_no_dram_touch.count = 182919
stlb_miss_no_dram_touch.share = 98.65%

STLB_MISS_PTW_DRAM_TOUCH_DEBUG:
stlb_miss_touch_plus_no_touch.count = 185417
stlb_miss_total_check.count = 185417

======STLB miss causes ========
Core_0_STLB_miss_cause_breakdown
Core_0_STLB_cause_Demand_Data_miss 181357
Core_0_STLB_cause_Demand_Data_miss_rate 0.471104
Core_0_STLB_cause_Demand_Instruction_miss 0
Core_0_STLB_cause_Demand_Instruction_miss_rate 0
Core_0_STLB_cause_L1D_Prefetch_miss 4060
Core_0_STLB_cause_L1D_Prefetch_miss_rate 0.0105465
Core_0_STLB_cause_L1I_Prefetch_miss 0
Core_0_STLB_cause_L1I_Prefetch_miss_rate 0
Core_0_STLB_cause_Other_miss 0
Core_0_STLB_cause_Other_miss_rate 0
Core_0_STLB_Demand_miss 181357
Core_0_STLB_Demand_miss_rate 0.471104
Core_0_STLB_L1D_Prefetch_miss 4060
Core_0_STLB_L1D_Prefetch_miss_rate 0.0105465
Core_0_STLB_Other_miss 0
Core_0_STLB_Other_miss_rate 0
