[VMEM] WARNING: physical memory size is smaller than virtual memory size.

*** ChampSim Multicore Out-of-Order Simulator ***
Warmup Instructions: 20000000
Simulation Instructions: 50000000
Number of CPUs: 1
Page size: 4096
STLB ideal mode: demand
Core 0: /data0/tzh/champsim_traces/SPEC06/459.GemsFDTD-1211B.champsimtrace.xz
 L1D Berti prefetcher
Off-chip DRAM Size: 16 GiB Channels: 1 Width: 64-bit Data Rate: 3205 MT/s
Warmup halting CPU 0 at instruction 20000001 cycle 6042173 for remainder of phase
Warmup finished CPU 0 instructions: 20000001 cycles: 6042173 cumulative IPC: 3.31 (Simulation time: 00 hr 01 min 16 sec)
Warmup complete CPU 0 instructions: 20000001 cycles: 6042173 cumulative IPC: 3.31 (Simulation time: 00 hr 01 min 16 sec)
Simulation finished CPU 0 instructions: 50000003 cycles: 43531106 cumulative IPC: 1.149 (Simulation time: 00 hr 07 min 51 sec)
Simulation complete CPU 0 instructions: 50000003 cycles: 43531106 cumulative IPC: 1.149 (Simulation time: 00 hr 07 min 51 sec)

ChampSim completed all CPUs

=== Simulation ===
CPU 0 runs /data0/tzh/champsim_traces/SPEC06/459.GemsFDTD-1211B.champsimtrace.xz

Region of Interest Statistics

CPU 0 cumulative IPC: 1.149 instructions: 50000003 cycles: 43531106
CPU 0 Branch Prediction Accuracy: 99.9% MPKI: 0.00598 Average ROB Occupancy at Mispredict: 322.3
Branch type MPKI
BRANCH_DIRECT_JUMP: 0
BRANCH_INDIRECT: 0
BRANCH_CONDITIONAL: 0.00598
BRANCH_DIRECT_CALL: 0
BRANCH_INDIRECT_CALL: 0
BRANCH_RETURN: 0

cpu0->cpu0_STLB TOTAL        ACCESS:     388909 HIT:     347312 MISS:      41597 MSHR_MERGE:          0
cpu0->cpu0_STLB LOAD         ACCESS:     388909 HIT:     347312 MISS:      41597 MSHR_MERGE:          0
cpu0->cpu0_STLB RFO          ACCESS:          0 HIT:          0 MISS:          0 MSHR_MERGE:          0
cpu0->cpu0_STLB PREFETCH     ACCESS:          0 HIT:          0 MISS:          0 MSHR_MERGE:          0
cpu0->cpu0_STLB WRITE        ACCESS:          0 HIT:          0 MISS:          0 MSHR_MERGE:          0
cpu0->cpu0_STLB TRANSLATION  ACCESS:          0 HIT:          0 MISS:          0 MSHR_MERGE:          0
cpu0->cpu0_STLB PREFETCH REQUESTED:          0 ISSUED:          0 USEFUL:          0 USELESS:          0 LATE:          0
cpu0->cpu0_STLB AVERAGE MISS LATENCY: 261.1 cycles
cpu0->cpu0_L2C TOTAL        ACCESS:    1184373 HIT:     484191 MISS:     700182 MSHR_MERGE:       1600
cpu0->cpu0_L2C LOAD         ACCESS:     317631 HIT:      68338 MISS:     249293 MSHR_MERGE:          2
cpu0->cpu0_L2C RFO          ACCESS:        821 HIT:        816 MISS:          5 MSHR_MERGE:          0
cpu0->cpu0_L2C PREFETCH     ACCESS:     557672 HIT:     119949 MISS:     437723 MSHR_MERGE:       1598
cpu0->cpu0_L2C WRITE        ACCESS:     292466 HIT:     292461 MISS:          5 MSHR_MERGE:          0
cpu0->cpu0_L2C TRANSLATION  ACCESS:      15783 HIT:       2627 MISS:      13156 MSHR_MERGE:          0
cpu0->cpu0_L2C PREFETCH REQUESTED:      52894 ISSUED:      52894 USEFUL:      16084 USELESS:       4735 LATE:          2
cpu0->cpu0_L2C AVERAGE MISS LATENCY: 276.9 cycles
cpu0->cpu0_L1I TOTAL        ACCESS:   13889741 HIT:   13889649 MISS:         92 MSHR_MERGE:         38
cpu0->cpu0_L1I LOAD         ACCESS:   13889741 HIT:   13889649 MISS:         92 MSHR_MERGE:         38
cpu0->cpu0_L1I RFO          ACCESS:          0 HIT:          0 MISS:          0 MSHR_MERGE:          0
cpu0->cpu0_L1I PREFETCH     ACCESS:          0 HIT:          0 MISS:          0 MSHR_MERGE:          0
cpu0->cpu0_L1I WRITE        ACCESS:          0 HIT:          0 MISS:          0 MSHR_MERGE:          0
cpu0->cpu0_L1I TRANSLATION  ACCESS:          0 HIT:          0 MISS:          0 MSHR_MERGE:          0
cpu0->cpu0_L1I PREFETCH REQUESTED:          0 ISSUED:          0 USEFUL:          0 USELESS:          0 LATE:          0
cpu0->cpu0_L1I AVERAGE MISS LATENCY: 332.5 cycles
cpu0->cpu0_L1D TOTAL        ACCESS:   25786168 HIT:   24881777 MISS:     904391 MSHR_MERGE:      65413
cpu0->cpu0_L1D LOAD         ACCESS:   21327041 HIT:   20954010 MISS:     373031 MSHR_MERGE:      55454
cpu0->cpu0_L1D RFO          ACCESS:          0 HIT:          0 MISS:          0 MSHR_MERGE:          0
cpu0->cpu0_L1D PREFETCH     ACCESS:     662007 HIT:     152128 MISS:     509879 MSHR_MERGE:       5101
cpu0->cpu0_L1D WRITE        ACCESS:    3713679 HIT:    3707990 MISS:       5689 MSHR_MERGE:       4849
cpu0->cpu0_L1D TRANSLATION  ACCESS:      83441 HIT:      67649 MISS:      15792 MSHR_MERGE:          9
cpu0->cpu0_L1D PREFETCH REQUESTED:     667570 ISSUED:     662000 USEFUL:     344333 USELESS:     160360 LATE:      17376
cpu0->cpu0_L1D AVERAGE MISS LATENCY: 226.8 cycles
cpu0->cpu0_ITLB TOTAL        ACCESS:   11826366 HIT:   11826364 MISS:          2 MSHR_MERGE:          1
cpu0->cpu0_ITLB LOAD         ACCESS:   11826366 HIT:   11826364 MISS:          2 MSHR_MERGE:          1
cpu0->cpu0_ITLB RFO          ACCESS:          0 HIT:          0 MISS:          0 MSHR_MERGE:          0
cpu0->cpu0_ITLB PREFETCH     ACCESS:          0 HIT:          0 MISS:          0 MSHR_MERGE:          0
cpu0->cpu0_ITLB WRITE        ACCESS:          0 HIT:          0 MISS:          0 MSHR_MERGE:          0
cpu0->cpu0_ITLB TRANSLATION  ACCESS:          0 HIT:          0 MISS:          0 MSHR_MERGE:          0
cpu0->cpu0_ITLB PREFETCH REQUESTED:          0 ISSUED:          0 USEFUL:          0 USELESS:          0 LATE:          0
cpu0->cpu0_ITLB AVERAGE MISS LATENCY: 5 cycles
cpu0->cpu0_DTLB TOTAL        ACCESS:   24837821 HIT:   24321256 MISS:     516565 MSHR_MERGE:     127657
cpu0->cpu0_DTLB LOAD         ACCESS:   24837821 HIT:   24321256 MISS:     516565 MSHR_MERGE:     127657
cpu0->cpu0_DTLB RFO          ACCESS:          0 HIT:          0 MISS:          0 MSHR_MERGE:          0
cpu0->cpu0_DTLB PREFETCH     ACCESS:          0 HIT:          0 MISS:          0 MSHR_MERGE:          0
cpu0->cpu0_DTLB WRITE        ACCESS:          0 HIT:          0 MISS:          0 MSHR_MERGE:          0
cpu0->cpu0_DTLB TRANSLATION  ACCESS:          0 HIT:          0 MISS:          0 MSHR_MERGE:          0
cpu0->cpu0_DTLB PREFETCH REQUESTED:          0 ISSUED:          0 USEFUL:          0 USELESS:          0 LATE:          0
cpu0->cpu0_DTLB AVERAGE MISS LATENCY: 33.04 cycles
cpu0->LLC TOTAL        ACCESS:     989959 HIT:     302952 MISS:     687007 MSHR_MERGE:          1
cpu0->LLC LOAD         ACCESS:     249291 HIT:      13655 MISS:     235636 MSHR_MERGE:          0
cpu0->LLC RFO          ACCESS:          5 HIT:          0 MISS:          5 MSHR_MERGE:          0
cpu0->LLC PREFETCH     ACCESS:     436124 HIT:      33091 MISS:     403033 MSHR_MERGE:          1
cpu0->LLC WRITE        ACCESS:     291383 HIT:     255905 MISS:      35478 MSHR_MERGE:          0
cpu0->LLC TRANSLATION  ACCESS:      13156 HIT:        301 MISS:      12855 MSHR_MERGE:          0
cpu0->LLC PREFETCH REQUESTED:          0 ISSUED:          0 USEFUL:          0 USELESS:          0 LATE:          0
cpu0->LLC AVERAGE MISS LATENCY: 242.3 cycles

DRAM Statistics

Channel 0 RQ ROW_BUFFER_HIT:       7130
  ROW_BUFFER_MISS:     644395
  AVG DBUS CONGESTED CYCLE: 10.09
Channel 0 WQ ROW_BUFFER_HIT:      61759
  ROW_BUFFER_MISS:     229349
  FULL:          0
Channel 0 REFRESHES ISSUED:       3628

[ROI Statistics]
[System Configuration]
num_cpus 1
cpu_freq 4000
fetch_width 6
decode_width 6
dispatch_width 6
execute_width 6
lq_width 2
sq_width 2
retire_width 6
scheduler_size 128
branch_mispredict_penalty 15
rob_size 352
lq_size 128
sq_size 72
ifetch_buffer_size 64
decode_buffer_size 32
dispatch_buffer_size 32
register_file_size 288
decode_latency 1
dispatch_latency 1
schedule_latency 1
execute_latency 1
page_size 4096
block_size 64
core_0_itlb_set 16
core_0_itlb_way 4
core_0_itlb_rq_size 16
core_0_itlb_wq_size 16
core_0_itlb_pq_size 0
core_0_itlb_mshr_size 8
core_0_itlb_hit_latency 1
core_0_itlb_fill_latency 1
core_0_itlb_max_tag_check 2
core_0_itlb_max_fill 2
core_0_dtlb_set 16
core_0_dtlb_way 4
core_0_dtlb_rq_size 16
core_0_dtlb_wq_size 16
core_0_dtlb_pq_size 0
core_0_dtlb_mshr_size 8
core_0_dtlb_hit_latency 1
core_0_dtlb_fill_latency 1
core_0_dtlb_max_tag_check 2
core_0_dtlb_max_fill 2
core_0_stlb_set 128
core_0_stlb_way 12
core_0_stlb_rq_size 32
core_0_stlb_wq_size 32
core_0_stlb_pq_size 0
core_0_stlb_mshr_size 16
core_0_stlb_hit_latency 4
core_0_stlb_fill_latency 4
core_0_stlb_max_tag_check 1
core_0_stlb_max_fill 1
core_0_l1i_set 64
core_0_l1i_way 8
core_0_l1i_rq_size 64
core_0_l1i_wq_size 64
core_0_l1i_pq_size 32
core_0_l1i_mshr_size 8
core_0_l1i_hit_latency 2
core_0_l1i_fill_latency 2
core_0_l1i_max_tag_check 2
core_0_l1i_max_fill 2
core_0_l1d_set 64
core_0_l1d_way 12
core_0_l1d_rq_size 64
core_0_l1d_wq_size 64
core_0_l1d_pq_size 8
core_0_l1d_mshr_size 16
core_0_l1d_hit_latency 2
core_0_l1d_fill_latency 3
core_0_l1d_max_tag_check 2
core_0_l1d_max_fill 2
core_0_l2c_set 1024
core_0_l2c_way 8
core_0_l2c_rq_size 32
core_0_l2c_wq_size 32
core_0_l2c_pq_size 16
core_0_l2c_mshr_size 32
core_0_l2c_hit_latency 5
core_0_l2c_fill_latency 5
core_0_l2c_max_tag_check 1
core_0_l2c_max_fill 1
llc_set 2048
llc_way 16
llc_rq_size 32
llc_wq_size 32
llc_pq_size 32
llc_mshr_size 64
llc_hit_latency 10
llc_fill_latency 10
llc_max_tag_check 1
llc_max_fill 1
dram_channels 1
dram_ranks 1
dram_bankgroups 8
dram_banks 4
dram_rows 65536
dram_columns 1024
dram_channel_width 8
dram_rq_size 64
dram_wq_size 64
dram_size 17179869184
core_0_itlb_prefetcher no
core_0_dtlb_prefetcher no
core_0_stlb_prefetcher no
core_0_l1i_prefetcher next_line
core_0_l1d_prefetcher berti
core_0_l2c_prefetcher ip_stride
llc_prefetcher no
llc_replacement drrip

Core_0_instructions 50000003
Core_0_cycles 43531106
Core_0_IPC 1.1486
Core_0_branch_prediction_accuracy 99.9008
Core_0_branch_MPKI 0.00598
Core_0_average_ROB_occupancy_at_mispredict 322.314

Core_0_ITLB_total_access 11826366
Core_0_ITLB_total_hit 11826364
Core_0_ITLB_total_miss 2
Core_0_ITLB_total_MPKI 4e-05
Core_0_ITLB_total_miss_rate 1.69114e-07
Core_0_ITLB_demand_access 11826366
Core_0_ITLB_demand_hit 11826364
Core_0_ITLB_demand_miss 2
Core_0_ITLB_demand_MPKI 4e-05
Core_0_ITLB_demand_miss_rate 1.69114e-07
Core_0_ITLB_load_access 11826366
Core_0_ITLB_load_hit 11826364
Core_0_ITLB_load_miss 2
Core_0_ITLB_load_MPKI 4e-05
Core_0_ITLB_load_miss_rate 1.69114e-07
Core_0_ITLB_rfo_access 0
Core_0_ITLB_rfo_hit 0
Core_0_ITLB_rfo_miss 0
Core_0_ITLB_rfo_MPKI 0
Core_0_ITLB_rfo_miss_rate 0
Core_0_ITLB_prefetch_access 0
Core_0_ITLB_prefetch_hit 0
Core_0_ITLB_prefetch_miss 0
Core_0_ITLB_prefetch_MPKI 0
Core_0_ITLB_prefetch_miss_rate 0
Core_0_ITLB_writeback_access 0
Core_0_ITLB_writeback_hit 0
Core_0_ITLB_writeback_miss 0
Core_0_ITLB_writeback_MPKI 0
Core_0_ITLB_writeback_miss_rate 0
Core_0_ITLB_prefetch_requested 0
Core_0_ITLB_prefetch_issued 0
Core_0_ITLB_prefetch_useful 0
Core_0_ITLB_prefetch_useless 0
Core_0_ITLB_prefetch_late 0
Core_0_ITLB_prefetch_accuracy 0
Core_0_ITLB_prefetch_coverage 0

Core_0_DTLB_total_access 24837821
Core_0_DTLB_total_hit 24321256
Core_0_DTLB_total_miss 516565
Core_0_DTLB_total_MPKI 10.3313
Core_0_DTLB_total_miss_rate 0.0207975
Core_0_DTLB_demand_access 24837821
Core_0_DTLB_demand_hit 24321256
Core_0_DTLB_demand_miss 516565
Core_0_DTLB_demand_MPKI 10.3313
Core_0_DTLB_demand_miss_rate 0.0207975
Core_0_DTLB_load_access 24837821
Core_0_DTLB_load_hit 24321256
Core_0_DTLB_load_miss 516565
Core_0_DTLB_load_MPKI 10.3313
Core_0_DTLB_load_miss_rate 0.0207975
Core_0_DTLB_rfo_access 0
Core_0_DTLB_rfo_hit 0
Core_0_DTLB_rfo_miss 0
Core_0_DTLB_rfo_MPKI 0
Core_0_DTLB_rfo_miss_rate 0
Core_0_DTLB_prefetch_access 0
Core_0_DTLB_prefetch_hit 0
Core_0_DTLB_prefetch_miss 0
Core_0_DTLB_prefetch_MPKI 0
Core_0_DTLB_prefetch_miss_rate 0
Core_0_DTLB_writeback_access 0
Core_0_DTLB_writeback_hit 0
Core_0_DTLB_writeback_miss 0
Core_0_DTLB_writeback_MPKI 0
Core_0_DTLB_writeback_miss_rate 0
Core_0_DTLB_prefetch_requested 0
Core_0_DTLB_prefetch_issued 0
Core_0_DTLB_prefetch_useful 0
Core_0_DTLB_prefetch_useless 0
Core_0_DTLB_prefetch_late 0
Core_0_DTLB_prefetch_accuracy 0
Core_0_DTLB_prefetch_coverage 0

Core_0_STLB_total_access 388909
Core_0_STLB_total_hit 347312
Core_0_STLB_total_miss 41597
Core_0_STLB_total_MPKI 0.83194
Core_0_STLB_total_miss_rate 0.106958
Core_0_STLB_demand_access 388909
Core_0_STLB_demand_hit 347312
Core_0_STLB_demand_miss 41597
Core_0_STLB_demand_MPKI 0.83194
Core_0_STLB_demand_miss_rate 0.106958
Core_0_STLB_load_access 388909
Core_0_STLB_load_hit 347312
Core_0_STLB_load_miss 41597
Core_0_STLB_load_MPKI 0.83194
Core_0_STLB_load_miss_rate 0.106958
Core_0_STLB_rfo_access 0
Core_0_STLB_rfo_hit 0
Core_0_STLB_rfo_miss 0
Core_0_STLB_rfo_MPKI 0
Core_0_STLB_rfo_miss_rate 0
Core_0_STLB_prefetch_access 0
Core_0_STLB_prefetch_hit 0
Core_0_STLB_prefetch_miss 0
Core_0_STLB_prefetch_MPKI 0
Core_0_STLB_prefetch_miss_rate 0
Core_0_STLB_writeback_access 0
Core_0_STLB_writeback_hit 0
Core_0_STLB_writeback_miss 0
Core_0_STLB_writeback_MPKI 0
Core_0_STLB_writeback_miss_rate 0
Core_0_STLB_prefetch_requested 0
Core_0_STLB_prefetch_issued 0
Core_0_STLB_prefetch_useful 0
Core_0_STLB_prefetch_useless 0
Core_0_STLB_prefetch_late 0
Core_0_STLB_prefetch_accuracy 0
Core_0_STLB_prefetch_coverage 0

Core_0_L1I_total_access 13889741
Core_0_L1I_total_hit 13889649
Core_0_L1I_total_miss 92
Core_0_L1I_total_MPKI 0.00184
Core_0_L1I_total_miss_rate 6.62359e-06
Core_0_L1I_demand_access 13889741
Core_0_L1I_demand_hit 13889649
Core_0_L1I_demand_miss 92
Core_0_L1I_demand_MPKI 0.00184
Core_0_L1I_demand_miss_rate 6.62359e-06
Core_0_L1I_load_access 13889741
Core_0_L1I_load_hit 13889649
Core_0_L1I_load_miss 92
Core_0_L1I_load_MPKI 0.00184
Core_0_L1I_load_miss_rate 6.62359e-06
Core_0_L1I_rfo_access 0
Core_0_L1I_rfo_hit 0
Core_0_L1I_rfo_miss 0
Core_0_L1I_rfo_MPKI 0
Core_0_L1I_rfo_miss_rate 0
Core_0_L1I_prefetch_access 0
Core_0_L1I_prefetch_hit 0
Core_0_L1I_prefetch_miss 0
Core_0_L1I_prefetch_MPKI 0
Core_0_L1I_prefetch_miss_rate 0
Core_0_L1I_writeback_access 0
Core_0_L1I_writeback_hit 0
Core_0_L1I_writeback_miss 0
Core_0_L1I_writeback_MPKI 0
Core_0_L1I_writeback_miss_rate 0
Core_0_L1I_prefetch_requested 0
Core_0_L1I_prefetch_issued 0
Core_0_L1I_prefetch_useful 0
Core_0_L1I_prefetch_useless 0
Core_0_L1I_prefetch_late 0
Core_0_L1I_prefetch_accuracy 0
Core_0_L1I_prefetch_coverage 0

Core_0_L1D_total_access 25702727
Core_0_L1D_total_hit 24814128
Core_0_L1D_total_miss 888599
Core_0_L1D_total_MPKI 17.772
Core_0_L1D_total_miss_rate 0.0345722
Core_0_L1D_demand_access 21327041
Core_0_L1D_demand_hit 20954010
Core_0_L1D_demand_miss 373031
Core_0_L1D_demand_MPKI 7.46062
Core_0_L1D_demand_miss_rate 0.017491
Core_0_L1D_load_access 21327041
Core_0_L1D_load_hit 20954010
Core_0_L1D_load_miss 373031
Core_0_L1D_load_MPKI 7.46062
Core_0_L1D_load_miss_rate 0.017491
Core_0_L1D_rfo_access 0
Core_0_L1D_rfo_hit 0
Core_0_L1D_rfo_miss 0
Core_0_L1D_rfo_MPKI 0
Core_0_L1D_rfo_miss_rate 0
Core_0_L1D_prefetch_access 662007
Core_0_L1D_prefetch_hit 152128
Core_0_L1D_prefetch_miss 509879
Core_0_L1D_prefetch_MPKI 10.1976
Core_0_L1D_prefetch_miss_rate 0.770202
Core_0_L1D_writeback_access 3713679
Core_0_L1D_writeback_hit 3707990
Core_0_L1D_writeback_miss 5689
Core_0_L1D_writeback_MPKI 0.11378
Core_0_L1D_writeback_miss_rate 0.0015319
Core_0_L1D_prefetch_requested 667570
Core_0_L1D_prefetch_issued 662000
Core_0_L1D_prefetch_useful 344333
Core_0_L1D_prefetch_useless 160360
Core_0_L1D_prefetch_late 17376
Core_0_L1D_prefetch_accuracy 0.52014
Core_0_L1D_prefetch_coverage 0.479998

Core_0_L2C_total_access 1168590
Core_0_L2C_total_hit 481564
Core_0_L2C_total_miss 687026
Core_0_L2C_total_MPKI 13.7405
Core_0_L2C_total_miss_rate 0.58791
Core_0_L2C_demand_access 318452
Core_0_L2C_demand_hit 69154
Core_0_L2C_demand_miss 249298
Core_0_L2C_demand_MPKI 4.98596
Core_0_L2C_demand_miss_rate 0.782843
Core_0_L2C_load_access 317631
Core_0_L2C_load_hit 68338
Core_0_L2C_load_miss 249293
Core_0_L2C_load_MPKI 4.98586
Core_0_L2C_load_miss_rate 0.784851
Core_0_L2C_rfo_access 821
Core_0_L2C_rfo_hit 816
Core_0_L2C_rfo_miss 5
Core_0_L2C_rfo_MPKI 0.0001
Core_0_L2C_rfo_miss_rate 0.00609013
Core_0_L2C_prefetch_access 557672
Core_0_L2C_prefetch_hit 119949
Core_0_L2C_prefetch_miss 437723
Core_0_L2C_prefetch_MPKI 8.75446
Core_0_L2C_prefetch_miss_rate 0.784911
Core_0_L2C_writeback_access 292466
Core_0_L2C_writeback_hit 292461
Core_0_L2C_writeback_miss 5
Core_0_L2C_writeback_MPKI 0.0001
Core_0_L2C_writeback_miss_rate 1.7096e-05
Core_0_L2C_prefetch_requested 52894
Core_0_L2C_prefetch_issued 52894
Core_0_L2C_prefetch_useful 16084
Core_0_L2C_prefetch_useless 4735
Core_0_L2C_prefetch_late 2
Core_0_L2C_prefetch_accuracy 0.30408
Core_0_L2C_prefetch_coverage 0.060607

Core_0_LLC_total_access 976803
Core_0_LLC_total_hit 302651
Core_0_LLC_total_miss 674152
Core_0_LLC_total_MPKI 13.483
Core_0_LLC_total_miss_rate 0.690162
Core_0_LLC_demand_access 249296
Core_0_LLC_demand_hit 13655
Core_0_LLC_demand_miss 235641
Core_0_LLC_demand_MPKI 4.71282
Core_0_LLC_demand_miss_rate 0.945226
Core_0_LLC_load_access 249291
Core_0_LLC_load_hit 13655
Core_0_LLC_load_miss 235636
Core_0_LLC_load_MPKI 4.71272
Core_0_LLC_load_miss_rate 0.945225
Core_0_LLC_rfo_access 5
Core_0_LLC_rfo_hit 0
Core_0_LLC_rfo_miss 5
Core_0_LLC_rfo_MPKI 0.0001
Core_0_LLC_rfo_miss_rate 1
Core_0_LLC_prefetch_access 436124
Core_0_LLC_prefetch_hit 33091
Core_0_LLC_prefetch_miss 403033
Core_0_LLC_prefetch_MPKI 8.06066
Core_0_LLC_prefetch_miss_rate 0.924125
Core_0_LLC_writeback_access 291383
Core_0_LLC_writeback_hit 255905
Core_0_LLC_writeback_miss 35478
Core_0_LLC_writeback_MPKI 0.70956
Core_0_LLC_writeback_miss_rate 0.121757
Core_0_LLC_prefetch_requested 0
Core_0_LLC_prefetch_issued 0
Core_0_LLC_prefetch_useful 0
Core_0_LLC_prefetch_useless 0
Core_0_LLC_prefetch_late 0
Core_0_LLC_prefetch_accuracy 0
Core_0_LLC_prefetch_coverage 0

[DRAM Statistics]
Channel_0_RQ_row_buffer_hit 7130
Channel_0_RQ_row_buffer_miss 644395
Channel_0_WQ_row_buffer_hit 61759
Channel_0_WQ_row_buffer_miss 229349
Channel_0_WQ_full 0
Channel_0_dbus_congested 2335438
DRAM_total_RQ_row_buffer_hit 7130
DRAM_total_RQ_row_buffer_miss 644395
DRAM_total_WQ_row_buffer_hit 61759
DRAM_total_WQ_row_buffer_miss 229349
DRAM_total_WQ_full 0
DRAM_total_dbus_congested 2335438
DRAM_avg_congested_cycle 10.0892

======STLB miss causes ========
Core_0_STLB_miss_cause_breakdown
Core_0_STLB_cause_Demand_Data_miss 0
Core_0_STLB_cause_Demand_Data_miss_rate 0
Core_0_STLB_cause_Demand_Instruction_miss 0
Core_0_STLB_cause_Demand_Instruction_miss_rate 0
Core_0_STLB_cause_L1D_Prefetch_miss 41597
Core_0_STLB_cause_L1D_Prefetch_miss_rate 0.106958
Core_0_STLB_cause_L1I_Prefetch_miss 0
Core_0_STLB_cause_L1I_Prefetch_miss_rate 0
Core_0_STLB_cause_Other_miss 0
Core_0_STLB_cause_Other_miss_rate 0
Core_0_STLB_Demand_miss 0
Core_0_STLB_Demand_miss_rate 0
Core_0_STLB_L1D_Prefetch_miss 41597
Core_0_STLB_L1D_Prefetch_miss_rate 0.106958
Core_0_STLB_Other_miss 0
Core_0_STLB_Other_miss_rate 0
