[VMEM] WARNING: physical memory size is smaller than virtual memory size.

*** ChampSim Multicore Out-of-Order Simulator ***
Warmup Instructions: 20000000
Simulation Instructions: 50000000
Number of CPUs: 1
Page size: 4096
STLB ideal mode: demand
Core 0: /data0/tzh/champsim_traces/SPEC17/602.gcc_s-2226B.champsimtrace.xz
 L1D Berti prefetcher
Off-chip DRAM Size: 16 GiB Channels: 1 Width: 64-bit Data Rate: 3205 MT/s
Warmup halting CPU 0 at instruction 20000001 cycle 4963123 for remainder of phase
Warmup finished CPU 0 instructions: 20000001 cycles: 4963123 cumulative IPC: 4.03 (Simulation time: 00 hr 00 min 53 sec)
Warmup complete CPU 0 instructions: 20000001 cycles: 4963123 cumulative IPC: 4.03 (Simulation time: 00 hr 00 min 53 sec)
Simulation finished CPU 0 instructions: 50000000 cycles: 107675937 cumulative IPC: 0.4644 (Simulation time: 00 hr 12 min 42 sec)
Simulation complete CPU 0 instructions: 50000000 cycles: 107675937 cumulative IPC: 0.4644 (Simulation time: 00 hr 12 min 42 sec)

ChampSim completed all CPUs

=== Simulation ===
CPU 0 runs /data0/tzh/champsim_traces/SPEC17/602.gcc_s-2226B.champsimtrace.xz

Region of Interest Statistics

CPU 0 cumulative IPC: 0.4644 instructions: 50000000 cycles: 107675937
CPU 0 Branch Prediction Accuracy: 99.66% MPKI: 1.202 Average ROB Occupancy at Mispredict: 236.1
Branch type MPKI
BRANCH_DIRECT_JUMP: 0.0742
BRANCH_INDIRECT: 0
BRANCH_CONDITIONAL: 1.127
BRANCH_DIRECT_CALL: 4e-05
BRANCH_INDIRECT_CALL: 0
BRANCH_RETURN: 0

cpu0->cpu0_STLB TOTAL        ACCESS:      68116 HIT:      61950 MISS:       6166 MSHR_MERGE:          0
cpu0->cpu0_STLB LOAD         ACCESS:      68116 HIT:      61950 MISS:       6166 MSHR_MERGE:          0
cpu0->cpu0_STLB RFO          ACCESS:          0 HIT:          0 MISS:          0 MSHR_MERGE:          0
cpu0->cpu0_STLB PREFETCH     ACCESS:          0 HIT:          0 MISS:          0 MSHR_MERGE:          0
cpu0->cpu0_STLB WRITE        ACCESS:          0 HIT:          0 MISS:          0 MSHR_MERGE:          0
cpu0->cpu0_STLB TRANSLATION  ACCESS:          0 HIT:          0 MISS:          0 MSHR_MERGE:          0
cpu0->cpu0_STLB PREFETCH REQUESTED:          0 ISSUED:          0 USEFUL:          0 USELESS:          0 LATE:          0
cpu0->cpu0_STLB AVERAGE MISS LATENCY: 317 cycles
cpu0->cpu0_L2C TOTAL        ACCESS:   10859817 HIT:     712830 MISS:   10146987 MSHR_MERGE:    6569209
cpu0->cpu0_L2C LOAD         ACCESS:     320532 HIT:     126098 MISS:     194434 MSHR_MERGE:      47720
cpu0->cpu0_L2C RFO          ACCESS:       1056 HIT:        126 MISS:        930 MSHR_MERGE:          0
cpu0->cpu0_L2C PREFETCH     ACCESS:   10525720 HIT:     580148 MISS:    9945572 MSHR_MERGE:    6521489
cpu0->cpu0_L2C WRITE        ACCESS:       5501 HIT:       5489 MISS:         12 MSHR_MERGE:          0
cpu0->cpu0_L2C TRANSLATION  ACCESS:       7008 HIT:        969 MISS:       6039 MSHR_MERGE:          0
cpu0->cpu0_L2C PREFETCH REQUESTED:    7287638 ISSUED:    7287636 USEFUL:     437170 USELESS:    2327774 LATE:      47720
cpu0->cpu0_L2C AVERAGE MISS LATENCY: 191.6 cycles
cpu0->cpu0_L1I TOTAL        ACCESS:    4310019 HIT:    4310019 MISS:          0 MSHR_MERGE:          0
cpu0->cpu0_L1I LOAD         ACCESS:    4310019 HIT:    4310019 MISS:          0 MSHR_MERGE:          0
cpu0->cpu0_L1I RFO          ACCESS:          0 HIT:          0 MISS:          0 MSHR_MERGE:          0
cpu0->cpu0_L1I PREFETCH     ACCESS:          0 HIT:          0 MISS:          0 MSHR_MERGE:          0
cpu0->cpu0_L1I WRITE        ACCESS:          0 HIT:          0 MISS:          0 MSHR_MERGE:          0
cpu0->cpu0_L1I TRANSLATION  ACCESS:          0 HIT:          0 MISS:          0 MSHR_MERGE:          0
cpu0->cpu0_L1I PREFETCH REQUESTED:          0 ISSUED:          0 USEFUL:          0 USELESS:          0 LATE:          0
cpu0->cpu0_L1I AVERAGE MISS LATENCY: - cycles
cpu0->cpu0_L1D TOTAL        ACCESS:   16133239 HIT:   10338705 MISS:    5794534 MSHR_MERGE:    2227871
cpu0->cpu0_L1D LOAD         ACCESS:   11999727 HIT:    9577476 MISS:    2422251 MSHR_MERGE:    2101720
cpu0->cpu0_L1D RFO          ACCESS:          0 HIT:          0 MISS:          0 MSHR_MERGE:          0
cpu0->cpu0_L1D PREFETCH     ACCESS:    3464192 HIT:     100048 MISS:    3364144 MSHR_MERGE:     126076
cpu0->cpu0_L1D WRITE        ACCESS:     655952 HIT:     654830 MISS:       1122 MSHR_MERGE:         66
cpu0->cpu0_L1D TRANSLATION  ACCESS:      13368 HIT:       6351 MISS:       7017 MSHR_MERGE:          9
cpu0->cpu0_L1D PREFETCH REQUESTED:    3464184 ISSUED:    3464184 USEFUL:    3184685 USELESS:      53384 LATE:     923219
cpu0->cpu0_L1D AVERAGE MISS LATENCY: 59.99 cycles
cpu0->cpu0_ITLB TOTAL        ACCESS:    4301370 HIT:    4301370 MISS:          0 MSHR_MERGE:          0
cpu0->cpu0_ITLB LOAD         ACCESS:    4301370 HIT:    4301370 MISS:          0 MSHR_MERGE:          0
cpu0->cpu0_ITLB RFO          ACCESS:          0 HIT:          0 MISS:          0 MSHR_MERGE:          0
cpu0->cpu0_ITLB PREFETCH     ACCESS:          0 HIT:          0 MISS:          0 MSHR_MERGE:          0
cpu0->cpu0_ITLB WRITE        ACCESS:          0 HIT:          0 MISS:          0 MSHR_MERGE:          0
cpu0->cpu0_ITLB TRANSLATION  ACCESS:          0 HIT:          0 MISS:          0 MSHR_MERGE:          0
cpu0->cpu0_ITLB PREFETCH REQUESTED:          0 ISSUED:          0 USEFUL:          0 USELESS:          0 LATE:          0
cpu0->cpu0_ITLB AVERAGE MISS LATENCY: - cycles
cpu0->cpu0_DTLB TOTAL        ACCESS:   15679643 HIT:   15552262 MISS:     127381 MSHR_MERGE:      59265
cpu0->cpu0_DTLB LOAD         ACCESS:   15679643 HIT:   15552262 MISS:     127381 MSHR_MERGE:      59265
cpu0->cpu0_DTLB RFO          ACCESS:          0 HIT:          0 MISS:          0 MSHR_MERGE:          0
cpu0->cpu0_DTLB PREFETCH     ACCESS:          0 HIT:          0 MISS:          0 MSHR_MERGE:          0
cpu0->cpu0_DTLB WRITE        ACCESS:          0 HIT:          0 MISS:          0 MSHR_MERGE:          0
cpu0->cpu0_DTLB TRANSLATION  ACCESS:          0 HIT:          0 MISS:          0 MSHR_MERGE:          0
cpu0->cpu0_DTLB PREFETCH REQUESTED:          0 ISSUED:          0 USEFUL:          0 USELESS:          0 LATE:          0
cpu0->cpu0_DTLB AVERAGE MISS LATENCY: 33.79 cycles
cpu0->LLC TOTAL        ACCESS:    3583269 HIT:       5972 MISS:    3577297 MSHR_MERGE:       2504
cpu0->LLC LOAD         ACCESS:     146714 HIT:        245 MISS:     146469 MSHR_MERGE:          1
cpu0->LLC RFO          ACCESS:        930 HIT:          2 MISS:        928 MSHR_MERGE:          0
cpu0->LLC PREFETCH     ACCESS:    3424083 HIT:        654 MISS:    3423429 MSHR_MERGE:       2503
cpu0->LLC WRITE        ACCESS:       5503 HIT:       4800 MISS:        703 MSHR_MERGE:          0
cpu0->LLC TRANSLATION  ACCESS:       6039 HIT:        271 MISS:       5768 MSHR_MERGE:          0
cpu0->LLC PREFETCH REQUESTED:          0 ISSUED:          0 USEFUL:          0 USELESS:          0 LATE:          0
cpu0->LLC AVERAGE MISS LATENCY: 207.3 cycles

DRAM Statistics

Channel 0 RQ ROW_BUFFER_HIT:    1440555
  ROW_BUFFER_MISS:    2133535
  AVG DBUS CONGESTED CYCLE: 5.663
Channel 0 WQ ROW_BUFFER_HIT:       2556
  ROW_BUFFER_MISS:       2910
  FULL:          0
Channel 0 REFRESHES ISSUED:       8973

[ROI Statistics]
[System Configuration]
num_cpus 1
cpu_freq 4000
fetch_width 6
decode_width 6
dispatch_width 6
execute_width 6
lq_width 2
sq_width 2
retire_width 6
scheduler_size 128
branch_mispredict_penalty 15
rob_size 352
lq_size 128
sq_size 72
ifetch_buffer_size 64
decode_buffer_size 32
dispatch_buffer_size 32
register_file_size 288
decode_latency 1
dispatch_latency 1
schedule_latency 1
execute_latency 1
page_size 4096
block_size 64
core_0_itlb_set 16
core_0_itlb_way 4
core_0_itlb_rq_size 16
core_0_itlb_wq_size 16
core_0_itlb_pq_size 0
core_0_itlb_mshr_size 8
core_0_itlb_hit_latency 1
core_0_itlb_fill_latency 1
core_0_itlb_max_tag_check 2
core_0_itlb_max_fill 2
core_0_dtlb_set 16
core_0_dtlb_way 4
core_0_dtlb_rq_size 16
core_0_dtlb_wq_size 16
core_0_dtlb_pq_size 0
core_0_dtlb_mshr_size 8
core_0_dtlb_hit_latency 1
core_0_dtlb_fill_latency 1
core_0_dtlb_max_tag_check 2
core_0_dtlb_max_fill 2
core_0_stlb_set 128
core_0_stlb_way 12
core_0_stlb_rq_size 32
core_0_stlb_wq_size 32
core_0_stlb_pq_size 0
core_0_stlb_mshr_size 16
core_0_stlb_hit_latency 4
core_0_stlb_fill_latency 4
core_0_stlb_max_tag_check 1
core_0_stlb_max_fill 1
core_0_l1i_set 64
core_0_l1i_way 8
core_0_l1i_rq_size 64
core_0_l1i_wq_size 64
core_0_l1i_pq_size 32
core_0_l1i_mshr_size 8
core_0_l1i_hit_latency 2
core_0_l1i_fill_latency 2
core_0_l1i_max_tag_check 2
core_0_l1i_max_fill 2
core_0_l1d_set 64
core_0_l1d_way 12
core_0_l1d_rq_size 64
core_0_l1d_wq_size 64
core_0_l1d_pq_size 8
core_0_l1d_mshr_size 16
core_0_l1d_hit_latency 2
core_0_l1d_fill_latency 3
core_0_l1d_max_tag_check 2
core_0_l1d_max_fill 2
core_0_l2c_set 1024
core_0_l2c_way 8
core_0_l2c_rq_size 32
core_0_l2c_wq_size 32
core_0_l2c_pq_size 16
core_0_l2c_mshr_size 32
core_0_l2c_hit_latency 5
core_0_l2c_fill_latency 5
core_0_l2c_max_tag_check 1
core_0_l2c_max_fill 1
llc_set 2048
llc_way 16
llc_rq_size 32
llc_wq_size 32
llc_pq_size 32
llc_mshr_size 64
llc_hit_latency 10
llc_fill_latency 10
llc_max_tag_check 1
llc_max_fill 1
dram_channels 1
dram_ranks 1
dram_bankgroups 8
dram_banks 4
dram_rows 65536
dram_columns 1024
dram_channel_width 8
dram_rq_size 64
dram_wq_size 64
dram_size 17179869184
core_0_itlb_prefetcher no
core_0_dtlb_prefetcher no
core_0_stlb_prefetcher no
core_0_l1i_prefetcher next_line
core_0_l1d_prefetcher berti
core_0_l2c_prefetcher ip_stride
llc_prefetcher no
llc_replacement drrip

Core_0_instructions 50000000
Core_0_cycles 107675937
Core_0_IPC 0.464356
Core_0_branch_prediction_accuracy 99.6632
Core_0_branch_MPKI 1.20168
Core_0_average_ROB_occupancy_at_mispredict 236.124

Core_0_ITLB_total_access 4301370
Core_0_ITLB_total_hit 4301370
Core_0_ITLB_total_miss 0
Core_0_ITLB_total_MPKI 0
Core_0_ITLB_total_miss_rate 0
Core_0_ITLB_demand_access 4301370
Core_0_ITLB_demand_hit 4301370
Core_0_ITLB_demand_miss 0
Core_0_ITLB_demand_MPKI 0
Core_0_ITLB_demand_miss_rate 0
Core_0_ITLB_load_access 4301370
Core_0_ITLB_load_hit 4301370
Core_0_ITLB_load_miss 0
Core_0_ITLB_load_MPKI 0
Core_0_ITLB_load_miss_rate 0
Core_0_ITLB_rfo_access 0
Core_0_ITLB_rfo_hit 0
Core_0_ITLB_rfo_miss 0
Core_0_ITLB_rfo_MPKI 0
Core_0_ITLB_rfo_miss_rate 0
Core_0_ITLB_prefetch_access 0
Core_0_ITLB_prefetch_hit 0
Core_0_ITLB_prefetch_miss 0
Core_0_ITLB_prefetch_MPKI 0
Core_0_ITLB_prefetch_miss_rate 0
Core_0_ITLB_writeback_access 0
Core_0_ITLB_writeback_hit 0
Core_0_ITLB_writeback_miss 0
Core_0_ITLB_writeback_MPKI 0
Core_0_ITLB_writeback_miss_rate 0
Core_0_ITLB_prefetch_requested 0
Core_0_ITLB_prefetch_issued 0
Core_0_ITLB_prefetch_useful 0
Core_0_ITLB_prefetch_useless 0
Core_0_ITLB_prefetch_late 0
Core_0_ITLB_prefetch_accuracy 0
Core_0_ITLB_prefetch_coverage 0

Core_0_DTLB_total_access 15679643
Core_0_DTLB_total_hit 15552262
Core_0_DTLB_total_miss 127381
Core_0_DTLB_total_MPKI 2.54762
Core_0_DTLB_total_miss_rate 0.00812397
Core_0_DTLB_demand_access 15679643
Core_0_DTLB_demand_hit 15552262
Core_0_DTLB_demand_miss 127381
Core_0_DTLB_demand_MPKI 2.54762
Core_0_DTLB_demand_miss_rate 0.00812397
Core_0_DTLB_load_access 15679643
Core_0_DTLB_load_hit 15552262
Core_0_DTLB_load_miss 127381
Core_0_DTLB_load_MPKI 2.54762
Core_0_DTLB_load_miss_rate 0.00812397
Core_0_DTLB_rfo_access 0
Core_0_DTLB_rfo_hit 0
Core_0_DTLB_rfo_miss 0
Core_0_DTLB_rfo_MPKI 0
Core_0_DTLB_rfo_miss_rate 0
Core_0_DTLB_prefetch_access 0
Core_0_DTLB_prefetch_hit 0
Core_0_DTLB_prefetch_miss 0
Core_0_DTLB_prefetch_MPKI 0
Core_0_DTLB_prefetch_miss_rate 0
Core_0_DTLB_writeback_access 0
Core_0_DTLB_writeback_hit 0
Core_0_DTLB_writeback_miss 0
Core_0_DTLB_writeback_MPKI 0
Core_0_DTLB_writeback_miss_rate 0
Core_0_DTLB_prefetch_requested 0
Core_0_DTLB_prefetch_issued 0
Core_0_DTLB_prefetch_useful 0
Core_0_DTLB_prefetch_useless 0
Core_0_DTLB_prefetch_late 0
Core_0_DTLB_prefetch_accuracy 0
Core_0_DTLB_prefetch_coverage 0

Core_0_STLB_total_access 68116
Core_0_STLB_total_hit 61950
Core_0_STLB_total_miss 6166
Core_0_STLB_total_MPKI 0.12332
Core_0_STLB_total_miss_rate 0.0905221
Core_0_STLB_demand_access 68116
Core_0_STLB_demand_hit 61950
Core_0_STLB_demand_miss 6166
Core_0_STLB_demand_MPKI 0.12332
Core_0_STLB_demand_miss_rate 0.0905221
Core_0_STLB_load_access 68116
Core_0_STLB_load_hit 61950
Core_0_STLB_load_miss 6166
Core_0_STLB_load_MPKI 0.12332
Core_0_STLB_load_miss_rate 0.0905221
Core_0_STLB_rfo_access 0
Core_0_STLB_rfo_hit 0
Core_0_STLB_rfo_miss 0
Core_0_STLB_rfo_MPKI 0
Core_0_STLB_rfo_miss_rate 0
Core_0_STLB_prefetch_access 0
Core_0_STLB_prefetch_hit 0
Core_0_STLB_prefetch_miss 0
Core_0_STLB_prefetch_MPKI 0
Core_0_STLB_prefetch_miss_rate 0
Core_0_STLB_writeback_access 0
Core_0_STLB_writeback_hit 0
Core_0_STLB_writeback_miss 0
Core_0_STLB_writeback_MPKI 0
Core_0_STLB_writeback_miss_rate 0
Core_0_STLB_prefetch_requested 0
Core_0_STLB_prefetch_issued 0
Core_0_STLB_prefetch_useful 0
Core_0_STLB_prefetch_useless 0
Core_0_STLB_prefetch_late 0
Core_0_STLB_prefetch_accuracy 0
Core_0_STLB_prefetch_coverage 0

Core_0_L1I_total_access 4310019
Core_0_L1I_total_hit 4310019
Core_0_L1I_total_miss 0
Core_0_L1I_total_MPKI 0
Core_0_L1I_total_miss_rate 0
Core_0_L1I_demand_access 4310019
Core_0_L1I_demand_hit 4310019
Core_0_L1I_demand_miss 0
Core_0_L1I_demand_MPKI 0
Core_0_L1I_demand_miss_rate 0
Core_0_L1I_load_access 4310019
Core_0_L1I_load_hit 4310019
Core_0_L1I_load_miss 0
Core_0_L1I_load_MPKI 0
Core_0_L1I_load_miss_rate 0
Core_0_L1I_rfo_access 0
Core_0_L1I_rfo_hit 0
Core_0_L1I_rfo_miss 0
Core_0_L1I_rfo_MPKI 0
Core_0_L1I_rfo_miss_rate 0
Core_0_L1I_prefetch_access 0
Core_0_L1I_prefetch_hit 0
Core_0_L1I_prefetch_miss 0
Core_0_L1I_prefetch_MPKI 0
Core_0_L1I_prefetch_miss_rate 0
Core_0_L1I_writeback_access 0
Core_0_L1I_writeback_hit 0
Core_0_L1I_writeback_miss 0
Core_0_L1I_writeback_MPKI 0
Core_0_L1I_writeback_miss_rate 0
Core_0_L1I_prefetch_requested 0
Core_0_L1I_prefetch_issued 0
Core_0_L1I_prefetch_useful 0
Core_0_L1I_prefetch_useless 0
Core_0_L1I_prefetch_late 0
Core_0_L1I_prefetch_accuracy 0
Core_0_L1I_prefetch_coverage 0

Core_0_L1D_total_access 16119871
Core_0_L1D_total_hit 10332354
Core_0_L1D_total_miss 5787517
Core_0_L1D_total_MPKI 115.75
Core_0_L1D_total_miss_rate 0.35903
Core_0_L1D_demand_access 11999727
Core_0_L1D_demand_hit 9577476
Core_0_L1D_demand_miss 2422251
Core_0_L1D_demand_MPKI 48.445
Core_0_L1D_demand_miss_rate 0.201859
Core_0_L1D_load_access 11999727
Core_0_L1D_load_hit 9577476
Core_0_L1D_load_miss 2422251
Core_0_L1D_load_MPKI 48.445
Core_0_L1D_load_miss_rate 0.201859
Core_0_L1D_rfo_access 0
Core_0_L1D_rfo_hit 0
Core_0_L1D_rfo_miss 0
Core_0_L1D_rfo_MPKI 0
Core_0_L1D_rfo_miss_rate 0
Core_0_L1D_prefetch_access 3464192
Core_0_L1D_prefetch_hit 100048
Core_0_L1D_prefetch_miss 3364144
Core_0_L1D_prefetch_MPKI 67.2829
Core_0_L1D_prefetch_miss_rate 0.971119
Core_0_L1D_writeback_access 655952
Core_0_L1D_writeback_hit 654830
Core_0_L1D_writeback_miss 1122
Core_0_L1D_writeback_MPKI 0.02244
Core_0_L1D_writeback_miss_rate 0.00171049
Core_0_L1D_prefetch_requested 3464184
Core_0_L1D_prefetch_issued 3464184
Core_0_L1D_prefetch_useful 3184685
Core_0_L1D_prefetch_useless 53384
Core_0_L1D_prefetch_late 923219
Core_0_L1D_prefetch_accuracy 0.919318
Core_0_L1D_prefetch_coverage 0.56799

Core_0_L2C_total_access 10852809
Core_0_L2C_total_hit 711861
Core_0_L2C_total_miss 10140948
Core_0_L2C_total_MPKI 202.819
Core_0_L2C_total_miss_rate 0.934408
Core_0_L2C_demand_access 321588
Core_0_L2C_demand_hit 126224
Core_0_L2C_demand_miss 195364
Core_0_L2C_demand_MPKI 3.90728
Core_0_L2C_demand_miss_rate 0.607498
Core_0_L2C_load_access 320532
Core_0_L2C_load_hit 126098
Core_0_L2C_load_miss 194434
Core_0_L2C_load_MPKI 3.88868
Core_0_L2C_load_miss_rate 0.606598
Core_0_L2C_rfo_access 1056
Core_0_L2C_rfo_hit 126
Core_0_L2C_rfo_miss 930
Core_0_L2C_rfo_MPKI 0.0186
Core_0_L2C_rfo_miss_rate 0.880682
Core_0_L2C_prefetch_access 10525720
Core_0_L2C_prefetch_hit 580148
Core_0_L2C_prefetch_miss 9945572
Core_0_L2C_prefetch_MPKI 198.911
Core_0_L2C_prefetch_miss_rate 0.944883
Core_0_L2C_writeback_access 5501
Core_0_L2C_writeback_hit 5489
Core_0_L2C_writeback_miss 12
Core_0_L2C_writeback_MPKI 0.00024
Core_0_L2C_writeback_miss_rate 0.00218142
Core_0_L2C_prefetch_requested 7287638
Core_0_L2C_prefetch_issued 7287636
Core_0_L2C_prefetch_useful 437170
Core_0_L2C_prefetch_useless 2327774
Core_0_L2C_prefetch_late 47720
Core_0_L2C_prefetch_accuracy 0.0599879
Core_0_L2C_prefetch_coverage 0.691141

Core_0_LLC_total_access 3577230
Core_0_LLC_total_hit 5701
Core_0_LLC_total_miss 3571529
Core_0_LLC_total_MPKI 71.4306
Core_0_LLC_total_miss_rate 0.998406
Core_0_LLC_demand_access 147644
Core_0_LLC_demand_hit 247
Core_0_LLC_demand_miss 147397
Core_0_LLC_demand_MPKI 2.94794
Core_0_LLC_demand_miss_rate 0.998327
Core_0_LLC_load_access 146714
Core_0_LLC_load_hit 245
Core_0_LLC_load_miss 146469
Core_0_LLC_load_MPKI 2.92938
Core_0_LLC_load_miss_rate 0.99833
Core_0_LLC_rfo_access 930
Core_0_LLC_rfo_hit 2
Core_0_LLC_rfo_miss 928
Core_0_LLC_rfo_MPKI 0.01856
Core_0_LLC_rfo_miss_rate 0.997849
Core_0_LLC_prefetch_access 3424083
Core_0_LLC_prefetch_hit 654
Core_0_LLC_prefetch_miss 3423429
Core_0_LLC_prefetch_MPKI 68.4686
Core_0_LLC_prefetch_miss_rate 0.999809
Core_0_LLC_writeback_access 5503
Core_0_LLC_writeback_hit 4800
Core_0_LLC_writeback_miss 703
Core_0_LLC_writeback_MPKI 0.01406
Core_0_LLC_writeback_miss_rate 0.127749
Core_0_LLC_prefetch_requested 0
Core_0_LLC_prefetch_issued 0
Core_0_LLC_prefetch_useful 0
Core_0_LLC_prefetch_useless 0
Core_0_LLC_prefetch_late 0
Core_0_LLC_prefetch_accuracy 0
Core_0_LLC_prefetch_coverage 0

[DRAM Statistics]
Channel_0_RQ_row_buffer_hit 1440555
Channel_0_RQ_row_buffer_miss 2133535
Channel_0_WQ_row_buffer_hit 2556
Channel_0_WQ_row_buffer_miss 2910
Channel_0_WQ_full 0
Channel_0_dbus_congested 7320085
DRAM_total_RQ_row_buffer_hit 1440555
DRAM_total_RQ_row_buffer_miss 2133535
DRAM_total_WQ_row_buffer_hit 2556
DRAM_total_WQ_row_buffer_miss 2910
DRAM_total_WQ_full 0
DRAM_total_dbus_congested 7320085
DRAM_avg_congested_cycle 5.66291

======STLB miss causes ========
Core_0_STLB_miss_cause_breakdown
Core_0_STLB_cause_Demand_Data_miss 0
Core_0_STLB_cause_Demand_Data_miss_rate 0
Core_0_STLB_cause_Demand_Instruction_miss 0
Core_0_STLB_cause_Demand_Instruction_miss_rate 0
Core_0_STLB_cause_L1D_Prefetch_miss 6166
Core_0_STLB_cause_L1D_Prefetch_miss_rate 0.0905221
Core_0_STLB_cause_L1I_Prefetch_miss 0
Core_0_STLB_cause_L1I_Prefetch_miss_rate 0
Core_0_STLB_cause_Other_miss 0
Core_0_STLB_cause_Other_miss_rate 0
Core_0_STLB_Demand_miss 0
Core_0_STLB_Demand_miss_rate 0
Core_0_STLB_L1D_Prefetch_miss 6166
Core_0_STLB_L1D_Prefetch_miss_rate 0.0905221
Core_0_STLB_Other_miss 0
Core_0_STLB_Other_miss_rate 0
