[VMEM] WARNING: physical memory size is smaller than virtual memory size.

*** ChampSim Multicore Out-of-Order Simulator ***
Warmup Instructions: 20000000
Simulation Instructions: 50000000
Number of CPUs: 1
Page size: 4096
STLB ideal mode: demand
Core 0: /data0/tzh/champsim_traces/SPEC17/605.mcf_s-1644B.champsimtrace.xz
 L1D Berti prefetcher
Off-chip DRAM Size: 16 GiB Channels: 1 Width: 64-bit Data Rate: 3205 MT/s
Warmup halting CPU 0 at instruction 20000001 cycle 8235513 for remainder of phase
Warmup finished CPU 0 instructions: 20000001 cycles: 8235513 cumulative IPC: 2.429 (Simulation time: 00 hr 01 min 34 sec)
Warmup complete CPU 0 instructions: 20000001 cycles: 8235513 cumulative IPC: 2.429 (Simulation time: 00 hr 01 min 34 sec)
Simulation finished CPU 0 instructions: 50000002 cycles: 183689218 cumulative IPC: 0.2722 (Simulation time: 00 hr 21 min 40 sec)
Simulation complete CPU 0 instructions: 50000002 cycles: 183689218 cumulative IPC: 0.2722 (Simulation time: 00 hr 21 min 40 sec)

ChampSim completed all CPUs

=== Simulation ===
CPU 0 runs /data0/tzh/champsim_traces/SPEC17/605.mcf_s-1644B.champsimtrace.xz

Region of Interest Statistics

CPU 0 cumulative IPC: 0.2722 instructions: 50000002 cycles: 183689218
CPU 0 Branch Prediction Accuracy: 95.08% MPKI: 6.109 Average ROB Occupancy at Mispredict: 94.86
Branch type MPKI
BRANCH_DIRECT_JUMP: 0
BRANCH_INDIRECT: 0
BRANCH_CONDITIONAL: 6.109
BRANCH_DIRECT_CALL: 0
BRANCH_INDIRECT_CALL: 0
BRANCH_RETURN: 0

cpu0->cpu0_STLB TOTAL        ACCESS:    1467807 HIT:    1467762 MISS:         45 MSHR_MERGE:          0
cpu0->cpu0_STLB LOAD         ACCESS:    1467807 HIT:    1467762 MISS:         45 MSHR_MERGE:          0
cpu0->cpu0_STLB RFO          ACCESS:          0 HIT:          0 MISS:          0 MSHR_MERGE:          0
cpu0->cpu0_STLB PREFETCH     ACCESS:          0 HIT:          0 MISS:          0 MSHR_MERGE:          0
cpu0->cpu0_STLB WRITE        ACCESS:          0 HIT:          0 MISS:          0 MSHR_MERGE:          0
cpu0->cpu0_STLB TRANSLATION  ACCESS:          0 HIT:          0 MISS:          0 MSHR_MERGE:          0
cpu0->cpu0_STLB PREFETCH REQUESTED:          0 ISSUED:          0 USEFUL:          0 USELESS:          0 LATE:          0
cpu0->cpu0_STLB AVERAGE MISS LATENCY: 826.8 cycles
cpu0->cpu0_L2C TOTAL        ACCESS:   10141143 HIT:    5164078 MISS:    4977065 MSHR_MERGE:     244108
cpu0->cpu0_L2C LOAD         ACCESS:    1062988 HIT:     330963 MISS:     732025 MSHR_MERGE:       8900
cpu0->cpu0_L2C RFO          ACCESS:    2186554 HIT:        100 MISS:    2186454 MSHR_MERGE:          0
cpu0->cpu0_L2C PREFETCH     ACCESS:    2385657 HIT:     328468 MISS:    2057189 MSHR_MERGE:     235208
cpu0->cpu0_L2C WRITE        ACCESS:    4505895 HIT:    4504547 MISS:       1348 MSHR_MERGE:          0
cpu0->cpu0_L2C TRANSLATION  ACCESS:         49 HIT:          0 MISS:         49 MSHR_MERGE:          0
cpu0->cpu0_L2C PREFETCH REQUESTED:     413164 ISSUED:     413164 USEFUL:     221497 USELESS:       9144 LATE:       8900
cpu0->cpu0_L2C AVERAGE MISS LATENCY: 502.7 cycles
cpu0->cpu0_L1I TOTAL        ACCESS:    2917527 HIT:    2917527 MISS:          0 MSHR_MERGE:          0
cpu0->cpu0_L1I LOAD         ACCESS:    2917527 HIT:    2917527 MISS:          0 MSHR_MERGE:          0
cpu0->cpu0_L1I RFO          ACCESS:          0 HIT:          0 MISS:          0 MSHR_MERGE:          0
cpu0->cpu0_L1I PREFETCH     ACCESS:          0 HIT:          0 MISS:          0 MSHR_MERGE:          0
cpu0->cpu0_L1I WRITE        ACCESS:          0 HIT:          0 MISS:          0 MSHR_MERGE:          0
cpu0->cpu0_L1I TRANSLATION  ACCESS:          0 HIT:          0 MISS:          0 MSHR_MERGE:          0
cpu0->cpu0_L1I PREFETCH REQUESTED:          0 ISSUED:          0 USEFUL:          0 USELESS:          0 LATE:          0
cpu0->cpu0_L1I AVERAGE MISS LATENCY: - cycles
cpu0->cpu0_L1D TOTAL        ACCESS:   33122474 HIT:   19740175 MISS:   13382299 MSHR_MERGE:    8160216
cpu0->cpu0_L1D LOAD         ACCESS:   13574642 HIT:   12039490 MISS:    1535152 MSHR_MERGE:     472164
cpu0->cpu0_L1D RFO          ACCESS:          0 HIT:          0 MISS:          0 MSHR_MERGE:          0
cpu0->cpu0_L1D PREFETCH     ACCESS:    2055505 HIT:      44668 MISS:    2010837 MSHR_MERGE:      38345
cpu0->cpu0_L1D WRITE        ACCESS:   17492233 HIT:    7655972 MISS:    9836261 MSHR_MERGE:    7649707
cpu0->cpu0_L1D TRANSLATION  ACCESS:         94 HIT:         45 MISS:         49 MSHR_MERGE:          0
cpu0->cpu0_L1D PREFETCH REQUESTED:    2060605 ISSUED:    2055497 USEFUL:    1256265 USELESS:     716133 LATE:     193115
cpu0->cpu0_L1D AVERAGE MISS LATENCY: 453.9 cycles
cpu0->cpu0_ITLB TOTAL        ACCESS:    2901629 HIT:    2901629 MISS:          0 MSHR_MERGE:          0
cpu0->cpu0_ITLB LOAD         ACCESS:    2901629 HIT:    2901629 MISS:          0 MSHR_MERGE:          0
cpu0->cpu0_ITLB RFO          ACCESS:          0 HIT:          0 MISS:          0 MSHR_MERGE:          0
cpu0->cpu0_ITLB PREFETCH     ACCESS:          0 HIT:          0 MISS:          0 MSHR_MERGE:          0
cpu0->cpu0_ITLB WRITE        ACCESS:          0 HIT:          0 MISS:          0 MSHR_MERGE:          0
cpu0->cpu0_ITLB TRANSLATION  ACCESS:          0 HIT:          0 MISS:          0 MSHR_MERGE:          0
cpu0->cpu0_ITLB PREFETCH REQUESTED:          0 ISSUED:          0 USEFUL:          0 USELESS:          0 LATE:          0
cpu0->cpu0_ITLB AVERAGE MISS LATENCY: - cycles
cpu0->cpu0_DTLB TOTAL        ACCESS:   31384149 HIT:   29417015 MISS:    1967134 MSHR_MERGE:     499327
cpu0->cpu0_DTLB LOAD         ACCESS:   31384149 HIT:   29417015 MISS:    1967134 MSHR_MERGE:     499327
cpu0->cpu0_DTLB RFO          ACCESS:          0 HIT:          0 MISS:          0 MSHR_MERGE:          0
cpu0->cpu0_DTLB PREFETCH     ACCESS:          0 HIT:          0 MISS:          0 MSHR_MERGE:          0
cpu0->cpu0_DTLB WRITE        ACCESS:          0 HIT:          0 MISS:          0 MSHR_MERGE:          0
cpu0->cpu0_DTLB TRANSLATION  ACCESS:          0 HIT:          0 MISS:          0 MSHR_MERGE:          0
cpu0->cpu0_DTLB PREFETCH REQUESTED:          0 ISSUED:          0 USEFUL:          0 USELESS:          0 LATE:          0
cpu0->cpu0_DTLB AVERAGE MISS LATENCY: 5.036 cycles
cpu0->LLC TOTAL        ACCESS:    8930652 HIT:    4456750 MISS:    4473902 MSHR_MERGE:      35594
cpu0->LLC LOAD         ACCESS:     723116 HIT:     520808 MISS:     202308 MSHR_MERGE:        613
cpu0->LLC RFO          ACCESS:    2186454 HIT:       6130 MISS:    2180324 MSHR_MERGE:          0
cpu0->LLC PREFETCH     ACCESS:    1821974 HIT:     360127 MISS:    1461847 MSHR_MERGE:      34981
cpu0->LLC WRITE        ACCESS:    4199059 HIT:    3569684 MISS:     629375 MSHR_MERGE:          0
cpu0->LLC TRANSLATION  ACCESS:         49 HIT:          1 MISS:         48 MSHR_MERGE:          0
cpu0->LLC PREFETCH REQUESTED:          0 ISSUED:          0 USEFUL:          0 USELESS:          0 LATE:          0
cpu0->LLC AVERAGE MISS LATENCY: 472.4 cycles

DRAM Statistics

Channel 0 RQ ROW_BUFFER_HIT:     312126
  ROW_BUFFER_MISS:    3496192
  AVG DBUS CONGESTED CYCLE: 8.16
Channel 0 WQ ROW_BUFFER_HIT:     529553
  ROW_BUFFER_MISS:    3070134
  FULL:        314
Channel 0 REFRESHES ISSUED:      15307

[ROI Statistics]
[System Configuration]
num_cpus 1
cpu_freq 4000
fetch_width 6
decode_width 6
dispatch_width 6
execute_width 6
lq_width 2
sq_width 2
retire_width 6
scheduler_size 128
branch_mispredict_penalty 15
rob_size 352
lq_size 128
sq_size 72
ifetch_buffer_size 64
decode_buffer_size 32
dispatch_buffer_size 32
register_file_size 288
decode_latency 1
dispatch_latency 1
schedule_latency 1
execute_latency 1
page_size 4096
block_size 64
core_0_itlb_set 16
core_0_itlb_way 4
core_0_itlb_rq_size 16
core_0_itlb_wq_size 16
core_0_itlb_pq_size 0
core_0_itlb_mshr_size 8
core_0_itlb_hit_latency 1
core_0_itlb_fill_latency 1
core_0_itlb_max_tag_check 2
core_0_itlb_max_fill 2
core_0_dtlb_set 16
core_0_dtlb_way 4
core_0_dtlb_rq_size 16
core_0_dtlb_wq_size 16
core_0_dtlb_pq_size 0
core_0_dtlb_mshr_size 8
core_0_dtlb_hit_latency 1
core_0_dtlb_fill_latency 1
core_0_dtlb_max_tag_check 2
core_0_dtlb_max_fill 2
core_0_stlb_set 128
core_0_stlb_way 12
core_0_stlb_rq_size 32
core_0_stlb_wq_size 32
core_0_stlb_pq_size 0
core_0_stlb_mshr_size 16
core_0_stlb_hit_latency 4
core_0_stlb_fill_latency 4
core_0_stlb_max_tag_check 1
core_0_stlb_max_fill 1
core_0_l1i_set 64
core_0_l1i_way 8
core_0_l1i_rq_size 64
core_0_l1i_wq_size 64
core_0_l1i_pq_size 32
core_0_l1i_mshr_size 8
core_0_l1i_hit_latency 2
core_0_l1i_fill_latency 2
core_0_l1i_max_tag_check 2
core_0_l1i_max_fill 2
core_0_l1d_set 64
core_0_l1d_way 12
core_0_l1d_rq_size 64
core_0_l1d_wq_size 64
core_0_l1d_pq_size 8
core_0_l1d_mshr_size 16
core_0_l1d_hit_latency 2
core_0_l1d_fill_latency 3
core_0_l1d_max_tag_check 2
core_0_l1d_max_fill 2
core_0_l2c_set 1024
core_0_l2c_way 8
core_0_l2c_rq_size 32
core_0_l2c_wq_size 32
core_0_l2c_pq_size 16
core_0_l2c_mshr_size 32
core_0_l2c_hit_latency 5
core_0_l2c_fill_latency 5
core_0_l2c_max_tag_check 1
core_0_l2c_max_fill 1
llc_set 2048
llc_way 16
llc_rq_size 32
llc_wq_size 32
llc_pq_size 32
llc_mshr_size 64
llc_hit_latency 10
llc_fill_latency 10
llc_max_tag_check 1
llc_max_fill 1
dram_channels 1
dram_ranks 1
dram_bankgroups 8
dram_banks 4
dram_rows 65536
dram_columns 1024
dram_channel_width 8
dram_rq_size 64
dram_wq_size 64
dram_size 17179869184
core_0_itlb_prefetcher no
core_0_dtlb_prefetcher no
core_0_stlb_prefetcher no
core_0_l1i_prefetcher next_line
core_0_l1d_prefetcher berti
core_0_l2c_prefetcher ip_stride
llc_prefetcher no
llc_replacement drrip

Core_0_instructions 50000002
Core_0_cycles 183689218
Core_0_IPC 0.272199
Core_0_branch_prediction_accuracy 95.084
Core_0_branch_MPKI 6.10936
Core_0_average_ROB_occupancy_at_mispredict 94.863

Core_0_ITLB_total_access 2901629
Core_0_ITLB_total_hit 2901629
Core_0_ITLB_total_miss 0
Core_0_ITLB_total_MPKI 0
Core_0_ITLB_total_miss_rate 0
Core_0_ITLB_demand_access 2901629
Core_0_ITLB_demand_hit 2901629
Core_0_ITLB_demand_miss 0
Core_0_ITLB_demand_MPKI 0
Core_0_ITLB_demand_miss_rate 0
Core_0_ITLB_load_access 2901629
Core_0_ITLB_load_hit 2901629
Core_0_ITLB_load_miss 0
Core_0_ITLB_load_MPKI 0
Core_0_ITLB_load_miss_rate 0
Core_0_ITLB_rfo_access 0
Core_0_ITLB_rfo_hit 0
Core_0_ITLB_rfo_miss 0
Core_0_ITLB_rfo_MPKI 0
Core_0_ITLB_rfo_miss_rate 0
Core_0_ITLB_prefetch_access 0
Core_0_ITLB_prefetch_hit 0
Core_0_ITLB_prefetch_miss 0
Core_0_ITLB_prefetch_MPKI 0
Core_0_ITLB_prefetch_miss_rate 0
Core_0_ITLB_writeback_access 0
Core_0_ITLB_writeback_hit 0
Core_0_ITLB_writeback_miss 0
Core_0_ITLB_writeback_MPKI 0
Core_0_ITLB_writeback_miss_rate 0
Core_0_ITLB_prefetch_requested 0
Core_0_ITLB_prefetch_issued 0
Core_0_ITLB_prefetch_useful 0
Core_0_ITLB_prefetch_useless 0
Core_0_ITLB_prefetch_late 0
Core_0_ITLB_prefetch_accuracy 0
Core_0_ITLB_prefetch_coverage 0

Core_0_DTLB_total_access 31384149
Core_0_DTLB_total_hit 29417015
Core_0_DTLB_total_miss 1967134
Core_0_DTLB_total_MPKI 39.3427
Core_0_DTLB_total_miss_rate 0.0626792
Core_0_DTLB_demand_access 31384149
Core_0_DTLB_demand_hit 29417015
Core_0_DTLB_demand_miss 1967134
Core_0_DTLB_demand_MPKI 39.3427
Core_0_DTLB_demand_miss_rate 0.0626792
Core_0_DTLB_load_access 31384149
Core_0_DTLB_load_hit 29417015
Core_0_DTLB_load_miss 1967134
Core_0_DTLB_load_MPKI 39.3427
Core_0_DTLB_load_miss_rate 0.0626792
Core_0_DTLB_rfo_access 0
Core_0_DTLB_rfo_hit 0
Core_0_DTLB_rfo_miss 0
Core_0_DTLB_rfo_MPKI 0
Core_0_DTLB_rfo_miss_rate 0
Core_0_DTLB_prefetch_access 0
Core_0_DTLB_prefetch_hit 0
Core_0_DTLB_prefetch_miss 0
Core_0_DTLB_prefetch_MPKI 0
Core_0_DTLB_prefetch_miss_rate 0
Core_0_DTLB_writeback_access 0
Core_0_DTLB_writeback_hit 0
Core_0_DTLB_writeback_miss 0
Core_0_DTLB_writeback_MPKI 0
Core_0_DTLB_writeback_miss_rate 0
Core_0_DTLB_prefetch_requested 0
Core_0_DTLB_prefetch_issued 0
Core_0_DTLB_prefetch_useful 0
Core_0_DTLB_prefetch_useless 0
Core_0_DTLB_prefetch_late 0
Core_0_DTLB_prefetch_accuracy 0
Core_0_DTLB_prefetch_coverage 0

Core_0_STLB_total_access 1467807
Core_0_STLB_total_hit 1467762
Core_0_STLB_total_miss 45
Core_0_STLB_total_MPKI 0.0009
Core_0_STLB_total_miss_rate 3.0658e-05
Core_0_STLB_demand_access 1467807
Core_0_STLB_demand_hit 1467762
Core_0_STLB_demand_miss 45
Core_0_STLB_demand_MPKI 0.0009
Core_0_STLB_demand_miss_rate 3.0658e-05
Core_0_STLB_load_access 1467807
Core_0_STLB_load_hit 1467762
Core_0_STLB_load_miss 45
Core_0_STLB_load_MPKI 0.0009
Core_0_STLB_load_miss_rate 3.0658e-05
Core_0_STLB_rfo_access 0
Core_0_STLB_rfo_hit 0
Core_0_STLB_rfo_miss 0
Core_0_STLB_rfo_MPKI 0
Core_0_STLB_rfo_miss_rate 0
Core_0_STLB_prefetch_access 0
Core_0_STLB_prefetch_hit 0
Core_0_STLB_prefetch_miss 0
Core_0_STLB_prefetch_MPKI 0
Core_0_STLB_prefetch_miss_rate 0
Core_0_STLB_writeback_access 0
Core_0_STLB_writeback_hit 0
Core_0_STLB_writeback_miss 0
Core_0_STLB_writeback_MPKI 0
Core_0_STLB_writeback_miss_rate 0
Core_0_STLB_prefetch_requested 0
Core_0_STLB_prefetch_issued 0
Core_0_STLB_prefetch_useful 0
Core_0_STLB_prefetch_useless 0
Core_0_STLB_prefetch_late 0
Core_0_STLB_prefetch_accuracy 0
Core_0_STLB_prefetch_coverage 0

Core_0_L1I_total_access 2917527
Core_0_L1I_total_hit 2917527
Core_0_L1I_total_miss 0
Core_0_L1I_total_MPKI 0
Core_0_L1I_total_miss_rate 0
Core_0_L1I_demand_access 2917527
Core_0_L1I_demand_hit 2917527
Core_0_L1I_demand_miss 0
Core_0_L1I_demand_MPKI 0
Core_0_L1I_demand_miss_rate 0
Core_0_L1I_load_access 2917527
Core_0_L1I_load_hit 2917527
Core_0_L1I_load_miss 0
Core_0_L1I_load_MPKI 0
Core_0_L1I_load_miss_rate 0
Core_0_L1I_rfo_access 0
Core_0_L1I_rfo_hit 0
Core_0_L1I_rfo_miss 0
Core_0_L1I_rfo_MPKI 0
Core_0_L1I_rfo_miss_rate 0
Core_0_L1I_prefetch_access 0
Core_0_L1I_prefetch_hit 0
Core_0_L1I_prefetch_miss 0
Core_0_L1I_prefetch_MPKI 0
Core_0_L1I_prefetch_miss_rate 0
Core_0_L1I_writeback_access 0
Core_0_L1I_writeback_hit 0
Core_0_L1I_writeback_miss 0
Core_0_L1I_writeback_MPKI 0
Core_0_L1I_writeback_miss_rate 0
Core_0_L1I_prefetch_requested 0
Core_0_L1I_prefetch_issued 0
Core_0_L1I_prefetch_useful 0
Core_0_L1I_prefetch_useless 0
Core_0_L1I_prefetch_late 0
Core_0_L1I_prefetch_accuracy 0
Core_0_L1I_prefetch_coverage 0

Core_0_L1D_total_access 33122380
Core_0_L1D_total_hit 19740130
Core_0_L1D_total_miss 13382250
Core_0_L1D_total_MPKI 267.645
Core_0_L1D_total_miss_rate 0.404024
Core_0_L1D_demand_access 13574642
Core_0_L1D_demand_hit 12039490
Core_0_L1D_demand_miss 1535152
Core_0_L1D_demand_MPKI 30.703
Core_0_L1D_demand_miss_rate 0.11309
Core_0_L1D_load_access 13574642
Core_0_L1D_load_hit 12039490
Core_0_L1D_load_miss 1535152
Core_0_L1D_load_MPKI 30.703
Core_0_L1D_load_miss_rate 0.11309
Core_0_L1D_rfo_access 0
Core_0_L1D_rfo_hit 0
Core_0_L1D_rfo_miss 0
Core_0_L1D_rfo_MPKI 0
Core_0_L1D_rfo_miss_rate 0
Core_0_L1D_prefetch_access 2055505
Core_0_L1D_prefetch_hit 44668
Core_0_L1D_prefetch_miss 2010837
Core_0_L1D_prefetch_MPKI 40.2167
Core_0_L1D_prefetch_miss_rate 0.978269
Core_0_L1D_writeback_access 17492233
Core_0_L1D_writeback_hit 7655972
Core_0_L1D_writeback_miss 9836261
Core_0_L1D_writeback_MPKI 196.725
Core_0_L1D_writeback_miss_rate 0.562322
Core_0_L1D_prefetch_requested 2060605
Core_0_L1D_prefetch_issued 2055497
Core_0_L1D_prefetch_useful 1256265
Core_0_L1D_prefetch_useless 716133
Core_0_L1D_prefetch_late 193115
Core_0_L1D_prefetch_accuracy 0.611173
Core_0_L1D_prefetch_coverage 0.450046

Core_0_L2C_total_access 10141094
Core_0_L2C_total_hit 5164078
Core_0_L2C_total_miss 4977016
Core_0_L2C_total_MPKI 99.5403
Core_0_L2C_total_miss_rate 0.490777
Core_0_L2C_demand_access 3249542
Core_0_L2C_demand_hit 331063
Core_0_L2C_demand_miss 2918479
Core_0_L2C_demand_MPKI 58.3696
Core_0_L2C_demand_miss_rate 0.89812
Core_0_L2C_load_access 1062988
Core_0_L2C_load_hit 330963
Core_0_L2C_load_miss 732025
Core_0_L2C_load_MPKI 14.6405
Core_0_L2C_load_miss_rate 0.688648
Core_0_L2C_rfo_access 2186554
Core_0_L2C_rfo_hit 100
Core_0_L2C_rfo_miss 2186454
Core_0_L2C_rfo_MPKI 43.7291
Core_0_L2C_rfo_miss_rate 0.999954
Core_0_L2C_prefetch_access 2385657
Core_0_L2C_prefetch_hit 328468
Core_0_L2C_prefetch_miss 2057189
Core_0_L2C_prefetch_MPKI 41.1438
Core_0_L2C_prefetch_miss_rate 0.862315
Core_0_L2C_writeback_access 4505895
Core_0_L2C_writeback_hit 4504547
Core_0_L2C_writeback_miss 1348
Core_0_L2C_writeback_MPKI 0.02696
Core_0_L2C_writeback_miss_rate 0.000299164
Core_0_L2C_prefetch_requested 413164
Core_0_L2C_prefetch_issued 413164
Core_0_L2C_prefetch_useful 221497
Core_0_L2C_prefetch_useless 9144
Core_0_L2C_prefetch_late 8900
Core_0_L2C_prefetch_accuracy 0.536099
Core_0_L2C_prefetch_coverage 0.070541

Core_0_LLC_total_access 8930603
Core_0_LLC_total_hit 4456749
Core_0_LLC_total_miss 4473854
Core_0_LLC_total_MPKI 89.4771
Core_0_LLC_total_miss_rate 0.500958
Core_0_LLC_demand_access 2909570
Core_0_LLC_demand_hit 526938
Core_0_LLC_demand_miss 2382632
Core_0_LLC_demand_MPKI 47.6526
Core_0_LLC_demand_miss_rate 0.818895
Core_0_LLC_load_access 723116
Core_0_LLC_load_hit 520808
Core_0_LLC_load_miss 202308
Core_0_LLC_load_MPKI 4.04616
Core_0_LLC_load_miss_rate 0.279773
Core_0_LLC_rfo_access 2186454
Core_0_LLC_rfo_hit 6130
Core_0_LLC_rfo_miss 2180324
Core_0_LLC_rfo_MPKI 43.6065
Core_0_LLC_rfo_miss_rate 0.997196
Core_0_LLC_prefetch_access 1821974
Core_0_LLC_prefetch_hit 360127
Core_0_LLC_prefetch_miss 1461847
Core_0_LLC_prefetch_MPKI 29.2369
Core_0_LLC_prefetch_miss_rate 0.802342
Core_0_LLC_writeback_access 4199059
Core_0_LLC_writeback_hit 3569684
Core_0_LLC_writeback_miss 629375
Core_0_LLC_writeback_MPKI 12.5875
Core_0_LLC_writeback_miss_rate 0.149885
Core_0_LLC_prefetch_requested 0
Core_0_LLC_prefetch_issued 0
Core_0_LLC_prefetch_useful 0
Core_0_LLC_prefetch_useless 0
Core_0_LLC_prefetch_late 0
Core_0_LLC_prefetch_accuracy 0
Core_0_LLC_prefetch_coverage 0

[DRAM Statistics]
Channel_0_RQ_row_buffer_hit 312126
Channel_0_RQ_row_buffer_miss 3496192
Channel_0_WQ_row_buffer_hit 529553
Channel_0_WQ_row_buffer_miss 3070134
Channel_0_WQ_full 314
Channel_0_dbus_congested 30239756
DRAM_total_RQ_row_buffer_hit 312126
DRAM_total_RQ_row_buffer_miss 3496192
DRAM_total_WQ_row_buffer_hit 529553
DRAM_total_WQ_row_buffer_miss 3070134
DRAM_total_WQ_full 314
DRAM_total_dbus_congested 30239756
DRAM_avg_congested_cycle 8.16008

======STLB miss causes ========
Core_0_STLB_miss_cause_breakdown
Core_0_STLB_cause_Demand_Data_miss 0
Core_0_STLB_cause_Demand_Data_miss_rate 0
Core_0_STLB_cause_Demand_Instruction_miss 0
Core_0_STLB_cause_Demand_Instruction_miss_rate 0
Core_0_STLB_cause_L1D_Prefetch_miss 45
Core_0_STLB_cause_L1D_Prefetch_miss_rate 3.0658e-05
Core_0_STLB_cause_L1I_Prefetch_miss 0
Core_0_STLB_cause_L1I_Prefetch_miss_rate 0
Core_0_STLB_cause_Other_miss 0
Core_0_STLB_cause_Other_miss_rate 0
Core_0_STLB_Demand_miss 0
Core_0_STLB_Demand_miss_rate 0
Core_0_STLB_L1D_Prefetch_miss 45
Core_0_STLB_L1D_Prefetch_miss_rate 3.0658e-05
Core_0_STLB_Other_miss 0
Core_0_STLB_Other_miss_rate 0
