[VMEM] WARNING: physical memory size is smaller than virtual memory size.

*** ChampSim Multicore Out-of-Order Simulator ***
Warmup Instructions: 20000000
Simulation Instructions: 50000000
Number of CPUs: 1
Page size: 4096
STLB ideal mode: demand
Core 0: /data0/tzh/champsim_traces/SPEC17/623.xalancbmk_s-592B.champsimtrace.xz
 L1D Berti prefetcher
Off-chip DRAM Size: 16 GiB Channels: 1 Width: 64-bit Data Rate: 3205 MT/s
Warmup halting CPU 0 at instruction 20000004 cycle 4617158 for remainder of phase
Warmup finished CPU 0 instructions: 20000004 cycles: 4617158 cumulative IPC: 4.332 (Simulation time: 00 hr 01 min 02 sec)
Warmup complete CPU 0 instructions: 20000004 cycles: 4617158 cumulative IPC: 4.332 (Simulation time: 00 hr 01 min 02 sec)
Simulation finished CPU 0 instructions: 50000001 cycles: 47254980 cumulative IPC: 1.058 (Simulation time: 00 hr 06 min 46 sec)
Simulation complete CPU 0 instructions: 50000001 cycles: 47254980 cumulative IPC: 1.058 (Simulation time: 00 hr 06 min 46 sec)

ChampSim completed all CPUs

=== Simulation ===
CPU 0 runs /data0/tzh/champsim_traces/SPEC17/623.xalancbmk_s-592B.champsimtrace.xz

Region of Interest Statistics

CPU 0 cumulative IPC: 1.058 instructions: 50000001 cycles: 47254980
CPU 0 Branch Prediction Accuracy: 97.13% MPKI: 7.59 Average ROB Occupancy at Mispredict: 43.49
Branch type MPKI
BRANCH_DIRECT_JUMP: 0.1648
BRANCH_INDIRECT: 0.5087
BRANCH_CONDITIONAL: 4.263
BRANCH_DIRECT_CALL: 0.0076
BRANCH_INDIRECT_CALL: 0.5543
BRANCH_RETURN: 2.092

cpu0->cpu0_STLB TOTAL        ACCESS:    1258825 HIT:    1258204 MISS:        621 MSHR_MERGE:          0
cpu0->cpu0_STLB LOAD         ACCESS:    1258825 HIT:    1258204 MISS:        621 MSHR_MERGE:          0
cpu0->cpu0_STLB RFO          ACCESS:          0 HIT:          0 MISS:          0 MSHR_MERGE:          0
cpu0->cpu0_STLB PREFETCH     ACCESS:          0 HIT:          0 MISS:          0 MSHR_MERGE:          0
cpu0->cpu0_STLB WRITE        ACCESS:          0 HIT:          0 MISS:          0 MSHR_MERGE:          0
cpu0->cpu0_STLB TRANSLATION  ACCESS:          0 HIT:          0 MISS:          0 MSHR_MERGE:          0
cpu0->cpu0_STLB PREFETCH REQUESTED:          0 ISSUED:          0 USEFUL:          0 USELESS:          0 LATE:          0
cpu0->cpu0_STLB AVERAGE MISS LATENCY: 218.3 cycles
cpu0->cpu0_L2C TOTAL        ACCESS:    3645951 HIT:    3202618 MISS:     443333 MSHR_MERGE:       9990
cpu0->cpu0_L2C LOAD         ACCESS:    2143360 HIT:    1955343 MISS:     188017 MSHR_MERGE:        324
cpu0->cpu0_L2C RFO          ACCESS:     125838 HIT:      18463 MISS:     107375 MSHR_MERGE:         93
cpu0->cpu0_L2C PREFETCH     ACCESS:    1196324 HIT:    1048975 MISS:     147349 MSHR_MERGE:       9573
cpu0->cpu0_L2C WRITE        ACCESS:     179810 HIT:     179786 MISS:         24 MSHR_MERGE:          0
cpu0->cpu0_L2C TRANSLATION  ACCESS:        619 HIT:         51 MISS:        568 MSHR_MERGE:          0
cpu0->cpu0_L2C PREFETCH REQUESTED:     363986 ISSUED:     363779 USEFUL:       9607 USELESS:       5391 LATE:        417
cpu0->cpu0_L2C AVERAGE MISS LATENCY: 86.74 cycles
cpu0->cpu0_L1I TOTAL        ACCESS:    9109446 HIT:    8847462 MISS:     261984 MSHR_MERGE:      79141
cpu0->cpu0_L1I LOAD         ACCESS:    9109446 HIT:    8847462 MISS:     261984 MSHR_MERGE:      79141
cpu0->cpu0_L1I RFO          ACCESS:          0 HIT:          0 MISS:          0 MSHR_MERGE:          0
cpu0->cpu0_L1I PREFETCH     ACCESS:          0 HIT:          0 MISS:          0 MSHR_MERGE:          0
cpu0->cpu0_L1I WRITE        ACCESS:          0 HIT:          0 MISS:          0 MSHR_MERGE:          0
cpu0->cpu0_L1I TRANSLATION  ACCESS:          0 HIT:          0 MISS:          0 MSHR_MERGE:          0
cpu0->cpu0_L1I PREFETCH REQUESTED:          0 ISSUED:          0 USEFUL:          0 USELESS:          0 LATE:          0
cpu0->cpu0_L1I AVERAGE MISS LATENCY: 9.046 cycles
cpu0->cpu0_L1D TOTAL        ACCESS:   15222935 HIT:   11454639 MISS:    3768296 MSHR_MERGE:     848773
cpu0->cpu0_L1D LOAD         ACCESS:    8992985 HIT:    6603988 MISS:    2388997 MSHR_MERGE:     428479
cpu0->cpu0_L1D RFO          ACCESS:          0 HIT:          0 MISS:          0 MSHR_MERGE:          0
cpu0->cpu0_L1D PREFETCH     ACCESS:    1341505 HIT:     446627 MISS:     894878 MSHR_MERGE:      62331
cpu0->cpu0_L1D WRITE        ACCESS:    4887181 HIT:    4403381 MISS:     483800 MSHR_MERGE:     357961
cpu0->cpu0_L1D TRANSLATION  ACCESS:       1264 HIT:        643 MISS:        621 MSHR_MERGE:          2
cpu0->cpu0_L1D PREFETCH REQUESTED:    1372627 ISSUED:    1341500 USEFUL:     278305 USELESS:     554301 LATE:      19475
cpu0->cpu0_L1D AVERAGE MISS LATENCY: 20.34 cycles
cpu0->cpu0_ITLB TOTAL        ACCESS:    8372900 HIT:    8309462 MISS:      63438 MSHR_MERGE:      36563
cpu0->cpu0_ITLB LOAD         ACCESS:    8372900 HIT:    8309462 MISS:      63438 MSHR_MERGE:      36563
cpu0->cpu0_ITLB RFO          ACCESS:          0 HIT:          0 MISS:          0 MSHR_MERGE:          0
cpu0->cpu0_ITLB PREFETCH     ACCESS:          0 HIT:          0 MISS:          0 MSHR_MERGE:          0
cpu0->cpu0_ITLB WRITE        ACCESS:          0 HIT:          0 MISS:          0 MSHR_MERGE:          0
cpu0->cpu0_ITLB TRANSLATION  ACCESS:          0 HIT:          0 MISS:          0 MSHR_MERGE:          0
cpu0->cpu0_ITLB PREFETCH REQUESTED:          0 ISSUED:          0 USEFUL:          0 USELESS:          0 LATE:          0
cpu0->cpu0_ITLB AVERAGE MISS LATENCY: 5.014 cycles
cpu0->cpu0_DTLB TOTAL        ACCESS:   14493731 HIT:   12656227 MISS:    1837504 MSHR_MERGE:     605555
cpu0->cpu0_DTLB LOAD         ACCESS:   14493731 HIT:   12656227 MISS:    1837504 MSHR_MERGE:     605555
cpu0->cpu0_DTLB RFO          ACCESS:          0 HIT:          0 MISS:          0 MSHR_MERGE:          0
cpu0->cpu0_DTLB PREFETCH     ACCESS:          0 HIT:          0 MISS:          0 MSHR_MERGE:          0
cpu0->cpu0_DTLB WRITE        ACCESS:          0 HIT:          0 MISS:          0 MSHR_MERGE:          0
cpu0->cpu0_DTLB TRANSLATION  ACCESS:          0 HIT:          0 MISS:          0 MSHR_MERGE:          0
cpu0->cpu0_DTLB PREFETCH REQUESTED:          0 ISSUED:          0 USEFUL:          0 USELESS:          0 LATE:          0
cpu0->cpu0_DTLB AVERAGE MISS LATENCY: 5.111 cycles
cpu0->LLC TOTAL        ACCESS:     556944 HIT:     415602 MISS:     141342 MSHR_MERGE:        115
cpu0->LLC LOAD         ACCESS:     187693 HIT:     178756 MISS:       8937 MSHR_MERGE:         23
cpu0->LLC RFO          ACCESS:     107282 HIT:       5581 MISS:     101701 MSHR_MERGE:          0
cpu0->LLC PREFETCH     ACCESS:     137776 HIT:     117855 MISS:      19921 MSHR_MERGE:         92
cpu0->LLC WRITE        ACCESS:     123625 HIT:     113248 MISS:      10377 MSHR_MERGE:          0
cpu0->LLC TRANSLATION  ACCESS:        568 HIT:        162 MISS:        406 MSHR_MERGE:          0
cpu0->LLC PREFETCH REQUESTED:          0 ISSUED:          0 USEFUL:          0 USELESS:          0 LATE:          0
cpu0->LLC AVERAGE MISS LATENCY: 174.6 cycles

DRAM Statistics

Channel 0 RQ ROW_BUFFER_HIT:      11320
  ROW_BUFFER_MISS:     119530
  AVG DBUS CONGESTED CYCLE: 5.906
Channel 0 WQ ROW_BUFFER_HIT:       5279
  ROW_BUFFER_MISS:      88245
  FULL:          0
Channel 0 REFRESHES ISSUED:       3938

[ROI Statistics]
[System Configuration]
num_cpus 1
cpu_freq 4000
fetch_width 6
decode_width 6
dispatch_width 6
execute_width 6
lq_width 2
sq_width 2
retire_width 6
scheduler_size 128
branch_mispredict_penalty 15
rob_size 352
lq_size 128
sq_size 72
ifetch_buffer_size 64
decode_buffer_size 32
dispatch_buffer_size 32
register_file_size 288
decode_latency 1
dispatch_latency 1
schedule_latency 1
execute_latency 1
page_size 4096
block_size 64
core_0_itlb_set 16
core_0_itlb_way 4
core_0_itlb_rq_size 16
core_0_itlb_wq_size 16
core_0_itlb_pq_size 0
core_0_itlb_mshr_size 8
core_0_itlb_hit_latency 1
core_0_itlb_fill_latency 1
core_0_itlb_max_tag_check 2
core_0_itlb_max_fill 2
core_0_dtlb_set 16
core_0_dtlb_way 4
core_0_dtlb_rq_size 16
core_0_dtlb_wq_size 16
core_0_dtlb_pq_size 0
core_0_dtlb_mshr_size 8
core_0_dtlb_hit_latency 1
core_0_dtlb_fill_latency 1
core_0_dtlb_max_tag_check 2
core_0_dtlb_max_fill 2
core_0_stlb_set 128
core_0_stlb_way 12
core_0_stlb_rq_size 32
core_0_stlb_wq_size 32
core_0_stlb_pq_size 0
core_0_stlb_mshr_size 16
core_0_stlb_hit_latency 4
core_0_stlb_fill_latency 4
core_0_stlb_max_tag_check 1
core_0_stlb_max_fill 1
core_0_l1i_set 64
core_0_l1i_way 8
core_0_l1i_rq_size 64
core_0_l1i_wq_size 64
core_0_l1i_pq_size 32
core_0_l1i_mshr_size 8
core_0_l1i_hit_latency 2
core_0_l1i_fill_latency 2
core_0_l1i_max_tag_check 2
core_0_l1i_max_fill 2
core_0_l1d_set 64
core_0_l1d_way 12
core_0_l1d_rq_size 64
core_0_l1d_wq_size 64
core_0_l1d_pq_size 8
core_0_l1d_mshr_size 16
core_0_l1d_hit_latency 2
core_0_l1d_fill_latency 3
core_0_l1d_max_tag_check 2
core_0_l1d_max_fill 2
core_0_l2c_set 1024
core_0_l2c_way 8
core_0_l2c_rq_size 32
core_0_l2c_wq_size 32
core_0_l2c_pq_size 16
core_0_l2c_mshr_size 32
core_0_l2c_hit_latency 5
core_0_l2c_fill_latency 5
core_0_l2c_max_tag_check 1
core_0_l2c_max_fill 1
llc_set 2048
llc_way 16
llc_rq_size 32
llc_wq_size 32
llc_pq_size 32
llc_mshr_size 64
llc_hit_latency 10
llc_fill_latency 10
llc_max_tag_check 1
llc_max_fill 1
dram_channels 1
dram_ranks 1
dram_bankgroups 8
dram_banks 4
dram_rows 65536
dram_columns 1024
dram_channel_width 8
dram_rq_size 64
dram_wq_size 64
dram_size 17179869184
core_0_itlb_prefetcher no
core_0_dtlb_prefetcher no
core_0_stlb_prefetcher no
core_0_l1i_prefetcher next_line
core_0_l1d_prefetcher berti
core_0_l2c_prefetcher ip_stride
llc_prefetcher no
llc_replacement drrip

Core_0_instructions 50000001
Core_0_cycles 47254980
Core_0_IPC 1.05809
Core_0_branch_prediction_accuracy 97.1281
Core_0_branch_MPKI 7.59034
Core_0_average_ROB_occupancy_at_mispredict 43.4889

Core_0_ITLB_total_access 8372900
Core_0_ITLB_total_hit 8309462
Core_0_ITLB_total_miss 63438
Core_0_ITLB_total_MPKI 1.26876
Core_0_ITLB_total_miss_rate 0.00757659
Core_0_ITLB_demand_access 8372900
Core_0_ITLB_demand_hit 8309462
Core_0_ITLB_demand_miss 63438
Core_0_ITLB_demand_MPKI 1.26876
Core_0_ITLB_demand_miss_rate 0.00757659
Core_0_ITLB_load_access 8372900
Core_0_ITLB_load_hit 8309462
Core_0_ITLB_load_miss 63438
Core_0_ITLB_load_MPKI 1.26876
Core_0_ITLB_load_miss_rate 0.00757659
Core_0_ITLB_rfo_access 0
Core_0_ITLB_rfo_hit 0
Core_0_ITLB_rfo_miss 0
Core_0_ITLB_rfo_MPKI 0
Core_0_ITLB_rfo_miss_rate 0
Core_0_ITLB_prefetch_access 0
Core_0_ITLB_prefetch_hit 0
Core_0_ITLB_prefetch_miss 0
Core_0_ITLB_prefetch_MPKI 0
Core_0_ITLB_prefetch_miss_rate 0
Core_0_ITLB_writeback_access 0
Core_0_ITLB_writeback_hit 0
Core_0_ITLB_writeback_miss 0
Core_0_ITLB_writeback_MPKI 0
Core_0_ITLB_writeback_miss_rate 0
Core_0_ITLB_prefetch_requested 0
Core_0_ITLB_prefetch_issued 0
Core_0_ITLB_prefetch_useful 0
Core_0_ITLB_prefetch_useless 0
Core_0_ITLB_prefetch_late 0
Core_0_ITLB_prefetch_accuracy 0
Core_0_ITLB_prefetch_coverage 0

Core_0_DTLB_total_access 14493731
Core_0_DTLB_total_hit 12656227
Core_0_DTLB_total_miss 1837504
Core_0_DTLB_total_MPKI 36.7501
Core_0_DTLB_total_miss_rate 0.126779
Core_0_DTLB_demand_access 14493731
Core_0_DTLB_demand_hit 12656227
Core_0_DTLB_demand_miss 1837504
Core_0_DTLB_demand_MPKI 36.7501
Core_0_DTLB_demand_miss_rate 0.126779
Core_0_DTLB_load_access 14493731
Core_0_DTLB_load_hit 12656227
Core_0_DTLB_load_miss 1837504
Core_0_DTLB_load_MPKI 36.7501
Core_0_DTLB_load_miss_rate 0.126779
Core_0_DTLB_rfo_access 0
Core_0_DTLB_rfo_hit 0
Core_0_DTLB_rfo_miss 0
Core_0_DTLB_rfo_MPKI 0
Core_0_DTLB_rfo_miss_rate 0
Core_0_DTLB_prefetch_access 0
Core_0_DTLB_prefetch_hit 0
Core_0_DTLB_prefetch_miss 0
Core_0_DTLB_prefetch_MPKI 0
Core_0_DTLB_prefetch_miss_rate 0
Core_0_DTLB_writeback_access 0
Core_0_DTLB_writeback_hit 0
Core_0_DTLB_writeback_miss 0
Core_0_DTLB_writeback_MPKI 0
Core_0_DTLB_writeback_miss_rate 0
Core_0_DTLB_prefetch_requested 0
Core_0_DTLB_prefetch_issued 0
Core_0_DTLB_prefetch_useful 0
Core_0_DTLB_prefetch_useless 0
Core_0_DTLB_prefetch_late 0
Core_0_DTLB_prefetch_accuracy 0
Core_0_DTLB_prefetch_coverage 0

Core_0_STLB_total_access 1258825
Core_0_STLB_total_hit 1258204
Core_0_STLB_total_miss 621
Core_0_STLB_total_MPKI 0.01242
Core_0_STLB_total_miss_rate 0.000493317
Core_0_STLB_demand_access 1258825
Core_0_STLB_demand_hit 1258204
Core_0_STLB_demand_miss 621
Core_0_STLB_demand_MPKI 0.01242
Core_0_STLB_demand_miss_rate 0.000493317
Core_0_STLB_load_access 1258825
Core_0_STLB_load_hit 1258204
Core_0_STLB_load_miss 621
Core_0_STLB_load_MPKI 0.01242
Core_0_STLB_load_miss_rate 0.000493317
Core_0_STLB_rfo_access 0
Core_0_STLB_rfo_hit 0
Core_0_STLB_rfo_miss 0
Core_0_STLB_rfo_MPKI 0
Core_0_STLB_rfo_miss_rate 0
Core_0_STLB_prefetch_access 0
Core_0_STLB_prefetch_hit 0
Core_0_STLB_prefetch_miss 0
Core_0_STLB_prefetch_MPKI 0
Core_0_STLB_prefetch_miss_rate 0
Core_0_STLB_writeback_access 0
Core_0_STLB_writeback_hit 0
Core_0_STLB_writeback_miss 0
Core_0_STLB_writeback_MPKI 0
Core_0_STLB_writeback_miss_rate 0
Core_0_STLB_prefetch_requested 0
Core_0_STLB_prefetch_issued 0
Core_0_STLB_prefetch_useful 0
Core_0_STLB_prefetch_useless 0
Core_0_STLB_prefetch_late 0
Core_0_STLB_prefetch_accuracy 0
Core_0_STLB_prefetch_coverage 0

Core_0_L1I_total_access 9109446
Core_0_L1I_total_hit 8847462
Core_0_L1I_total_miss 261984
Core_0_L1I_total_MPKI 5.23968
Core_0_L1I_total_miss_rate 0.0287596
Core_0_L1I_demand_access 9109446
Core_0_L1I_demand_hit 8847462
Core_0_L1I_demand_miss 261984
Core_0_L1I_demand_MPKI 5.23968
Core_0_L1I_demand_miss_rate 0.0287596
Core_0_L1I_load_access 9109446
Core_0_L1I_load_hit 8847462
Core_0_L1I_load_miss 261984
Core_0_L1I_load_MPKI 5.23968
Core_0_L1I_load_miss_rate 0.0287596
Core_0_L1I_rfo_access 0
Core_0_L1I_rfo_hit 0
Core_0_L1I_rfo_miss 0
Core_0_L1I_rfo_MPKI 0
Core_0_L1I_rfo_miss_rate 0
Core_0_L1I_prefetch_access 0
Core_0_L1I_prefetch_hit 0
Core_0_L1I_prefetch_miss 0
Core_0_L1I_prefetch_MPKI 0
Core_0_L1I_prefetch_miss_rate 0
Core_0_L1I_writeback_access 0
Core_0_L1I_writeback_hit 0
Core_0_L1I_writeback_miss 0
Core_0_L1I_writeback_MPKI 0
Core_0_L1I_writeback_miss_rate 0
Core_0_L1I_prefetch_requested 0
Core_0_L1I_prefetch_issued 0
Core_0_L1I_prefetch_useful 0
Core_0_L1I_prefetch_useless 0
Core_0_L1I_prefetch_late 0
Core_0_L1I_prefetch_accuracy 0
Core_0_L1I_prefetch_coverage 0

Core_0_L1D_total_access 15221671
Core_0_L1D_total_hit 11453996
Core_0_L1D_total_miss 3767675
Core_0_L1D_total_MPKI 75.3535
Core_0_L1D_total_miss_rate 0.24752
Core_0_L1D_demand_access 8992985
Core_0_L1D_demand_hit 6603988
Core_0_L1D_demand_miss 2388997
Core_0_L1D_demand_MPKI 47.7799
Core_0_L1D_demand_miss_rate 0.265651
Core_0_L1D_load_access 8992985
Core_0_L1D_load_hit 6603988
Core_0_L1D_load_miss 2388997
Core_0_L1D_load_MPKI 47.7799
Core_0_L1D_load_miss_rate 0.265651
Core_0_L1D_rfo_access 0
Core_0_L1D_rfo_hit 0
Core_0_L1D_rfo_miss 0
Core_0_L1D_rfo_MPKI 0
Core_0_L1D_rfo_miss_rate 0
Core_0_L1D_prefetch_access 1341505
Core_0_L1D_prefetch_hit 446627
Core_0_L1D_prefetch_miss 894878
Core_0_L1D_prefetch_MPKI 17.8976
Core_0_L1D_prefetch_miss_rate 0.66707
Core_0_L1D_writeback_access 4887181
Core_0_L1D_writeback_hit 4403381
Core_0_L1D_writeback_miss 483800
Core_0_L1D_writeback_MPKI 9.676
Core_0_L1D_writeback_miss_rate 0.0989937
Core_0_L1D_prefetch_requested 1372627
Core_0_L1D_prefetch_issued 1341500
Core_0_L1D_prefetch_useful 278305
Core_0_L1D_prefetch_useless 554301
Core_0_L1D_prefetch_late 19475
Core_0_L1D_prefetch_accuracy 0.207458
Core_0_L1D_prefetch_coverage 0.10434

Core_0_L2C_total_access 3645332
Core_0_L2C_total_hit 3202567
Core_0_L2C_total_miss 442765
Core_0_L2C_total_MPKI 8.8553
Core_0_L2C_total_miss_rate 0.121461
Core_0_L2C_demand_access 2269198
Core_0_L2C_demand_hit 1973806
Core_0_L2C_demand_miss 295392
Core_0_L2C_demand_MPKI 5.90784
Core_0_L2C_demand_miss_rate 0.130175
Core_0_L2C_load_access 2143360
Core_0_L2C_load_hit 1955343
Core_0_L2C_load_miss 188017
Core_0_L2C_load_MPKI 3.76034
Core_0_L2C_load_miss_rate 0.0877207
Core_0_L2C_rfo_access 125838
Core_0_L2C_rfo_hit 18463
Core_0_L2C_rfo_miss 107375
Core_0_L2C_rfo_MPKI 2.1475
Core_0_L2C_rfo_miss_rate 0.85328
Core_0_L2C_prefetch_access 1196324
Core_0_L2C_prefetch_hit 1048975
Core_0_L2C_prefetch_miss 147349
Core_0_L2C_prefetch_MPKI 2.94698
Core_0_L2C_prefetch_miss_rate 0.123168
Core_0_L2C_writeback_access 179810
Core_0_L2C_writeback_hit 179786
Core_0_L2C_writeback_miss 24
Core_0_L2C_writeback_MPKI 0.00048
Core_0_L2C_writeback_miss_rate 0.000133474
Core_0_L2C_prefetch_requested 363986
Core_0_L2C_prefetch_issued 363779
Core_0_L2C_prefetch_useful 9607
Core_0_L2C_prefetch_useless 5391
Core_0_L2C_prefetch_late 417
Core_0_L2C_prefetch_accuracy 0.0264089
Core_0_L2C_prefetch_coverage 0.0314985

Core_0_LLC_total_access 556376
Core_0_LLC_total_hit 415440
Core_0_LLC_total_miss 140936
Core_0_LLC_total_MPKI 2.81872
Core_0_LLC_total_miss_rate 0.253311
Core_0_LLC_demand_access 294975
Core_0_LLC_demand_hit 184337
Core_0_LLC_demand_miss 110638
Core_0_LLC_demand_MPKI 2.21276
Core_0_LLC_demand_miss_rate 0.375076
Core_0_LLC_load_access 187693
Core_0_LLC_load_hit 178756
Core_0_LLC_load_miss 8937
Core_0_LLC_load_MPKI 0.17874
Core_0_LLC_load_miss_rate 0.047615
Core_0_LLC_rfo_access 107282
Core_0_LLC_rfo_hit 5581
Core_0_LLC_rfo_miss 101701
Core_0_LLC_rfo_MPKI 2.03402
Core_0_LLC_rfo_miss_rate 0.947978
Core_0_LLC_prefetch_access 137776
Core_0_LLC_prefetch_hit 117855
Core_0_LLC_prefetch_miss 19921
Core_0_LLC_prefetch_MPKI 0.39842
Core_0_LLC_prefetch_miss_rate 0.14459
Core_0_LLC_writeback_access 123625
Core_0_LLC_writeback_hit 113248
Core_0_LLC_writeback_miss 10377
Core_0_LLC_writeback_MPKI 0.20754
Core_0_LLC_writeback_miss_rate 0.0839393
Core_0_LLC_prefetch_requested 0
Core_0_LLC_prefetch_issued 0
Core_0_LLC_prefetch_useful 0
Core_0_LLC_prefetch_useless 0
Core_0_LLC_prefetch_late 0
Core_0_LLC_prefetch_accuracy 0
Core_0_LLC_prefetch_coverage 0

[DRAM Statistics]
Channel_0_RQ_row_buffer_hit 11320
Channel_0_RQ_row_buffer_miss 119530
Channel_0_WQ_row_buffer_hit 5279
Channel_0_WQ_row_buffer_miss 88245
Channel_0_WQ_full 0
Channel_0_dbus_congested 469326
DRAM_total_RQ_row_buffer_hit 11320
DRAM_total_RQ_row_buffer_miss 119530
DRAM_total_WQ_row_buffer_hit 5279
DRAM_total_WQ_row_buffer_miss 88245
DRAM_total_WQ_full 0
DRAM_total_dbus_congested 469326
DRAM_avg_congested_cycle 5.90609

======STLB miss causes ========
Core_0_STLB_miss_cause_breakdown
Core_0_STLB_cause_Demand_Data_miss 0
Core_0_STLB_cause_Demand_Data_miss_rate 0
Core_0_STLB_cause_Demand_Instruction_miss 0
Core_0_STLB_cause_Demand_Instruction_miss_rate 0
Core_0_STLB_cause_L1D_Prefetch_miss 621
Core_0_STLB_cause_L1D_Prefetch_miss_rate 0.000493317
Core_0_STLB_cause_L1I_Prefetch_miss 0
Core_0_STLB_cause_L1I_Prefetch_miss_rate 0
Core_0_STLB_cause_Other_miss 0
Core_0_STLB_cause_Other_miss_rate 0
Core_0_STLB_Demand_miss 0
Core_0_STLB_Demand_miss_rate 0
Core_0_STLB_L1D_Prefetch_miss 621
Core_0_STLB_L1D_Prefetch_miss_rate 0.000493317
Core_0_STLB_Other_miss 0
Core_0_STLB_Other_miss_rate 0
