[VMEM] WARNING: physical memory size is smaller than virtual memory size.

*** ChampSim Multicore Out-of-Order Simulator ***
Warmup Instructions: 20000000
Simulation Instructions: 50000000
Number of CPUs: 1
Page size: 4096
STLB ideal mode: demand
Core 0: /data0/tzh/champsim_traces/Ligra/ligra_PageRank.com-lj.ungraph.gcc_6.3.0_O3.drop_60750M.length_250M.champsimtrace.xz
 L1D Berti prefetcher
Off-chip DRAM Size: 16 GiB Channels: 1 Width: 64-bit Data Rate: 3205 MT/s
Warmup halting CPU 0 at instruction 20000002 cycle 4194787 for remainder of phase
Warmup finished CPU 0 instructions: 20000002 cycles: 4194787 cumulative IPC: 4.768 (Simulation time: 00 hr 01 min 05 sec)
Warmup complete CPU 0 instructions: 20000002 cycles: 4194787 cumulative IPC: 4.768 (Simulation time: 00 hr 01 min 05 sec)
Simulation finished CPU 0 instructions: 50000002 cycles: 107753262 cumulative IPC: 0.464 (Simulation time: 00 hr 10 min 17 sec)
Simulation complete CPU 0 instructions: 50000002 cycles: 107753262 cumulative IPC: 0.464 (Simulation time: 00 hr 10 min 17 sec)

ChampSim completed all CPUs

=== Simulation ===
CPU 0 runs /data0/tzh/champsim_traces/Ligra/ligra_PageRank.com-lj.ungraph.gcc_6.3.0_O3.drop_60750M.length_250M.champsimtrace.xz

Region of Interest Statistics

CPU 0 cumulative IPC: 0.464 instructions: 50000002 cycles: 107753262
CPU 0 Branch Prediction Accuracy: 92.96% MPKI: 9.943 Average ROB Occupancy at Mispredict: 86.14
Branch type MPKI
BRANCH_DIRECT_JUMP: 4e-05
BRANCH_INDIRECT: 0
BRANCH_CONDITIONAL: 9.943
BRANCH_DIRECT_CALL: 0
BRANCH_INDIRECT_CALL: 0
BRANCH_RETURN: 4e-05

cpu0->cpu0_STLB TOTAL        ACCESS:    1767620 HIT:    1753278 MISS:      14342 MSHR_MERGE:          0
cpu0->cpu0_STLB LOAD         ACCESS:    1767620 HIT:    1753278 MISS:      14342 MSHR_MERGE:          0
cpu0->cpu0_STLB RFO          ACCESS:          0 HIT:          0 MISS:          0 MSHR_MERGE:          0
cpu0->cpu0_STLB PREFETCH     ACCESS:          0 HIT:          0 MISS:          0 MSHR_MERGE:          0
cpu0->cpu0_STLB WRITE        ACCESS:          0 HIT:          0 MISS:          0 MSHR_MERGE:          0
cpu0->cpu0_STLB TRANSLATION  ACCESS:          0 HIT:          0 MISS:          0 MSHR_MERGE:          0
cpu0->cpu0_STLB PREFETCH REQUESTED:          0 ISSUED:          0 USEFUL:          0 USELESS:          0 LATE:          0
cpu0->cpu0_STLB AVERAGE MISS LATENCY: 300.9 cycles
cpu0->cpu0_L2C TOTAL        ACCESS:    3311873 HIT:     431850 MISS:    2880023 MSHR_MERGE:     240371
cpu0->cpu0_L2C LOAD         ACCESS:    2005968 HIT:      83121 MISS:    1922847 MSHR_MERGE:       3189
cpu0->cpu0_L2C RFO          ACCESS:         40 HIT:         39 MISS:          1 MSHR_MERGE:          0
cpu0->cpu0_L2C PREFETCH     ACCESS:    1096851 HIT:     150636 MISS:     946215 MSHR_MERGE:     237182
cpu0->cpu0_L2C WRITE        ACCESS:     193332 HIT:     193331 MISS:          1 MSHR_MERGE:          0
cpu0->cpu0_L2C TRANSLATION  ACCESS:      15682 HIT:       4723 MISS:      10959 MSHR_MERGE:          0
cpu0->cpu0_L2C PREFETCH REQUESTED:     433883 ISSUED:     433883 USEFUL:     203174 USELESS:      28067 LATE:       3189
cpu0->cpu0_L2C AVERAGE MISS LATENCY: 246.3 cycles
cpu0->cpu0_L1I TOTAL        ACCESS:    1271263 HIT:    1271258 MISS:          5 MSHR_MERGE:          0
cpu0->cpu0_L1I LOAD         ACCESS:    1271263 HIT:    1271258 MISS:          5 MSHR_MERGE:          0
cpu0->cpu0_L1I RFO          ACCESS:          0 HIT:          0 MISS:          0 MSHR_MERGE:          0
cpu0->cpu0_L1I PREFETCH     ACCESS:          0 HIT:          0 MISS:          0 MSHR_MERGE:          0
cpu0->cpu0_L1I WRITE        ACCESS:          0 HIT:          0 MISS:          0 MSHR_MERGE:          0
cpu0->cpu0_L1I TRANSLATION  ACCESS:          0 HIT:          0 MISS:          0 MSHR_MERGE:          0
cpu0->cpu0_L1I PREFETCH REQUESTED:          0 ISSUED:          0 USEFUL:          0 USELESS:          0 LATE:          0
cpu0->cpu0_L1I AVERAGE MISS LATENCY: 214 cycles
cpu0->cpu0_L1D TOTAL        ACCESS:   14430548 HIT:   11174598 MISS:    3255950 MSHR_MERGE:     571295
cpu0->cpu0_L1D LOAD         ACCESS:   11127874 HIT:    8562528 MISS:    2565346 MSHR_MERGE:     559383
cpu0->cpu0_L1D RFO          ACCESS:          0 HIT:          0 MISS:          0 MSHR_MERGE:          0
cpu0->cpu0_L1D PREFETCH     ACCESS:     776771 HIT:     101970 MISS:     674801 MSHR_MERGE:      11831
cpu0->cpu0_L1D WRITE        ACCESS:    2494095 HIT:    2494015 MISS:         80 MSHR_MERGE:         40
cpu0->cpu0_L1D TRANSLATION  ACCESS:      31808 HIT:      16085 MISS:      15723 MSHR_MERGE:         41
cpu0->cpu0_L1D PREFETCH REQUESTED:     784036 ISSUED:     776769 USEFUL:     528933 USELESS:     134057 LATE:      53768
cpu0->cpu0_L1D AVERAGE MISS LATENCY: 242.9 cycles
cpu0->cpu0_ITLB TOTAL        ACCESS:    1264335 HIT:    1264334 MISS:          1 MSHR_MERGE:          0
cpu0->cpu0_ITLB LOAD         ACCESS:    1264335 HIT:    1264334 MISS:          1 MSHR_MERGE:          0
cpu0->cpu0_ITLB RFO          ACCESS:          0 HIT:          0 MISS:          0 MSHR_MERGE:          0
cpu0->cpu0_ITLB PREFETCH     ACCESS:          0 HIT:          0 MISS:          0 MSHR_MERGE:          0
cpu0->cpu0_ITLB WRITE        ACCESS:          0 HIT:          0 MISS:          0 MSHR_MERGE:          0
cpu0->cpu0_ITLB TRANSLATION  ACCESS:          0 HIT:          0 MISS:          0 MSHR_MERGE:          0
cpu0->cpu0_ITLB PREFETCH REQUESTED:          0 ISSUED:          0 USEFUL:          0 USELESS:          0 LATE:          0
cpu0->cpu0_ITLB AVERAGE MISS LATENCY: 5 cycles
cpu0->cpu0_DTLB TOTAL        ACCESS:   13934762 HIT:   12121219 MISS:    1813543 MSHR_MERGE:      45924
cpu0->cpu0_DTLB LOAD         ACCESS:   13934762 HIT:   12121219 MISS:    1813543 MSHR_MERGE:      45924
cpu0->cpu0_DTLB RFO          ACCESS:          0 HIT:          0 MISS:          0 MSHR_MERGE:          0
cpu0->cpu0_DTLB PREFETCH     ACCESS:          0 HIT:          0 MISS:          0 MSHR_MERGE:          0
cpu0->cpu0_DTLB WRITE        ACCESS:          0 HIT:          0 MISS:          0 MSHR_MERGE:          0
cpu0->cpu0_DTLB TRANSLATION  ACCESS:          0 HIT:          0 MISS:          0 MSHR_MERGE:          0
cpu0->cpu0_DTLB PREFETCH REQUESTED:          0 ISSUED:          0 USEFUL:          0 USELESS:          0 LATE:          0
cpu0->cpu0_DTLB AVERAGE MISS LATENCY: 7.46 cycles
cpu0->LLC TOTAL        ACCESS:    2826456 HIT:     299864 MISS:    2526592 MSHR_MERGE:       1990
cpu0->LLC LOAD         ACCESS:    1919658 HIT:     180143 MISS:    1739515 MSHR_MERGE:        551
cpu0->LLC RFO          ACCESS:          1 HIT:          0 MISS:          1 MSHR_MERGE:          0
cpu0->LLC PREFETCH     ACCESS:     709031 HIT:      15437 MISS:     693594 MSHR_MERGE:       1439
cpu0->LLC WRITE        ACCESS:     186807 HIT:     102977 MISS:      83830 MSHR_MERGE:          0
cpu0->LLC TRANSLATION  ACCESS:      10959 HIT:       1307 MISS:       9652 MSHR_MERGE:          0
cpu0->LLC PREFETCH REQUESTED:          0 ISSUED:          0 USEFUL:          0 USELESS:          0 LATE:          0
cpu0->LLC AVERAGE MISS LATENCY: 243.2 cycles

DRAM Statistics

Channel 0 RQ ROW_BUFFER_HIT:      16004
  ROW_BUFFER_MISS:    2424763
  AVG DBUS CONGESTED CYCLE: 4.288
Channel 0 WQ ROW_BUFFER_HIT:      37646
  ROW_BUFFER_MISS:     133716
  FULL:          0
Channel 0 REFRESHES ISSUED:       8980

[ROI Statistics]
[System Configuration]
num_cpus 1
cpu_freq 4000
fetch_width 6
decode_width 6
dispatch_width 6
execute_width 6
lq_width 2
sq_width 2
retire_width 6
scheduler_size 128
branch_mispredict_penalty 15
rob_size 352
lq_size 128
sq_size 72
ifetch_buffer_size 64
decode_buffer_size 32
dispatch_buffer_size 32
register_file_size 288
decode_latency 1
dispatch_latency 1
schedule_latency 1
execute_latency 1
page_size 4096
block_size 64
core_0_itlb_set 16
core_0_itlb_way 4
core_0_itlb_rq_size 16
core_0_itlb_wq_size 16
core_0_itlb_pq_size 0
core_0_itlb_mshr_size 8
core_0_itlb_hit_latency 1
core_0_itlb_fill_latency 1
core_0_itlb_max_tag_check 2
core_0_itlb_max_fill 2
core_0_dtlb_set 16
core_0_dtlb_way 4
core_0_dtlb_rq_size 16
core_0_dtlb_wq_size 16
core_0_dtlb_pq_size 0
core_0_dtlb_mshr_size 8
core_0_dtlb_hit_latency 1
core_0_dtlb_fill_latency 1
core_0_dtlb_max_tag_check 2
core_0_dtlb_max_fill 2
core_0_stlb_set 128
core_0_stlb_way 12
core_0_stlb_rq_size 32
core_0_stlb_wq_size 32
core_0_stlb_pq_size 0
core_0_stlb_mshr_size 16
core_0_stlb_hit_latency 4
core_0_stlb_fill_latency 4
core_0_stlb_max_tag_check 1
core_0_stlb_max_fill 1
core_0_l1i_set 64
core_0_l1i_way 8
core_0_l1i_rq_size 64
core_0_l1i_wq_size 64
core_0_l1i_pq_size 32
core_0_l1i_mshr_size 8
core_0_l1i_hit_latency 2
core_0_l1i_fill_latency 2
core_0_l1i_max_tag_check 2
core_0_l1i_max_fill 2
core_0_l1d_set 64
core_0_l1d_way 12
core_0_l1d_rq_size 64
core_0_l1d_wq_size 64
core_0_l1d_pq_size 8
core_0_l1d_mshr_size 16
core_0_l1d_hit_latency 2
core_0_l1d_fill_latency 3
core_0_l1d_max_tag_check 2
core_0_l1d_max_fill 2
core_0_l2c_set 1024
core_0_l2c_way 8
core_0_l2c_rq_size 32
core_0_l2c_wq_size 32
core_0_l2c_pq_size 16
core_0_l2c_mshr_size 32
core_0_l2c_hit_latency 5
core_0_l2c_fill_latency 5
core_0_l2c_max_tag_check 1
core_0_l2c_max_fill 1
llc_set 2048
llc_way 16
llc_rq_size 32
llc_wq_size 32
llc_pq_size 32
llc_mshr_size 64
llc_hit_latency 10
llc_fill_latency 10
llc_max_tag_check 1
llc_max_fill 1
dram_channels 1
dram_ranks 1
dram_bankgroups 8
dram_banks 4
dram_rows 65536
dram_columns 1024
dram_channel_width 8
dram_rq_size 64
dram_wq_size 64
dram_size 17179869184
core_0_itlb_prefetcher no
core_0_dtlb_prefetcher no
core_0_stlb_prefetcher no
core_0_l1i_prefetcher next_line
core_0_l1d_prefetcher berti
core_0_l2c_prefetcher ip_stride
llc_prefetcher no
llc_replacement drrip

Core_0_instructions 50000002
Core_0_cycles 107753262
Core_0_IPC 0.464023
Core_0_branch_prediction_accuracy 92.9592
Core_0_branch_MPKI 9.94282
Core_0_average_ROB_occupancy_at_mispredict 86.1436

Core_0_ITLB_total_access 1264335
Core_0_ITLB_total_hit 1264334
Core_0_ITLB_total_miss 1
Core_0_ITLB_total_MPKI 2e-05
Core_0_ITLB_total_miss_rate 7.9093e-07
Core_0_ITLB_demand_access 1264335
Core_0_ITLB_demand_hit 1264334
Core_0_ITLB_demand_miss 1
Core_0_ITLB_demand_MPKI 2e-05
Core_0_ITLB_demand_miss_rate 7.9093e-07
Core_0_ITLB_load_access 1264335
Core_0_ITLB_load_hit 1264334
Core_0_ITLB_load_miss 1
Core_0_ITLB_load_MPKI 2e-05
Core_0_ITLB_load_miss_rate 7.9093e-07
Core_0_ITLB_rfo_access 0
Core_0_ITLB_rfo_hit 0
Core_0_ITLB_rfo_miss 0
Core_0_ITLB_rfo_MPKI 0
Core_0_ITLB_rfo_miss_rate 0
Core_0_ITLB_prefetch_access 0
Core_0_ITLB_prefetch_hit 0
Core_0_ITLB_prefetch_miss 0
Core_0_ITLB_prefetch_MPKI 0
Core_0_ITLB_prefetch_miss_rate 0
Core_0_ITLB_writeback_access 0
Core_0_ITLB_writeback_hit 0
Core_0_ITLB_writeback_miss 0
Core_0_ITLB_writeback_MPKI 0
Core_0_ITLB_writeback_miss_rate 0
Core_0_ITLB_prefetch_requested 0
Core_0_ITLB_prefetch_issued 0
Core_0_ITLB_prefetch_useful 0
Core_0_ITLB_prefetch_useless 0
Core_0_ITLB_prefetch_late 0
Core_0_ITLB_prefetch_accuracy 0
Core_0_ITLB_prefetch_coverage 0

Core_0_DTLB_total_access 13934762
Core_0_DTLB_total_hit 12121219
Core_0_DTLB_total_miss 1813543
Core_0_DTLB_total_MPKI 36.2709
Core_0_DTLB_total_miss_rate 0.130145
Core_0_DTLB_demand_access 13934762
Core_0_DTLB_demand_hit 12121219
Core_0_DTLB_demand_miss 1813543
Core_0_DTLB_demand_MPKI 36.2709
Core_0_DTLB_demand_miss_rate 0.130145
Core_0_DTLB_load_access 13934762
Core_0_DTLB_load_hit 12121219
Core_0_DTLB_load_miss 1813543
Core_0_DTLB_load_MPKI 36.2709
Core_0_DTLB_load_miss_rate 0.130145
Core_0_DTLB_rfo_access 0
Core_0_DTLB_rfo_hit 0
Core_0_DTLB_rfo_miss 0
Core_0_DTLB_rfo_MPKI 0
Core_0_DTLB_rfo_miss_rate 0
Core_0_DTLB_prefetch_access 0
Core_0_DTLB_prefetch_hit 0
Core_0_DTLB_prefetch_miss 0
Core_0_DTLB_prefetch_MPKI 0
Core_0_DTLB_prefetch_miss_rate 0
Core_0_DTLB_writeback_access 0
Core_0_DTLB_writeback_hit 0
Core_0_DTLB_writeback_miss 0
Core_0_DTLB_writeback_MPKI 0
Core_0_DTLB_writeback_miss_rate 0
Core_0_DTLB_prefetch_requested 0
Core_0_DTLB_prefetch_issued 0
Core_0_DTLB_prefetch_useful 0
Core_0_DTLB_prefetch_useless 0
Core_0_DTLB_prefetch_late 0
Core_0_DTLB_prefetch_accuracy 0
Core_0_DTLB_prefetch_coverage 0

Core_0_STLB_total_access 1767620
Core_0_STLB_total_hit 1753278
Core_0_STLB_total_miss 14342
Core_0_STLB_total_MPKI 0.28684
Core_0_STLB_total_miss_rate 0.00811373
Core_0_STLB_demand_access 1767620
Core_0_STLB_demand_hit 1753278
Core_0_STLB_demand_miss 14342
Core_0_STLB_demand_MPKI 0.28684
Core_0_STLB_demand_miss_rate 0.00811373
Core_0_STLB_load_access 1767620
Core_0_STLB_load_hit 1753278
Core_0_STLB_load_miss 14342
Core_0_STLB_load_MPKI 0.28684
Core_0_STLB_load_miss_rate 0.00811373
Core_0_STLB_rfo_access 0
Core_0_STLB_rfo_hit 0
Core_0_STLB_rfo_miss 0
Core_0_STLB_rfo_MPKI 0
Core_0_STLB_rfo_miss_rate 0
Core_0_STLB_prefetch_access 0
Core_0_STLB_prefetch_hit 0
Core_0_STLB_prefetch_miss 0
Core_0_STLB_prefetch_MPKI 0
Core_0_STLB_prefetch_miss_rate 0
Core_0_STLB_writeback_access 0
Core_0_STLB_writeback_hit 0
Core_0_STLB_writeback_miss 0
Core_0_STLB_writeback_MPKI 0
Core_0_STLB_writeback_miss_rate 0
Core_0_STLB_prefetch_requested 0
Core_0_STLB_prefetch_issued 0
Core_0_STLB_prefetch_useful 0
Core_0_STLB_prefetch_useless 0
Core_0_STLB_prefetch_late 0
Core_0_STLB_prefetch_accuracy 0
Core_0_STLB_prefetch_coverage 0

Core_0_L1I_total_access 1271263
Core_0_L1I_total_hit 1271258
Core_0_L1I_total_miss 5
Core_0_L1I_total_MPKI 0.0001
Core_0_L1I_total_miss_rate 3.9331e-06
Core_0_L1I_demand_access 1271263
Core_0_L1I_demand_hit 1271258
Core_0_L1I_demand_miss 5
Core_0_L1I_demand_MPKI 0.0001
Core_0_L1I_demand_miss_rate 3.9331e-06
Core_0_L1I_load_access 1271263
Core_0_L1I_load_hit 1271258
Core_0_L1I_load_miss 5
Core_0_L1I_load_MPKI 0.0001
Core_0_L1I_load_miss_rate 3.9331e-06
Core_0_L1I_rfo_access 0
Core_0_L1I_rfo_hit 0
Core_0_L1I_rfo_miss 0
Core_0_L1I_rfo_MPKI 0
Core_0_L1I_rfo_miss_rate 0
Core_0_L1I_prefetch_access 0
Core_0_L1I_prefetch_hit 0
Core_0_L1I_prefetch_miss 0
Core_0_L1I_prefetch_MPKI 0
Core_0_L1I_prefetch_miss_rate 0
Core_0_L1I_writeback_access 0
Core_0_L1I_writeback_hit 0
Core_0_L1I_writeback_miss 0
Core_0_L1I_writeback_MPKI 0
Core_0_L1I_writeback_miss_rate 0
Core_0_L1I_prefetch_requested 0
Core_0_L1I_prefetch_issued 0
Core_0_L1I_prefetch_useful 0
Core_0_L1I_prefetch_useless 0
Core_0_L1I_prefetch_late 0
Core_0_L1I_prefetch_accuracy 0
Core_0_L1I_prefetch_coverage 0

Core_0_L1D_total_access 14398740
Core_0_L1D_total_hit 11158513
Core_0_L1D_total_miss 3240227
Core_0_L1D_total_MPKI 64.8045
Core_0_L1D_total_miss_rate 0.225035
Core_0_L1D_demand_access 11127874
Core_0_L1D_demand_hit 8562528
Core_0_L1D_demand_miss 2565346
Core_0_L1D_demand_MPKI 51.3069
Core_0_L1D_demand_miss_rate 0.230533
Core_0_L1D_load_access 11127874
Core_0_L1D_load_hit 8562528
Core_0_L1D_load_miss 2565346
Core_0_L1D_load_MPKI 51.3069
Core_0_L1D_load_miss_rate 0.230533
Core_0_L1D_rfo_access 0
Core_0_L1D_rfo_hit 0
Core_0_L1D_rfo_miss 0
Core_0_L1D_rfo_MPKI 0
Core_0_L1D_rfo_miss_rate 0
Core_0_L1D_prefetch_access 776771
Core_0_L1D_prefetch_hit 101970
Core_0_L1D_prefetch_miss 674801
Core_0_L1D_prefetch_MPKI 13.496
Core_0_L1D_prefetch_miss_rate 0.868726
Core_0_L1D_writeback_access 2494095
Core_0_L1D_writeback_hit 2494015
Core_0_L1D_writeback_miss 80
Core_0_L1D_writeback_MPKI 0.0016
Core_0_L1D_writeback_miss_rate 3.20758e-05
Core_0_L1D_prefetch_requested 784036
Core_0_L1D_prefetch_issued 776769
Core_0_L1D_prefetch_useful 528933
Core_0_L1D_prefetch_useless 134057
Core_0_L1D_prefetch_late 53768
Core_0_L1D_prefetch_accuracy 0.68094
Core_0_L1D_prefetch_coverage 0.170939

Core_0_L2C_total_access 3296191
Core_0_L2C_total_hit 427127
Core_0_L2C_total_miss 2869064
Core_0_L2C_total_MPKI 57.3813
Core_0_L2C_total_miss_rate 0.870418
Core_0_L2C_demand_access 2006008
Core_0_L2C_demand_hit 83160
Core_0_L2C_demand_miss 1922848
Core_0_L2C_demand_MPKI 38.457
Core_0_L2C_demand_miss_rate 0.958545
Core_0_L2C_load_access 2005968
Core_0_L2C_load_hit 83121
Core_0_L2C_load_miss 1922847
Core_0_L2C_load_MPKI 38.4569
Core_0_L2C_load_miss_rate 0.958563
Core_0_L2C_rfo_access 40
Core_0_L2C_rfo_hit 39
Core_0_L2C_rfo_miss 1
Core_0_L2C_rfo_MPKI 2e-05
Core_0_L2C_rfo_miss_rate 0.025
Core_0_L2C_prefetch_access 1096851
Core_0_L2C_prefetch_hit 150636
Core_0_L2C_prefetch_miss 946215
Core_0_L2C_prefetch_MPKI 18.9243
Core_0_L2C_prefetch_miss_rate 0.862665
Core_0_L2C_writeback_access 193332
Core_0_L2C_writeback_hit 193331
Core_0_L2C_writeback_miss 1
Core_0_L2C_writeback_MPKI 2e-05
Core_0_L2C_writeback_miss_rate 5.17245e-06
Core_0_L2C_prefetch_requested 433883
Core_0_L2C_prefetch_issued 433883
Core_0_L2C_prefetch_useful 203174
Core_0_L2C_prefetch_useless 28067
Core_0_L2C_prefetch_late 3189
Core_0_L2C_prefetch_accuracy 0.468269
Core_0_L2C_prefetch_coverage 0.0955653

Core_0_LLC_total_access 2815497
Core_0_LLC_total_hit 298557
Core_0_LLC_total_miss 2516940
Core_0_LLC_total_MPKI 50.3388
Core_0_LLC_total_miss_rate 0.893959
Core_0_LLC_demand_access 1919659
Core_0_LLC_demand_hit 180143
Core_0_LLC_demand_miss 1739516
Core_0_LLC_demand_MPKI 34.7903
Core_0_LLC_demand_miss_rate 0.906159
Core_0_LLC_load_access 1919658
Core_0_LLC_load_hit 180143
Core_0_LLC_load_miss 1739515
Core_0_LLC_load_MPKI 34.7903
Core_0_LLC_load_miss_rate 0.906159
Core_0_LLC_rfo_access 1
Core_0_LLC_rfo_hit 0
Core_0_LLC_rfo_miss 1
Core_0_LLC_rfo_MPKI 2e-05
Core_0_LLC_rfo_miss_rate 1
Core_0_LLC_prefetch_access 709031
Core_0_LLC_prefetch_hit 15437
Core_0_LLC_prefetch_miss 693594
Core_0_LLC_prefetch_MPKI 13.8719
Core_0_LLC_prefetch_miss_rate 0.978228
Core_0_LLC_writeback_access 186807
Core_0_LLC_writeback_hit 102977
Core_0_LLC_writeback_miss 83830
Core_0_LLC_writeback_MPKI 1.6766
Core_0_LLC_writeback_miss_rate 0.448752
Core_0_LLC_prefetch_requested 0
Core_0_LLC_prefetch_issued 0
Core_0_LLC_prefetch_useful 0
Core_0_LLC_prefetch_useless 0
Core_0_LLC_prefetch_late 0
Core_0_LLC_prefetch_accuracy 0
Core_0_LLC_prefetch_coverage 0

[DRAM Statistics]
Channel_0_RQ_row_buffer_hit 16004
Channel_0_RQ_row_buffer_miss 2424763
Channel_0_WQ_row_buffer_hit 37646
Channel_0_WQ_row_buffer_miss 133716
Channel_0_WQ_full 0
Channel_0_dbus_congested 5212594
DRAM_total_RQ_row_buffer_hit 16004
DRAM_total_RQ_row_buffer_miss 2424763
DRAM_total_WQ_row_buffer_hit 37646
DRAM_total_WQ_row_buffer_miss 133716
DRAM_total_WQ_full 0
DRAM_total_dbus_congested 5212594
DRAM_avg_congested_cycle 4.28806

======STLB miss causes ========
Core_0_STLB_miss_cause_breakdown
Core_0_STLB_cause_Demand_Data_miss 0
Core_0_STLB_cause_Demand_Data_miss_rate 0
Core_0_STLB_cause_Demand_Instruction_miss 0
Core_0_STLB_cause_Demand_Instruction_miss_rate 0
Core_0_STLB_cause_L1D_Prefetch_miss 14342
Core_0_STLB_cause_L1D_Prefetch_miss_rate 0.00811373
Core_0_STLB_cause_L1I_Prefetch_miss 0
Core_0_STLB_cause_L1I_Prefetch_miss_rate 0
Core_0_STLB_cause_Other_miss 0
Core_0_STLB_cause_Other_miss_rate 0
Core_0_STLB_Demand_miss 0
Core_0_STLB_Demand_miss_rate 0
Core_0_STLB_L1D_Prefetch_miss 14342
Core_0_STLB_L1D_Prefetch_miss_rate 0.00811373
Core_0_STLB_Other_miss 0
Core_0_STLB_Other_miss_rate 0
