[VMEM] WARNING: physical memory size is smaller than virtual memory size.

*** ChampSim Multicore Out-of-Order Simulator ***
Warmup Instructions: 20000000
Simulation Instructions: 50000000
Number of CPUs: 1
Page size: 4096
STLB ideal mode: demand
Core 0: /data0/tzh/champsim_traces/Ligra/ligra_PageRank.com-lj.ungraph.gcc_6.3.0_O3.drop_21750M.length_250M.champsimtrace.xz
 L1D Berti prefetcher
Off-chip DRAM Size: 16 GiB Channels: 1 Width: 64-bit Data Rate: 3205 MT/s
Warmup halting CPU 0 at instruction 20000003 cycle 4528354 for remainder of phase
Warmup finished CPU 0 instructions: 20000003 cycles: 4528354 cumulative IPC: 4.417 (Simulation time: 00 hr 01 min 26 sec)
Warmup complete CPU 0 instructions: 20000003 cycles: 4528354 cumulative IPC: 4.417 (Simulation time: 00 hr 01 min 26 sec)
Simulation finished CPU 0 instructions: 50000003 cycles: 77558686 cumulative IPC: 0.6447 (Simulation time: 00 hr 10 min 37 sec)
Simulation complete CPU 0 instructions: 50000003 cycles: 77558686 cumulative IPC: 0.6447 (Simulation time: 00 hr 10 min 37 sec)

ChampSim completed all CPUs

=== Simulation ===
CPU 0 runs /data0/tzh/champsim_traces/Ligra/ligra_PageRank.com-lj.ungraph.gcc_6.3.0_O3.drop_21750M.length_250M.champsimtrace.xz

Region of Interest Statistics

CPU 0 cumulative IPC: 0.6447 instructions: 50000003 cycles: 77558686
CPU 0 Branch Prediction Accuracy: 96.45% MPKI: 3.954 Average ROB Occupancy at Mispredict: 234.3
Branch type MPKI
BRANCH_DIRECT_JUMP: 0
BRANCH_INDIRECT: 0
BRANCH_CONDITIONAL: 3.954
BRANCH_DIRECT_CALL: 0
BRANCH_INDIRECT_CALL: 0
BRANCH_RETURN: 0

cpu0->cpu0_STLB TOTAL        ACCESS:    4004893 HIT:    3993632 MISS:      11261 MSHR_MERGE:          0
cpu0->cpu0_STLB LOAD         ACCESS:    4004893 HIT:    3993632 MISS:      11261 MSHR_MERGE:          0
cpu0->cpu0_STLB RFO          ACCESS:          0 HIT:          0 MISS:          0 MSHR_MERGE:          0
cpu0->cpu0_STLB PREFETCH     ACCESS:          0 HIT:          0 MISS:          0 MSHR_MERGE:          0
cpu0->cpu0_STLB WRITE        ACCESS:          0 HIT:          0 MISS:          0 MSHR_MERGE:          0
cpu0->cpu0_STLB TRANSLATION  ACCESS:          0 HIT:          0 MISS:          0 MSHR_MERGE:          0
cpu0->cpu0_STLB PREFETCH REQUESTED:          0 ISSUED:          0 USEFUL:          0 USELESS:          0 LATE:          0
cpu0->cpu0_STLB AVERAGE MISS LATENCY: 295.3 cycles
cpu0->cpu0_L2C TOTAL        ACCESS:    4625623 HIT:    1080132 MISS:    3545491 MSHR_MERGE:      26800
cpu0->cpu0_L2C LOAD         ACCESS:    3891948 HIT:     838164 MISS:    3053784 MSHR_MERGE:       2809
cpu0->cpu0_L2C RFO          ACCESS:         16 HIT:         16 MISS:          0 MSHR_MERGE:          0
cpu0->cpu0_L2C PREFETCH     ACCESS:     697794 HIT:     215291 MISS:     482503 MSHR_MERGE:      23991
cpu0->cpu0_L2C WRITE        ACCESS:      24734 HIT:      24734 MISS:          0 MSHR_MERGE:          0
cpu0->cpu0_L2C TRANSLATION  ACCESS:      11131 HIT:       1927 MISS:       9204 MSHR_MERGE:          0
cpu0->cpu0_L2C PREFETCH REQUESTED:     246183 ISSUED:     246183 USEFUL:      95173 USELESS:      23503 LATE:       2809
cpu0->cpu0_L2C AVERAGE MISS LATENCY: 198.1 cycles
cpu0->cpu0_L1I TOTAL        ACCESS:    1785950 HIT:    1785950 MISS:          0 MSHR_MERGE:          0
cpu0->cpu0_L1I LOAD         ACCESS:    1785950 HIT:    1785950 MISS:          0 MSHR_MERGE:          0
cpu0->cpu0_L1I RFO          ACCESS:          0 HIT:          0 MISS:          0 MSHR_MERGE:          0
cpu0->cpu0_L1I PREFETCH     ACCESS:          0 HIT:          0 MISS:          0 MSHR_MERGE:          0
cpu0->cpu0_L1I WRITE        ACCESS:          0 HIT:          0 MISS:          0 MSHR_MERGE:          0
cpu0->cpu0_L1I TRANSLATION  ACCESS:          0 HIT:          0 MISS:          0 MSHR_MERGE:          0
cpu0->cpu0_L1I PREFETCH REQUESTED:          0 ISSUED:          0 USEFUL:          0 USELESS:          0 LATE:          0
cpu0->cpu0_L1I AVERAGE MISS LATENCY: - cycles
cpu0->cpu0_L1D TOTAL        ACCESS:   14876028 HIT:   10283784 MISS:    4592244 MSHR_MERGE:     237537
cpu0->cpu0_L1D LOAD         ACCESS:   11538963 HIT:    7423999 MISS:    4114964 MSHR_MERGE:     223016
cpu0->cpu0_L1D RFO          ACCESS:          0 HIT:          0 MISS:          0 MSHR_MERGE:          0
cpu0->cpu0_L1D PREFETCH     ACCESS:     868418 HIT:     402318 MISS:     466100 MSHR_MERGE:      14489
cpu0->cpu0_L1D WRITE        ACCESS:    2446137 HIT:    2446102 MISS:         35 MSHR_MERGE:         18
cpu0->cpu0_L1D TRANSLATION  ACCESS:      22510 HIT:      11365 MISS:      11145 MSHR_MERGE:         14
cpu0->cpu0_L1D PREFETCH REQUESTED:     887403 ISSUED:     868413 USEFUL:     186786 USELESS:     264863 LATE:      11325
cpu0->cpu0_L1D AVERAGE MISS LATENCY: 164.2 cycles
cpu0->cpu0_ITLB TOTAL        ACCESS:    1720394 HIT:    1720394 MISS:          0 MSHR_MERGE:          0
cpu0->cpu0_ITLB LOAD         ACCESS:    1720394 HIT:    1720394 MISS:          0 MSHR_MERGE:          0
cpu0->cpu0_ITLB RFO          ACCESS:          0 HIT:          0 MISS:          0 MSHR_MERGE:          0
cpu0->cpu0_ITLB PREFETCH     ACCESS:          0 HIT:          0 MISS:          0 MSHR_MERGE:          0
cpu0->cpu0_ITLB WRITE        ACCESS:          0 HIT:          0 MISS:          0 MSHR_MERGE:          0
cpu0->cpu0_ITLB TRANSLATION  ACCESS:          0 HIT:          0 MISS:          0 MSHR_MERGE:          0
cpu0->cpu0_ITLB PREFETCH REQUESTED:          0 ISSUED:          0 USEFUL:          0 USELESS:          0 LATE:          0
cpu0->cpu0_ITLB AVERAGE MISS LATENCY: - cycles
cpu0->cpu0_DTLB TOTAL        ACCESS:   14684094 HIT:   10444446 MISS:    4239648 MSHR_MERGE:     234755
cpu0->cpu0_DTLB LOAD         ACCESS:   14684094 HIT:   10444446 MISS:    4239648 MSHR_MERGE:     234755
cpu0->cpu0_DTLB RFO          ACCESS:          0 HIT:          0 MISS:          0 MSHR_MERGE:          0
cpu0->cpu0_DTLB PREFETCH     ACCESS:          0 HIT:          0 MISS:          0 MSHR_MERGE:          0
cpu0->cpu0_DTLB WRITE        ACCESS:          0 HIT:          0 MISS:          0 MSHR_MERGE:          0
cpu0->cpu0_DTLB TRANSLATION  ACCESS:          0 HIT:          0 MISS:          0 MSHR_MERGE:          0
cpu0->cpu0_DTLB PREFETCH REQUESTED:          0 ISSUED:          0 USEFUL:          0 USELESS:          0 LATE:          0
cpu0->cpu0_DTLB AVERAGE MISS LATENCY: 5.865 cycles
cpu0->LLC TOTAL        ACCESS:    3543379 HIT:     989023 MISS:    2554356 MSHR_MERGE:       2163
cpu0->LLC LOAD         ACCESS:    3050975 HIT:     901996 MISS:    2148979 MSHR_MERGE:        948
cpu0->LLC RFO          ACCESS:          0 HIT:          0 MISS:          0 MSHR_MERGE:          0
cpu0->LLC PREFETCH     ACCESS:     458512 HIT:      77442 MISS:     381070 MSHR_MERGE:       1215
cpu0->LLC WRITE        ACCESS:      24688 HIT:       8620 MISS:      16068 MSHR_MERGE:          0
cpu0->LLC TRANSLATION  ACCESS:       9204 HIT:        965 MISS:       8239 MSHR_MERGE:          0
cpu0->LLC PREFETCH REQUESTED:          0 ISSUED:          0 USEFUL:          0 USELESS:          0 LATE:          0
cpu0->LLC AVERAGE MISS LATENCY: 257 cycles

DRAM Statistics

Channel 0 RQ ROW_BUFFER_HIT:       4102
  ROW_BUFFER_MISS:    2532021
  AVG DBUS CONGESTED CYCLE: 3.335
Channel 0 WQ ROW_BUFFER_HIT:       5154
  ROW_BUFFER_MISS:      18249
  FULL:          0
Channel 0 REFRESHES ISSUED:       6463

[ROI Statistics]
[System Configuration]
num_cpus 1
cpu_freq 4000
fetch_width 6
decode_width 6
dispatch_width 6
execute_width 6
lq_width 2
sq_width 2
retire_width 6
scheduler_size 128
branch_mispredict_penalty 15
rob_size 352
lq_size 128
sq_size 72
ifetch_buffer_size 64
decode_buffer_size 32
dispatch_buffer_size 32
register_file_size 288
decode_latency 1
dispatch_latency 1
schedule_latency 1
execute_latency 1
page_size 4096
block_size 64
core_0_itlb_set 16
core_0_itlb_way 4
core_0_itlb_rq_size 16
core_0_itlb_wq_size 16
core_0_itlb_pq_size 0
core_0_itlb_mshr_size 8
core_0_itlb_hit_latency 1
core_0_itlb_fill_latency 1
core_0_itlb_max_tag_check 2
core_0_itlb_max_fill 2
core_0_dtlb_set 16
core_0_dtlb_way 4
core_0_dtlb_rq_size 16
core_0_dtlb_wq_size 16
core_0_dtlb_pq_size 0
core_0_dtlb_mshr_size 8
core_0_dtlb_hit_latency 1
core_0_dtlb_fill_latency 1
core_0_dtlb_max_tag_check 2
core_0_dtlb_max_fill 2
core_0_stlb_set 128
core_0_stlb_way 12
core_0_stlb_rq_size 32
core_0_stlb_wq_size 32
core_0_stlb_pq_size 0
core_0_stlb_mshr_size 16
core_0_stlb_hit_latency 4
core_0_stlb_fill_latency 4
core_0_stlb_max_tag_check 1
core_0_stlb_max_fill 1
core_0_l1i_set 64
core_0_l1i_way 8
core_0_l1i_rq_size 64
core_0_l1i_wq_size 64
core_0_l1i_pq_size 32
core_0_l1i_mshr_size 8
core_0_l1i_hit_latency 2
core_0_l1i_fill_latency 2
core_0_l1i_max_tag_check 2
core_0_l1i_max_fill 2
core_0_l1d_set 64
core_0_l1d_way 12
core_0_l1d_rq_size 64
core_0_l1d_wq_size 64
core_0_l1d_pq_size 8
core_0_l1d_mshr_size 16
core_0_l1d_hit_latency 2
core_0_l1d_fill_latency 3
core_0_l1d_max_tag_check 2
core_0_l1d_max_fill 2
core_0_l2c_set 1024
core_0_l2c_way 8
core_0_l2c_rq_size 32
core_0_l2c_wq_size 32
core_0_l2c_pq_size 16
core_0_l2c_mshr_size 32
core_0_l2c_hit_latency 5
core_0_l2c_fill_latency 5
core_0_l2c_max_tag_check 1
core_0_l2c_max_fill 1
llc_set 2048
llc_way 16
llc_rq_size 32
llc_wq_size 32
llc_pq_size 32
llc_mshr_size 64
llc_hit_latency 10
llc_fill_latency 10
llc_max_tag_check 1
llc_max_fill 1
dram_channels 1
dram_ranks 1
dram_bankgroups 8
dram_banks 4
dram_rows 65536
dram_columns 1024
dram_channel_width 8
dram_rq_size 64
dram_wq_size 64
dram_size 17179869184
core_0_itlb_prefetcher no
core_0_dtlb_prefetcher no
core_0_stlb_prefetcher no
core_0_l1i_prefetcher next_line
core_0_l1d_prefetcher berti
core_0_l2c_prefetcher ip_stride
llc_prefetcher no
llc_replacement drrip

Core_0_instructions 50000003
Core_0_cycles 77558686
Core_0_IPC 0.644673
Core_0_branch_prediction_accuracy 96.4475
Core_0_branch_MPKI 3.95398
Core_0_average_ROB_occupancy_at_mispredict 234.25

Core_0_ITLB_total_access 1720394
Core_0_ITLB_total_hit 1720394
Core_0_ITLB_total_miss 0
Core_0_ITLB_total_MPKI 0
Core_0_ITLB_total_miss_rate 0
Core_0_ITLB_demand_access 1720394
Core_0_ITLB_demand_hit 1720394
Core_0_ITLB_demand_miss 0
Core_0_ITLB_demand_MPKI 0
Core_0_ITLB_demand_miss_rate 0
Core_0_ITLB_load_access 1720394
Core_0_ITLB_load_hit 1720394
Core_0_ITLB_load_miss 0
Core_0_ITLB_load_MPKI 0
Core_0_ITLB_load_miss_rate 0
Core_0_ITLB_rfo_access 0
Core_0_ITLB_rfo_hit 0
Core_0_ITLB_rfo_miss 0
Core_0_ITLB_rfo_MPKI 0
Core_0_ITLB_rfo_miss_rate 0
Core_0_ITLB_prefetch_access 0
Core_0_ITLB_prefetch_hit 0
Core_0_ITLB_prefetch_miss 0
Core_0_ITLB_prefetch_MPKI 0
Core_0_ITLB_prefetch_miss_rate 0
Core_0_ITLB_writeback_access 0
Core_0_ITLB_writeback_hit 0
Core_0_ITLB_writeback_miss 0
Core_0_ITLB_writeback_MPKI 0
Core_0_ITLB_writeback_miss_rate 0
Core_0_ITLB_prefetch_requested 0
Core_0_ITLB_prefetch_issued 0
Core_0_ITLB_prefetch_useful 0
Core_0_ITLB_prefetch_useless 0
Core_0_ITLB_prefetch_late 0
Core_0_ITLB_prefetch_accuracy 0
Core_0_ITLB_prefetch_coverage 0

Core_0_DTLB_total_access 14684094
Core_0_DTLB_total_hit 10444446
Core_0_DTLB_total_miss 4239648
Core_0_DTLB_total_MPKI 84.793
Core_0_DTLB_total_miss_rate 0.288724
Core_0_DTLB_demand_access 14684094
Core_0_DTLB_demand_hit 10444446
Core_0_DTLB_demand_miss 4239648
Core_0_DTLB_demand_MPKI 84.793
Core_0_DTLB_demand_miss_rate 0.288724
Core_0_DTLB_load_access 14684094
Core_0_DTLB_load_hit 10444446
Core_0_DTLB_load_miss 4239648
Core_0_DTLB_load_MPKI 84.793
Core_0_DTLB_load_miss_rate 0.288724
Core_0_DTLB_rfo_access 0
Core_0_DTLB_rfo_hit 0
Core_0_DTLB_rfo_miss 0
Core_0_DTLB_rfo_MPKI 0
Core_0_DTLB_rfo_miss_rate 0
Core_0_DTLB_prefetch_access 0
Core_0_DTLB_prefetch_hit 0
Core_0_DTLB_prefetch_miss 0
Core_0_DTLB_prefetch_MPKI 0
Core_0_DTLB_prefetch_miss_rate 0
Core_0_DTLB_writeback_access 0
Core_0_DTLB_writeback_hit 0
Core_0_DTLB_writeback_miss 0
Core_0_DTLB_writeback_MPKI 0
Core_0_DTLB_writeback_miss_rate 0
Core_0_DTLB_prefetch_requested 0
Core_0_DTLB_prefetch_issued 0
Core_0_DTLB_prefetch_useful 0
Core_0_DTLB_prefetch_useless 0
Core_0_DTLB_prefetch_late 0
Core_0_DTLB_prefetch_accuracy 0
Core_0_DTLB_prefetch_coverage 0

Core_0_STLB_total_access 4004893
Core_0_STLB_total_hit 3993632
Core_0_STLB_total_miss 11261
Core_0_STLB_total_MPKI 0.22522
Core_0_STLB_total_miss_rate 0.00281181
Core_0_STLB_demand_access 4004893
Core_0_STLB_demand_hit 3993632
Core_0_STLB_demand_miss 11261
Core_0_STLB_demand_MPKI 0.22522
Core_0_STLB_demand_miss_rate 0.00281181
Core_0_STLB_load_access 4004893
Core_0_STLB_load_hit 3993632
Core_0_STLB_load_miss 11261
Core_0_STLB_load_MPKI 0.22522
Core_0_STLB_load_miss_rate 0.00281181
Core_0_STLB_rfo_access 0
Core_0_STLB_rfo_hit 0
Core_0_STLB_rfo_miss 0
Core_0_STLB_rfo_MPKI 0
Core_0_STLB_rfo_miss_rate 0
Core_0_STLB_prefetch_access 0
Core_0_STLB_prefetch_hit 0
Core_0_STLB_prefetch_miss 0
Core_0_STLB_prefetch_MPKI 0
Core_0_STLB_prefetch_miss_rate 0
Core_0_STLB_writeback_access 0
Core_0_STLB_writeback_hit 0
Core_0_STLB_writeback_miss 0
Core_0_STLB_writeback_MPKI 0
Core_0_STLB_writeback_miss_rate 0
Core_0_STLB_prefetch_requested 0
Core_0_STLB_prefetch_issued 0
Core_0_STLB_prefetch_useful 0
Core_0_STLB_prefetch_useless 0
Core_0_STLB_prefetch_late 0
Core_0_STLB_prefetch_accuracy 0
Core_0_STLB_prefetch_coverage 0

Core_0_L1I_total_access 1785950
Core_0_L1I_total_hit 1785950
Core_0_L1I_total_miss 0
Core_0_L1I_total_MPKI 0
Core_0_L1I_total_miss_rate 0
Core_0_L1I_demand_access 1785950
Core_0_L1I_demand_hit 1785950
Core_0_L1I_demand_miss 0
Core_0_L1I_demand_MPKI 0
Core_0_L1I_demand_miss_rate 0
Core_0_L1I_load_access 1785950
Core_0_L1I_load_hit 1785950
Core_0_L1I_load_miss 0
Core_0_L1I_load_MPKI 0
Core_0_L1I_load_miss_rate 0
Core_0_L1I_rfo_access 0
Core_0_L1I_rfo_hit 0
Core_0_L1I_rfo_miss 0
Core_0_L1I_rfo_MPKI 0
Core_0_L1I_rfo_miss_rate 0
Core_0_L1I_prefetch_access 0
Core_0_L1I_prefetch_hit 0
Core_0_L1I_prefetch_miss 0
Core_0_L1I_prefetch_MPKI 0
Core_0_L1I_prefetch_miss_rate 0
Core_0_L1I_writeback_access 0
Core_0_L1I_writeback_hit 0
Core_0_L1I_writeback_miss 0
Core_0_L1I_writeback_MPKI 0
Core_0_L1I_writeback_miss_rate 0
Core_0_L1I_prefetch_requested 0
Core_0_L1I_prefetch_issued 0
Core_0_L1I_prefetch_useful 0
Core_0_L1I_prefetch_useless 0
Core_0_L1I_prefetch_late 0
Core_0_L1I_prefetch_accuracy 0
Core_0_L1I_prefetch_coverage 0

Core_0_L1D_total_access 14853518
Core_0_L1D_total_hit 10272419
Core_0_L1D_total_miss 4581099
Core_0_L1D_total_MPKI 91.622
Core_0_L1D_total_miss_rate 0.308418
Core_0_L1D_demand_access 11538963
Core_0_L1D_demand_hit 7423999
Core_0_L1D_demand_miss 4114964
Core_0_L1D_demand_MPKI 82.2993
Core_0_L1D_demand_miss_rate 0.356615
Core_0_L1D_load_access 11538963
Core_0_L1D_load_hit 7423999
Core_0_L1D_load_miss 4114964
Core_0_L1D_load_MPKI 82.2993
Core_0_L1D_load_miss_rate 0.356615
Core_0_L1D_rfo_access 0
Core_0_L1D_rfo_hit 0
Core_0_L1D_rfo_miss 0
Core_0_L1D_rfo_MPKI 0
Core_0_L1D_rfo_miss_rate 0
Core_0_L1D_prefetch_access 868418
Core_0_L1D_prefetch_hit 402318
Core_0_L1D_prefetch_miss 466100
Core_0_L1D_prefetch_MPKI 9.322
Core_0_L1D_prefetch_miss_rate 0.536723
Core_0_L1D_writeback_access 2446137
Core_0_L1D_writeback_hit 2446102
Core_0_L1D_writeback_miss 35
Core_0_L1D_writeback_MPKI 0.0007
Core_0_L1D_writeback_miss_rate 1.43083e-05
Core_0_L1D_prefetch_requested 887403
Core_0_L1D_prefetch_issued 868413
Core_0_L1D_prefetch_useful 186786
Core_0_L1D_prefetch_useless 264863
Core_0_L1D_prefetch_late 11325
Core_0_L1D_prefetch_accuracy 0.215089
Core_0_L1D_prefetch_coverage 0.0434209

Core_0_L2C_total_access 4614492
Core_0_L2C_total_hit 1078205
Core_0_L2C_total_miss 3536287
Core_0_L2C_total_MPKI 70.7257
Core_0_L2C_total_miss_rate 0.766344
Core_0_L2C_demand_access 3891964
Core_0_L2C_demand_hit 838180
Core_0_L2C_demand_miss 3053784
Core_0_L2C_demand_MPKI 61.0757
Core_0_L2C_demand_miss_rate 0.784638
Core_0_L2C_load_access 3891948
Core_0_L2C_load_hit 838164
Core_0_L2C_load_miss 3053784
Core_0_L2C_load_MPKI 61.0757
Core_0_L2C_load_miss_rate 0.784642
Core_0_L2C_rfo_access 16
Core_0_L2C_rfo_hit 16
Core_0_L2C_rfo_miss 0
Core_0_L2C_rfo_MPKI 0
Core_0_L2C_rfo_miss_rate 0
Core_0_L2C_prefetch_access 697794
Core_0_L2C_prefetch_hit 215291
Core_0_L2C_prefetch_miss 482503
Core_0_L2C_prefetch_MPKI 9.65006
Core_0_L2C_prefetch_miss_rate 0.691469
Core_0_L2C_writeback_access 24734
Core_0_L2C_writeback_hit 24734
Core_0_L2C_writeback_miss 0
Core_0_L2C_writeback_MPKI 0
Core_0_L2C_writeback_miss_rate 0
Core_0_L2C_prefetch_requested 246183
Core_0_L2C_prefetch_issued 246183
Core_0_L2C_prefetch_useful 95173
Core_0_L2C_prefetch_useless 23503
Core_0_L2C_prefetch_late 2809
Core_0_L2C_prefetch_accuracy 0.386595
Core_0_L2C_prefetch_coverage 0.0302237

Core_0_LLC_total_access 3534175
Core_0_LLC_total_hit 988058
Core_0_LLC_total_miss 2546117
Core_0_LLC_total_MPKI 50.9223
Core_0_LLC_total_miss_rate 0.720428
Core_0_LLC_demand_access 3050975
Core_0_LLC_demand_hit 901996
Core_0_LLC_demand_miss 2148979
Core_0_LLC_demand_MPKI 42.9796
Core_0_LLC_demand_miss_rate 0.704358
Core_0_LLC_load_access 3050975
Core_0_LLC_load_hit 901996
Core_0_LLC_load_miss 2148979
Core_0_LLC_load_MPKI 42.9796
Core_0_LLC_load_miss_rate 0.704358
Core_0_LLC_rfo_access 0
Core_0_LLC_rfo_hit 0
Core_0_LLC_rfo_miss 0
Core_0_LLC_rfo_MPKI 0
Core_0_LLC_rfo_miss_rate 0
Core_0_LLC_prefetch_access 458512
Core_0_LLC_prefetch_hit 77442
Core_0_LLC_prefetch_miss 381070
Core_0_LLC_prefetch_MPKI 7.6214
Core_0_LLC_prefetch_miss_rate 0.831101
Core_0_LLC_writeback_access 24688
Core_0_LLC_writeback_hit 8620
Core_0_LLC_writeback_miss 16068
Core_0_LLC_writeback_MPKI 0.32136
Core_0_LLC_writeback_miss_rate 0.650843
Core_0_LLC_prefetch_requested 0
Core_0_LLC_prefetch_issued 0
Core_0_LLC_prefetch_useful 0
Core_0_LLC_prefetch_useless 0
Core_0_LLC_prefetch_late 0
Core_0_LLC_prefetch_accuracy 0
Core_0_LLC_prefetch_coverage 0

[DRAM Statistics]
Channel_0_RQ_row_buffer_hit 4102
Channel_0_RQ_row_buffer_miss 2532021
Channel_0_WQ_row_buffer_hit 5154
Channel_0_WQ_row_buffer_miss 18249
Channel_0_WQ_full 0
Channel_0_dbus_congested 4315636
DRAM_total_RQ_row_buffer_hit 4102
DRAM_total_RQ_row_buffer_miss 2532021
DRAM_total_WQ_row_buffer_hit 5154
DRAM_total_WQ_row_buffer_miss 18249
DRAM_total_WQ_full 0
DRAM_total_dbus_congested 4315636
DRAM_avg_congested_cycle 3.33477

======STLB miss causes ========
Core_0_STLB_miss_cause_breakdown
Core_0_STLB_cause_Demand_Data_miss 0
Core_0_STLB_cause_Demand_Data_miss_rate 0
Core_0_STLB_cause_Demand_Instruction_miss 0
Core_0_STLB_cause_Demand_Instruction_miss_rate 0
Core_0_STLB_cause_L1D_Prefetch_miss 11261
Core_0_STLB_cause_L1D_Prefetch_miss_rate 0.00281181
Core_0_STLB_cause_L1I_Prefetch_miss 0
Core_0_STLB_cause_L1I_Prefetch_miss_rate 0
Core_0_STLB_cause_Other_miss 0
Core_0_STLB_cause_Other_miss_rate 0
Core_0_STLB_Demand_miss 0
Core_0_STLB_Demand_miss_rate 0
Core_0_STLB_L1D_Prefetch_miss 11261
Core_0_STLB_L1D_Prefetch_miss_rate 0.00281181
Core_0_STLB_Other_miss 0
Core_0_STLB_Other_miss_rate 0
