[VMEM] WARNING: physical memory size is smaller than virtual memory size.

*** ChampSim Multicore Out-of-Order Simulator ***
Warmup Instructions: 20000000
Simulation Instructions: 50000000
Number of CPUs: 1
Page size: 4096
STLB ideal mode: demand
Core 0: /data0/tzh/champsim_traces/Ligra/ligra_Radii.com-lj.ungraph.gcc_6.3.0_O3.drop_25000M.length_250M.champsimtrace.xz
 L1D Berti prefetcher
Off-chip DRAM Size: 16 GiB Channels: 1 Width: 64-bit Data Rate: 3205 MT/s
Warmup halting CPU 0 at instruction 20000004 cycle 4311495 for remainder of phase
Warmup finished CPU 0 instructions: 20000004 cycles: 4311495 cumulative IPC: 4.639 (Simulation time: 00 hr 01 min 01 sec)
Warmup complete CPU 0 instructions: 20000004 cycles: 4311495 cumulative IPC: 4.639 (Simulation time: 00 hr 01 min 01 sec)
Simulation finished CPU 0 instructions: 50000000 cycles: 170756020 cumulative IPC: 0.2928 (Simulation time: 00 hr 15 min 16 sec)
Simulation complete CPU 0 instructions: 50000000 cycles: 170756020 cumulative IPC: 0.2928 (Simulation time: 00 hr 15 min 16 sec)

ChampSim completed all CPUs

=== Simulation ===
CPU 0 runs /data0/tzh/champsim_traces/Ligra/ligra_Radii.com-lj.ungraph.gcc_6.3.0_O3.drop_25000M.length_250M.champsimtrace.xz

Region of Interest Statistics

CPU 0 cumulative IPC: 0.2928 instructions: 50000000 cycles: 170756020
CPU 0 Branch Prediction Accuracy: 90.09% MPKI: 16.71 Average ROB Occupancy at Mispredict: 28.27
Branch type MPKI
BRANCH_DIRECT_JUMP: 0.00048
BRANCH_INDIRECT: 0
BRANCH_CONDITIONAL: 16.71
BRANCH_DIRECT_CALL: 0.00038
BRANCH_INDIRECT_CALL: 0
BRANCH_RETURN: 0.0004

cpu0->cpu0_STLB TOTAL        ACCESS:    1192199 HIT:    1177425 MISS:      14774 MSHR_MERGE:          0
cpu0->cpu0_STLB LOAD         ACCESS:    1192199 HIT:    1177425 MISS:      14774 MSHR_MERGE:          0
cpu0->cpu0_STLB RFO          ACCESS:          0 HIT:          0 MISS:          0 MSHR_MERGE:          0
cpu0->cpu0_STLB PREFETCH     ACCESS:          0 HIT:          0 MISS:          0 MSHR_MERGE:          0
cpu0->cpu0_STLB WRITE        ACCESS:          0 HIT:          0 MISS:          0 MSHR_MERGE:          0
cpu0->cpu0_STLB TRANSLATION  ACCESS:          0 HIT:          0 MISS:          0 MSHR_MERGE:          0
cpu0->cpu0_STLB PREFETCH REQUESTED:          0 ISSUED:          0 USEFUL:          0 USELESS:          0 LATE:          0
cpu0->cpu0_STLB AVERAGE MISS LATENCY: 326.7 cycles
cpu0->cpu0_L2C TOTAL        ACCESS:    3717182 HIT:    1098160 MISS:    2619022 MSHR_MERGE:     196416
cpu0->cpu0_L2C LOAD         ACCESS:    1487600 HIT:      59257 MISS:    1428343 MSHR_MERGE:       7700
cpu0->cpu0_L2C RFO          ACCESS:     355175 HIT:       3193 MISS:     351982 MSHR_MERGE:          0
cpu0->cpu0_L2C PREFETCH     ACCESS:    1099803 HIT:     273945 MISS:     825858 MSHR_MERGE:     188716
cpu0->cpu0_L2C WRITE        ACCESS:     759804 HIT:     759751 MISS:         53 MSHR_MERGE:          0
cpu0->cpu0_L2C TRANSLATION  ACCESS:      14800 HIT:       2014 MISS:      12786 MSHR_MERGE:          0
cpu0->cpu0_L2C PREFETCH REQUESTED:     556958 ISSUED:     556958 USEFUL:     175929 USELESS:      80702 LATE:       7700
cpu0->cpu0_L2C AVERAGE MISS LATENCY: 314.1 cycles
cpu0->cpu0_L1I TOTAL        ACCESS:    2417411 HIT:    2417331 MISS:         80 MSHR_MERGE:         13
cpu0->cpu0_L1I LOAD         ACCESS:    2417411 HIT:    2417331 MISS:         80 MSHR_MERGE:         13
cpu0->cpu0_L1I RFO          ACCESS:          0 HIT:          0 MISS:          0 MSHR_MERGE:          0
cpu0->cpu0_L1I PREFETCH     ACCESS:          0 HIT:          0 MISS:          0 MSHR_MERGE:          0
cpu0->cpu0_L1I WRITE        ACCESS:          0 HIT:          0 MISS:          0 MSHR_MERGE:          0
cpu0->cpu0_L1I TRANSLATION  ACCESS:          0 HIT:          0 MISS:          0 MSHR_MERGE:          0
cpu0->cpu0_L1I PREFETCH REQUESTED:          0 ISSUED:          0 USEFUL:          0 USELESS:          0 LATE:          0
cpu0->cpu0_L1I AVERAGE MISS LATENCY: 253 cycles
cpu0->cpu0_L1D TOTAL        ACCESS:   15364073 HIT:   10863891 MISS:    4500182 MSHR_MERGE:    2099806
cpu0->cpu0_L1D LOAD         ACCESS:   10269685 HIT:    8190025 MISS:    2079660 MSHR_MERGE:     592127
cpu0->cpu0_L1D RFO          ACCESS:          0 HIT:          0 MISS:          0 MSHR_MERGE:          0
cpu0->cpu0_L1D PREFETCH     ACCESS:     615591 HIT:      60879 MISS:     554712 MSHR_MERGE:      11867
cpu0->cpu0_L1D WRITE        ACCESS:    4448393 HIT:    2597395 MISS:    1850998 MSHR_MERGE:    1495800
cpu0->cpu0_L1D TRANSLATION  ACCESS:      30404 HIT:      15592 MISS:      14812 MSHR_MERGE:         12
cpu0->cpu0_L1D PREFETCH REQUESTED:     620796 ISSUED:     615591 USEFUL:     342736 USELESS:     200089 LATE:      28245
cpu0->cpu0_L1D AVERAGE MISS LATENCY: 309.9 cycles
cpu0->cpu0_ITLB TOTAL        ACCESS:    2080944 HIT:    2080938 MISS:          6 MSHR_MERGE:          2
cpu0->cpu0_ITLB LOAD         ACCESS:    2080944 HIT:    2080938 MISS:          6 MSHR_MERGE:          2
cpu0->cpu0_ITLB RFO          ACCESS:          0 HIT:          0 MISS:          0 MSHR_MERGE:          0
cpu0->cpu0_ITLB PREFETCH     ACCESS:          0 HIT:          0 MISS:          0 MSHR_MERGE:          0
cpu0->cpu0_ITLB WRITE        ACCESS:          0 HIT:          0 MISS:          0 MSHR_MERGE:          0
cpu0->cpu0_ITLB TRANSLATION  ACCESS:          0 HIT:          0 MISS:          0 MSHR_MERGE:          0
cpu0->cpu0_ITLB PREFETCH REQUESTED:          0 ISSUED:          0 USEFUL:          0 USELESS:          0 LATE:          0
cpu0->cpu0_ITLB AVERAGE MISS LATENCY: 5 cycles
cpu0->cpu0_DTLB TOTAL        ACCESS:   14876981 HIT:   13521821 MISS:    1355160 MSHR_MERGE:     162965
cpu0->cpu0_DTLB LOAD         ACCESS:   14876981 HIT:   13521821 MISS:    1355160 MSHR_MERGE:     162965
cpu0->cpu0_DTLB RFO          ACCESS:          0 HIT:          0 MISS:          0 MSHR_MERGE:          0
cpu0->cpu0_DTLB PREFETCH     ACCESS:          0 HIT:          0 MISS:          0 MSHR_MERGE:          0
cpu0->cpu0_DTLB WRITE        ACCESS:          0 HIT:          0 MISS:          0 MSHR_MERGE:          0
cpu0->cpu0_DTLB TRANSLATION  ACCESS:          0 HIT:          0 MISS:          0 MSHR_MERGE:          0
cpu0->cpu0_DTLB PREFETCH REQUESTED:          0 ISSUED:          0 USEFUL:          0 USELESS:          0 LATE:          0
cpu0->cpu0_DTLB AVERAGE MISS LATENCY: 9.074 cycles
cpu0->LLC TOTAL        ACCESS:    3175808 HIT:     575250 MISS:    2600558 MSHR_MERGE:       7942
cpu0->LLC LOAD         ACCESS:    1420643 HIT:      45883 MISS:    1374760 MSHR_MERGE:       1967
cpu0->LLC RFO          ACCESS:     351982 HIT:      12354 MISS:     339628 MSHR_MERGE:          0
cpu0->LLC PREFETCH     ACCESS:     637140 HIT:      40561 MISS:     596579 MSHR_MERGE:       5975
cpu0->LLC WRITE        ACCESS:     753257 HIT:     475256 MISS:     278001 MSHR_MERGE:          0
cpu0->LLC TRANSLATION  ACCESS:      12786 HIT:       1196 MISS:      11590 MSHR_MERGE:          0
cpu0->LLC PREFETCH REQUESTED:          0 ISSUED:          0 USEFUL:          0 USELESS:          0 LATE:          0
cpu0->LLC AVERAGE MISS LATENCY: 267.2 cycles

DRAM Statistics

Channel 0 RQ ROW_BUFFER_HIT:      50265
  ROW_BUFFER_MISS:    2264102
  AVG DBUS CONGESTED CYCLE: 6.793
Channel 0 WQ ROW_BUFFER_HIT:     170022
  ROW_BUFFER_MISS:     557261
  FULL:          0
Channel 0 REFRESHES ISSUED:      14229

[ROI Statistics]
[System Configuration]
num_cpus 1
cpu_freq 4000
fetch_width 6
decode_width 6
dispatch_width 6
execute_width 6
lq_width 2
sq_width 2
retire_width 6
scheduler_size 128
branch_mispredict_penalty 15
rob_size 352
lq_size 128
sq_size 72
ifetch_buffer_size 64
decode_buffer_size 32
dispatch_buffer_size 32
register_file_size 288
decode_latency 1
dispatch_latency 1
schedule_latency 1
execute_latency 1
page_size 4096
block_size 64
core_0_itlb_set 16
core_0_itlb_way 4
core_0_itlb_rq_size 16
core_0_itlb_wq_size 16
core_0_itlb_pq_size 0
core_0_itlb_mshr_size 8
core_0_itlb_hit_latency 1
core_0_itlb_fill_latency 1
core_0_itlb_max_tag_check 2
core_0_itlb_max_fill 2
core_0_dtlb_set 16
core_0_dtlb_way 4
core_0_dtlb_rq_size 16
core_0_dtlb_wq_size 16
core_0_dtlb_pq_size 0
core_0_dtlb_mshr_size 8
core_0_dtlb_hit_latency 1
core_0_dtlb_fill_latency 1
core_0_dtlb_max_tag_check 2
core_0_dtlb_max_fill 2
core_0_stlb_set 128
core_0_stlb_way 12
core_0_stlb_rq_size 32
core_0_stlb_wq_size 32
core_0_stlb_pq_size 0
core_0_stlb_mshr_size 16
core_0_stlb_hit_latency 4
core_0_stlb_fill_latency 4
core_0_stlb_max_tag_check 1
core_0_stlb_max_fill 1
core_0_l1i_set 64
core_0_l1i_way 8
core_0_l1i_rq_size 64
core_0_l1i_wq_size 64
core_0_l1i_pq_size 32
core_0_l1i_mshr_size 8
core_0_l1i_hit_latency 2
core_0_l1i_fill_latency 2
core_0_l1i_max_tag_check 2
core_0_l1i_max_fill 2
core_0_l1d_set 64
core_0_l1d_way 12
core_0_l1d_rq_size 64
core_0_l1d_wq_size 64
core_0_l1d_pq_size 8
core_0_l1d_mshr_size 16
core_0_l1d_hit_latency 2
core_0_l1d_fill_latency 3
core_0_l1d_max_tag_check 2
core_0_l1d_max_fill 2
core_0_l2c_set 1024
core_0_l2c_way 8
core_0_l2c_rq_size 32
core_0_l2c_wq_size 32
core_0_l2c_pq_size 16
core_0_l2c_mshr_size 32
core_0_l2c_hit_latency 5
core_0_l2c_fill_latency 5
core_0_l2c_max_tag_check 1
core_0_l2c_max_fill 1
llc_set 2048
llc_way 16
llc_rq_size 32
llc_wq_size 32
llc_pq_size 32
llc_mshr_size 64
llc_hit_latency 10
llc_fill_latency 10
llc_max_tag_check 1
llc_max_fill 1
dram_channels 1
dram_ranks 1
dram_bankgroups 8
dram_banks 4
dram_rows 65536
dram_columns 1024
dram_channel_width 8
dram_rq_size 64
dram_wq_size 64
dram_size 17179869184
core_0_itlb_prefetcher no
core_0_dtlb_prefetcher no
core_0_stlb_prefetcher no
core_0_l1i_prefetcher next_line
core_0_l1d_prefetcher berti
core_0_l2c_prefetcher ip_stride
llc_prefetcher no
llc_replacement drrip

Core_0_instructions 50000000
Core_0_cycles 170756020
Core_0_IPC 0.292815
Core_0_branch_prediction_accuracy 90.0858
Core_0_branch_MPKI 16.7122
Core_0_average_ROB_occupancy_at_mispredict 28.2685

Core_0_ITLB_total_access 2080944
Core_0_ITLB_total_hit 2080938
Core_0_ITLB_total_miss 6
Core_0_ITLB_total_MPKI 0.00012
Core_0_ITLB_total_miss_rate 2.88331e-06
Core_0_ITLB_demand_access 2080944
Core_0_ITLB_demand_hit 2080938
Core_0_ITLB_demand_miss 6
Core_0_ITLB_demand_MPKI 0.00012
Core_0_ITLB_demand_miss_rate 2.88331e-06
Core_0_ITLB_load_access 2080944
Core_0_ITLB_load_hit 2080938
Core_0_ITLB_load_miss 6
Core_0_ITLB_load_MPKI 0.00012
Core_0_ITLB_load_miss_rate 2.88331e-06
Core_0_ITLB_rfo_access 0
Core_0_ITLB_rfo_hit 0
Core_0_ITLB_rfo_miss 0
Core_0_ITLB_rfo_MPKI 0
Core_0_ITLB_rfo_miss_rate 0
Core_0_ITLB_prefetch_access 0
Core_0_ITLB_prefetch_hit 0
Core_0_ITLB_prefetch_miss 0
Core_0_ITLB_prefetch_MPKI 0
Core_0_ITLB_prefetch_miss_rate 0
Core_0_ITLB_writeback_access 0
Core_0_ITLB_writeback_hit 0
Core_0_ITLB_writeback_miss 0
Core_0_ITLB_writeback_MPKI 0
Core_0_ITLB_writeback_miss_rate 0
Core_0_ITLB_prefetch_requested 0
Core_0_ITLB_prefetch_issued 0
Core_0_ITLB_prefetch_useful 0
Core_0_ITLB_prefetch_useless 0
Core_0_ITLB_prefetch_late 0
Core_0_ITLB_prefetch_accuracy 0
Core_0_ITLB_prefetch_coverage 0

Core_0_DTLB_total_access 14876981
Core_0_DTLB_total_hit 13521821
Core_0_DTLB_total_miss 1355160
Core_0_DTLB_total_MPKI 27.1032
Core_0_DTLB_total_miss_rate 0.0910911
Core_0_DTLB_demand_access 14876981
Core_0_DTLB_demand_hit 13521821
Core_0_DTLB_demand_miss 1355160
Core_0_DTLB_demand_MPKI 27.1032
Core_0_DTLB_demand_miss_rate 0.0910911
Core_0_DTLB_load_access 14876981
Core_0_DTLB_load_hit 13521821
Core_0_DTLB_load_miss 1355160
Core_0_DTLB_load_MPKI 27.1032
Core_0_DTLB_load_miss_rate 0.0910911
Core_0_DTLB_rfo_access 0
Core_0_DTLB_rfo_hit 0
Core_0_DTLB_rfo_miss 0
Core_0_DTLB_rfo_MPKI 0
Core_0_DTLB_rfo_miss_rate 0
Core_0_DTLB_prefetch_access 0
Core_0_DTLB_prefetch_hit 0
Core_0_DTLB_prefetch_miss 0
Core_0_DTLB_prefetch_MPKI 0
Core_0_DTLB_prefetch_miss_rate 0
Core_0_DTLB_writeback_access 0
Core_0_DTLB_writeback_hit 0
Core_0_DTLB_writeback_miss 0
Core_0_DTLB_writeback_MPKI 0
Core_0_DTLB_writeback_miss_rate 0
Core_0_DTLB_prefetch_requested 0
Core_0_DTLB_prefetch_issued 0
Core_0_DTLB_prefetch_useful 0
Core_0_DTLB_prefetch_useless 0
Core_0_DTLB_prefetch_late 0
Core_0_DTLB_prefetch_accuracy 0
Core_0_DTLB_prefetch_coverage 0

Core_0_STLB_total_access 1192199
Core_0_STLB_total_hit 1177425
Core_0_STLB_total_miss 14774
Core_0_STLB_total_MPKI 0.29548
Core_0_STLB_total_miss_rate 0.0123922
Core_0_STLB_demand_access 1192199
Core_0_STLB_demand_hit 1177425
Core_0_STLB_demand_miss 14774
Core_0_STLB_demand_MPKI 0.29548
Core_0_STLB_demand_miss_rate 0.0123922
Core_0_STLB_load_access 1192199
Core_0_STLB_load_hit 1177425
Core_0_STLB_load_miss 14774
Core_0_STLB_load_MPKI 0.29548
Core_0_STLB_load_miss_rate 0.0123922
Core_0_STLB_rfo_access 0
Core_0_STLB_rfo_hit 0
Core_0_STLB_rfo_miss 0
Core_0_STLB_rfo_MPKI 0
Core_0_STLB_rfo_miss_rate 0
Core_0_STLB_prefetch_access 0
Core_0_STLB_prefetch_hit 0
Core_0_STLB_prefetch_miss 0
Core_0_STLB_prefetch_MPKI 0
Core_0_STLB_prefetch_miss_rate 0
Core_0_STLB_writeback_access 0
Core_0_STLB_writeback_hit 0
Core_0_STLB_writeback_miss 0
Core_0_STLB_writeback_MPKI 0
Core_0_STLB_writeback_miss_rate 0
Core_0_STLB_prefetch_requested 0
Core_0_STLB_prefetch_issued 0
Core_0_STLB_prefetch_useful 0
Core_0_STLB_prefetch_useless 0
Core_0_STLB_prefetch_late 0
Core_0_STLB_prefetch_accuracy 0
Core_0_STLB_prefetch_coverage 0

Core_0_L1I_total_access 2417411
Core_0_L1I_total_hit 2417331
Core_0_L1I_total_miss 80
Core_0_L1I_total_MPKI 0.0016
Core_0_L1I_total_miss_rate 3.30933e-05
Core_0_L1I_demand_access 2417411
Core_0_L1I_demand_hit 2417331
Core_0_L1I_demand_miss 80
Core_0_L1I_demand_MPKI 0.0016
Core_0_L1I_demand_miss_rate 3.30933e-05
Core_0_L1I_load_access 2417411
Core_0_L1I_load_hit 2417331
Core_0_L1I_load_miss 80
Core_0_L1I_load_MPKI 0.0016
Core_0_L1I_load_miss_rate 3.30933e-05
Core_0_L1I_rfo_access 0
Core_0_L1I_rfo_hit 0
Core_0_L1I_rfo_miss 0
Core_0_L1I_rfo_MPKI 0
Core_0_L1I_rfo_miss_rate 0
Core_0_L1I_prefetch_access 0
Core_0_L1I_prefetch_hit 0
Core_0_L1I_prefetch_miss 0
Core_0_L1I_prefetch_MPKI 0
Core_0_L1I_prefetch_miss_rate 0
Core_0_L1I_writeback_access 0
Core_0_L1I_writeback_hit 0
Core_0_L1I_writeback_miss 0
Core_0_L1I_writeback_MPKI 0
Core_0_L1I_writeback_miss_rate 0
Core_0_L1I_prefetch_requested 0
Core_0_L1I_prefetch_issued 0
Core_0_L1I_prefetch_useful 0
Core_0_L1I_prefetch_useless 0
Core_0_L1I_prefetch_late 0
Core_0_L1I_prefetch_accuracy 0
Core_0_L1I_prefetch_coverage 0

Core_0_L1D_total_access 15333669
Core_0_L1D_total_hit 10848299
Core_0_L1D_total_miss 4485370
Core_0_L1D_total_MPKI 89.7074
Core_0_L1D_total_miss_rate 0.292518
Core_0_L1D_demand_access 10269685
Core_0_L1D_demand_hit 8190025
Core_0_L1D_demand_miss 2079660
Core_0_L1D_demand_MPKI 41.5932
Core_0_L1D_demand_miss_rate 0.202505
Core_0_L1D_load_access 10269685
Core_0_L1D_load_hit 8190025
Core_0_L1D_load_miss 2079660
Core_0_L1D_load_MPKI 41.5932
Core_0_L1D_load_miss_rate 0.202505
Core_0_L1D_rfo_access 0
Core_0_L1D_rfo_hit 0
Core_0_L1D_rfo_miss 0
Core_0_L1D_rfo_MPKI 0
Core_0_L1D_rfo_miss_rate 0
Core_0_L1D_prefetch_access 615591
Core_0_L1D_prefetch_hit 60879
Core_0_L1D_prefetch_miss 554712
Core_0_L1D_prefetch_MPKI 11.0942
Core_0_L1D_prefetch_miss_rate 0.901105
Core_0_L1D_writeback_access 4448393
Core_0_L1D_writeback_hit 2597395
Core_0_L1D_writeback_miss 1850998
Core_0_L1D_writeback_MPKI 37.02
Core_0_L1D_writeback_miss_rate 0.416105
Core_0_L1D_prefetch_requested 620796
Core_0_L1D_prefetch_issued 615591
Core_0_L1D_prefetch_useful 342736
Core_0_L1D_prefetch_useless 200089
Core_0_L1D_prefetch_late 28245
Core_0_L1D_prefetch_accuracy 0.556759
Core_0_L1D_prefetch_coverage 0.141486

Core_0_L2C_total_access 3702382
Core_0_L2C_total_hit 1096146
Core_0_L2C_total_miss 2606236
Core_0_L2C_total_MPKI 52.1247
Core_0_L2C_total_miss_rate 0.703935
Core_0_L2C_demand_access 1842775
Core_0_L2C_demand_hit 62450
Core_0_L2C_demand_miss 1780325
Core_0_L2C_demand_MPKI 35.6065
Core_0_L2C_demand_miss_rate 0.966111
Core_0_L2C_load_access 1487600
Core_0_L2C_load_hit 59257
Core_0_L2C_load_miss 1428343
Core_0_L2C_load_MPKI 28.5669
Core_0_L2C_load_miss_rate 0.960166
Core_0_L2C_rfo_access 355175
Core_0_L2C_rfo_hit 3193
Core_0_L2C_rfo_miss 351982
Core_0_L2C_rfo_MPKI 7.03964
Core_0_L2C_rfo_miss_rate 0.99101
Core_0_L2C_prefetch_access 1099803
Core_0_L2C_prefetch_hit 273945
Core_0_L2C_prefetch_miss 825858
Core_0_L2C_prefetch_MPKI 16.5172
Core_0_L2C_prefetch_miss_rate 0.750914
Core_0_L2C_writeback_access 759804
Core_0_L2C_writeback_hit 759751
Core_0_L2C_writeback_miss 53
Core_0_L2C_writeback_MPKI 0.00106
Core_0_L2C_writeback_miss_rate 6.97548e-05
Core_0_L2C_prefetch_requested 556958
Core_0_L2C_prefetch_issued 556958
Core_0_L2C_prefetch_useful 175929
Core_0_L2C_prefetch_useless 80702
Core_0_L2C_prefetch_late 7700
Core_0_L2C_prefetch_accuracy 0.315875
Core_0_L2C_prefetch_coverage 0.0899316

Core_0_LLC_total_access 3163022
Core_0_LLC_total_hit 574054
Core_0_LLC_total_miss 2588968
Core_0_LLC_total_MPKI 51.7794
Core_0_LLC_total_miss_rate 0.818511
Core_0_LLC_demand_access 1772625
Core_0_LLC_demand_hit 58237
Core_0_LLC_demand_miss 1714388
Core_0_LLC_demand_MPKI 34.2878
Core_0_LLC_demand_miss_rate 0.967146
Core_0_LLC_load_access 1420643
Core_0_LLC_load_hit 45883
Core_0_LLC_load_miss 1374760
Core_0_LLC_load_MPKI 27.4952
Core_0_LLC_load_miss_rate 0.967703
Core_0_LLC_rfo_access 351982
Core_0_LLC_rfo_hit 12354
Core_0_LLC_rfo_miss 339628
Core_0_LLC_rfo_MPKI 6.79256
Core_0_LLC_rfo_miss_rate 0.964902
Core_0_LLC_prefetch_access 637140
Core_0_LLC_prefetch_hit 40561
Core_0_LLC_prefetch_miss 596579
Core_0_LLC_prefetch_MPKI 11.9316
Core_0_LLC_prefetch_miss_rate 0.936339
Core_0_LLC_writeback_access 753257
Core_0_LLC_writeback_hit 475256
Core_0_LLC_writeback_miss 278001
Core_0_LLC_writeback_MPKI 5.56002
Core_0_LLC_writeback_miss_rate 0.369065
Core_0_LLC_prefetch_requested 0
Core_0_LLC_prefetch_issued 0
Core_0_LLC_prefetch_useful 0
Core_0_LLC_prefetch_useless 0
Core_0_LLC_prefetch_late 0
Core_0_LLC_prefetch_accuracy 0
Core_0_LLC_prefetch_coverage 0

[DRAM Statistics]
Channel_0_RQ_row_buffer_hit 50265
Channel_0_RQ_row_buffer_miss 2264102
Channel_0_WQ_row_buffer_hit 170022
Channel_0_WQ_row_buffer_miss 557261
Channel_0_WQ_full 0
Channel_0_dbus_congested 8705225
DRAM_total_RQ_row_buffer_hit 50265
DRAM_total_RQ_row_buffer_miss 2264102
DRAM_total_WQ_row_buffer_hit 170022
DRAM_total_WQ_row_buffer_miss 557261
DRAM_total_WQ_full 0
DRAM_total_dbus_congested 8705225
DRAM_avg_congested_cycle 6.79275

======STLB miss causes ========
Core_0_STLB_miss_cause_breakdown
Core_0_STLB_cause_Demand_Data_miss 0
Core_0_STLB_cause_Demand_Data_miss_rate 0
Core_0_STLB_cause_Demand_Instruction_miss 0
Core_0_STLB_cause_Demand_Instruction_miss_rate 0
Core_0_STLB_cause_L1D_Prefetch_miss 14774
Core_0_STLB_cause_L1D_Prefetch_miss_rate 0.0123922
Core_0_STLB_cause_L1I_Prefetch_miss 0
Core_0_STLB_cause_L1I_Prefetch_miss_rate 0
Core_0_STLB_cause_Other_miss 0
Core_0_STLB_cause_Other_miss_rate 0
Core_0_STLB_Demand_miss 0
Core_0_STLB_Demand_miss_rate 0
Core_0_STLB_L1D_Prefetch_miss 14774
Core_0_STLB_L1D_Prefetch_miss_rate 0.0123922
Core_0_STLB_Other_miss 0
Core_0_STLB_Other_miss_rate 0
