[VMEM] WARNING: physical memory size is smaller than virtual memory size.

*** ChampSim Multicore Out-of-Order Simulator ***
Warmup Instructions: 20000000
Simulation Instructions: 50000000
Number of CPUs: 1
Page size: 4096
Core 0: /data0/tzh/champsim_traces/SPEC17/623.xalancbmk_s-592B.champsimtrace.xz
 L1D Berti prefetcher
Off-chip DRAM Size: 16 GiB Channels: 1 Width: 64-bit Data Rate: 3205 MT/s
Warmup halting CPU 0 at instruction 20000003 cycle 4814257 for remainder of phase
Warmup finished CPU 0 instructions: 20000003 cycles: 4814257 cumulative IPC: 4.154 (Simulation time: 00 hr 01 min 05 sec)
Warmup complete CPU 0 instructions: 20000003 cycles: 4814257 cumulative IPC: 4.154 (Simulation time: 00 hr 01 min 05 sec)
Simulation finished CPU 0 instructions: 50000000 cycles: 48698475 cumulative IPC: 1.027 (Simulation time: 00 hr 07 min 00 sec)
Simulation complete CPU 0 instructions: 50000000 cycles: 48698475 cumulative IPC: 1.027 (Simulation time: 00 hr 07 min 00 sec)

ChampSim completed all CPUs

=== Simulation ===
CPU 0 runs /data0/tzh/champsim_traces/SPEC17/623.xalancbmk_s-592B.champsimtrace.xz

Region of Interest Statistics

CPU 0 cumulative IPC: 1.027 instructions: 50000000 cycles: 48698475
CPU 0 Branch Prediction Accuracy: 97.13% MPKI: 7.59 Average ROB Occupancy at Mispredict: 43.87
Branch type MPKI
BRANCH_DIRECT_JUMP: 0.1648
BRANCH_INDIRECT: 0.5087
BRANCH_CONDITIONAL: 4.263
BRANCH_DIRECT_CALL: 0.0076
BRANCH_INDIRECT_CALL: 0.5543
BRANCH_RETURN: 2.092

cpu0->cpu0_STLB TOTAL        ACCESS:    1259013 HIT:    1184281 MISS:      74732 MSHR_MERGE:          0
cpu0->cpu0_STLB LOAD         ACCESS:    1259013 HIT:    1184281 MISS:      74732 MSHR_MERGE:          0
cpu0->cpu0_STLB RFO          ACCESS:          0 HIT:          0 MISS:          0 MSHR_MERGE:          0
cpu0->cpu0_STLB PREFETCH     ACCESS:          0 HIT:          0 MISS:          0 MSHR_MERGE:          0
cpu0->cpu0_STLB WRITE        ACCESS:          0 HIT:          0 MISS:          0 MSHR_MERGE:          0
cpu0->cpu0_STLB TRANSLATION  ACCESS:          0 HIT:          0 MISS:          0 MSHR_MERGE:          0
cpu0->cpu0_STLB PREFETCH REQUESTED:          0 ISSUED:          0 USEFUL:          0 USELESS:          0 LATE:          0
cpu0->cpu0_STLB AVERAGE MISS LATENCY: 28.36 cycles
cpu0->cpu0_L2C TOTAL        ACCESS:    3711596 HIT:    3186224 MISS:     525372 MSHR_MERGE:      11491
cpu0->cpu0_L2C LOAD         ACCESS:    2149740 HIT:    1922622 MISS:     227118 MSHR_MERGE:        239
cpu0->cpu0_L2C RFO          ACCESS:     125814 HIT:      17105 MISS:     108709 MSHR_MERGE:         85
cpu0->cpu0_L2C PREFETCH     ACCESS:    1186369 HIT:    1011477 MISS:     174892 MSHR_MERGE:      11167
cpu0->cpu0_L2C WRITE        ACCESS:     179692 HIT:     179686 MISS:          6 MSHR_MERGE:          0
cpu0->cpu0_L2C TRANSLATION  ACCESS:      69981 HIT:      55334 MISS:      14647 MSHR_MERGE:          0
cpu0->cpu0_L2C PREFETCH REQUESTED:     364957 ISSUED:     364631 USEFUL:      10945 USELESS:       6755 LATE:        324
cpu0->cpu0_L2C AVERAGE MISS LATENCY: 76.09 cycles
cpu0->cpu0_L1I TOTAL        ACCESS:    9097331 HIT:    8835744 MISS:     261587 MSHR_MERGE:      78744
cpu0->cpu0_L1I LOAD         ACCESS:    9097331 HIT:    8835744 MISS:     261587 MSHR_MERGE:      78744
cpu0->cpu0_L1I RFO          ACCESS:          0 HIT:          0 MISS:          0 MSHR_MERGE:          0
cpu0->cpu0_L1I PREFETCH     ACCESS:          0 HIT:          0 MISS:          0 MSHR_MERGE:          0
cpu0->cpu0_L1I WRITE        ACCESS:          0 HIT:          0 MISS:          0 MSHR_MERGE:          0
cpu0->cpu0_L1I TRANSLATION  ACCESS:          0 HIT:          0 MISS:          0 MSHR_MERGE:          0
cpu0->cpu0_L1I PREFETCH REQUESTED:          0 ISSUED:          0 USEFUL:          0 USELESS:          0 LATE:          0
cpu0->cpu0_L1I AVERAGE MISS LATENCY: 8.716 cycles
cpu0->cpu0_L1D TOTAL        ACCESS:   15353596 HIT:   11506122 MISS:    3847474 MSHR_MERGE:     863036
cpu0->cpu0_L1D LOAD         ACCESS:    8992819 HIT:    6583093 MISS:    2409726 MSHR_MERGE:     442825
cpu0->cpu0_L1D RFO          ACCESS:          0 HIT:          0 MISS:          0 MSHR_MERGE:          0
cpu0->cpu0_L1D PREFETCH     ACCESS:    1325787 HIT:     442291 MISS:     883496 MSHR_MERGE:      61755
cpu0->cpu0_L1D WRITE        ACCESS:    4885292 HIT:    4401210 MISS:     484082 MSHR_MERGE:     358267
cpu0->cpu0_L1D TRANSLATION  ACCESS:     149698 HIT:      79528 MISS:      70170 MSHR_MERGE:        189
cpu0->cpu0_L1D PREFETCH REQUESTED:    1356960 ISSUED:    1325782 USEFUL:     275171 USELESS:     546637 LATE:      19382
cpu0->cpu0_L1D AVERAGE MISS LATENCY: 20.43 cycles
cpu0->cpu0_ITLB TOTAL        ACCESS:    8342329 HIT:    8278979 MISS:      63350 MSHR_MERGE:      36475
cpu0->cpu0_ITLB LOAD         ACCESS:    8342329 HIT:    8278979 MISS:      63350 MSHR_MERGE:      36475
cpu0->cpu0_ITLB RFO          ACCESS:          0 HIT:          0 MISS:          0 MSHR_MERGE:          0
cpu0->cpu0_ITLB PREFETCH     ACCESS:          0 HIT:          0 MISS:          0 MSHR_MERGE:          0
cpu0->cpu0_ITLB WRITE        ACCESS:          0 HIT:          0 MISS:          0 MSHR_MERGE:          0
cpu0->cpu0_ITLB TRANSLATION  ACCESS:          0 HIT:          0 MISS:          0 MSHR_MERGE:          0
cpu0->cpu0_ITLB PREFETCH REQUESTED:          0 ISSUED:          0 USEFUL:          0 USELESS:          0 LATE:          0
cpu0->cpu0_ITLB AVERAGE MISS LATENCY: 7.098 cycles
cpu0->cpu0_DTLB TOTAL        ACCESS:   14479749 HIT:   12623928 MISS:    1855821 MSHR_MERGE:     623685
cpu0->cpu0_DTLB LOAD         ACCESS:   14479749 HIT:   12623928 MISS:    1855821 MSHR_MERGE:     623685
cpu0->cpu0_DTLB RFO          ACCESS:          0 HIT:          0 MISS:          0 MSHR_MERGE:          0
cpu0->cpu0_DTLB PREFETCH     ACCESS:          0 HIT:          0 MISS:          0 MSHR_MERGE:          0
cpu0->cpu0_DTLB WRITE        ACCESS:          0 HIT:          0 MISS:          0 MSHR_MERGE:          0
cpu0->cpu0_DTLB TRANSLATION  ACCESS:          0 HIT:          0 MISS:          0 MSHR_MERGE:          0
cpu0->cpu0_DTLB PREFETCH REQUESTED:          0 ISSUED:          0 USEFUL:          0 USELESS:          0 LATE:          0
cpu0->cpu0_DTLB AVERAGE MISS LATENCY: 6.736 cycles
cpu0->LLC TOTAL        ACCESS:     640789 HIT:     498706 MISS:     142083 MSHR_MERGE:         93
cpu0->LLC LOAD         ACCESS:     226879 HIT:     218127 MISS:       8752 MSHR_MERGE:         17
cpu0->LLC RFO          ACCESS:     108624 HIT:       6719 MISS:     101905 MSHR_MERGE:          0
cpu0->LLC PREFETCH     ACCESS:     163725 HIT:     143487 MISS:      20238 MSHR_MERGE:         76
cpu0->LLC WRITE        ACCESS:     126914 HIT:     116515 MISS:      10399 MSHR_MERGE:          0
cpu0->LLC TRANSLATION  ACCESS:      14647 HIT:      13858 MISS:        789 MSHR_MERGE:          0
cpu0->LLC PREFETCH REQUESTED:          0 ISSUED:          0 USEFUL:          0 USELESS:          0 LATE:          0
cpu0->LLC AVERAGE MISS LATENCY: 175.4 cycles

DRAM Statistics

Channel 0 RQ ROW_BUFFER_HIT:      11230
  ROW_BUFFER_MISS:     120360
  AVG DBUS CONGESTED CYCLE: 6.067
Channel 0 WQ ROW_BUFFER_HIT:       5391
  ROW_BUFFER_MISS:      89183
  FULL:          0
Channel 0 REFRESHES ISSUED:       4058

[ROI Statistics]
[System Configuration]
num_cpus 1
cpu_freq 4000
fetch_width 6
decode_width 6
dispatch_width 6
execute_width 6
lq_width 2
sq_width 2
retire_width 6
scheduler_size 128
branch_mispredict_penalty 15
rob_size 352
lq_size 128
sq_size 72
ifetch_buffer_size 64
decode_buffer_size 32
dispatch_buffer_size 32
register_file_size 288
decode_latency 1
dispatch_latency 1
schedule_latency 1
execute_latency 1
page_size 4096
block_size 64
core_0_itlb_set 16
core_0_itlb_way 4
core_0_itlb_rq_size 16
core_0_itlb_wq_size 16
core_0_itlb_pq_size 0
core_0_itlb_mshr_size 8
core_0_itlb_hit_latency 1
core_0_itlb_fill_latency 1
core_0_itlb_max_tag_check 2
core_0_itlb_max_fill 2
core_0_dtlb_set 16
core_0_dtlb_way 4
core_0_dtlb_rq_size 16
core_0_dtlb_wq_size 16
core_0_dtlb_pq_size 0
core_0_dtlb_mshr_size 8
core_0_dtlb_hit_latency 1
core_0_dtlb_fill_latency 1
core_0_dtlb_max_tag_check 2
core_0_dtlb_max_fill 2
core_0_stlb_set 128
core_0_stlb_way 12
core_0_stlb_rq_size 32
core_0_stlb_wq_size 32
core_0_stlb_pq_size 0
core_0_stlb_mshr_size 16
core_0_stlb_hit_latency 4
core_0_stlb_fill_latency 4
core_0_stlb_max_tag_check 1
core_0_stlb_max_fill 1
core_0_l1i_set 64
core_0_l1i_way 8
core_0_l1i_rq_size 64
core_0_l1i_wq_size 64
core_0_l1i_pq_size 32
core_0_l1i_mshr_size 8
core_0_l1i_hit_latency 2
core_0_l1i_fill_latency 2
core_0_l1i_max_tag_check 2
core_0_l1i_max_fill 2
core_0_l1d_set 64
core_0_l1d_way 12
core_0_l1d_rq_size 64
core_0_l1d_wq_size 64
core_0_l1d_pq_size 8
core_0_l1d_mshr_size 16
core_0_l1d_hit_latency 2
core_0_l1d_fill_latency 3
core_0_l1d_max_tag_check 2
core_0_l1d_max_fill 2
core_0_l2c_set 1024
core_0_l2c_way 8
core_0_l2c_rq_size 32
core_0_l2c_wq_size 32
core_0_l2c_pq_size 16
core_0_l2c_mshr_size 32
core_0_l2c_hit_latency 5
core_0_l2c_fill_latency 5
core_0_l2c_max_tag_check 1
core_0_l2c_max_fill 1
llc_set 2048
llc_way 16
llc_rq_size 32
llc_wq_size 32
llc_pq_size 32
llc_mshr_size 64
llc_hit_latency 10
llc_fill_latency 10
llc_max_tag_check 1
llc_max_fill 1
dram_channels 1
dram_ranks 1
dram_bankgroups 8
dram_banks 4
dram_rows 65536
dram_columns 1024
dram_channel_width 8
dram_rq_size 64
dram_wq_size 64
dram_size 17179869184
core_0_itlb_prefetcher no
core_0_dtlb_prefetcher no
core_0_stlb_prefetcher no
core_0_l1i_prefetcher next_line
core_0_l1d_prefetcher berti
core_0_l2c_prefetcher ip_stride
llc_prefetcher no
llc_replacement drrip

Core_0_instructions 50000000
Core_0_cycles 48698475
Core_0_IPC 1.02673
Core_0_branch_prediction_accuracy 97.1281
Core_0_branch_MPKI 7.59034
Core_0_average_ROB_occupancy_at_mispredict 43.8714

Core_0_ITLB_total_access 8342329
Core_0_ITLB_total_hit 8278979
Core_0_ITLB_total_miss 63350
Core_0_ITLB_total_MPKI 1.267
Core_0_ITLB_total_miss_rate 0.0075938
Core_0_ITLB_demand_access 8342329
Core_0_ITLB_demand_hit 8278979
Core_0_ITLB_demand_miss 63350
Core_0_ITLB_demand_MPKI 1.267
Core_0_ITLB_demand_miss_rate 0.0075938
Core_0_ITLB_load_access 8342329
Core_0_ITLB_load_hit 8278979
Core_0_ITLB_load_miss 63350
Core_0_ITLB_load_MPKI 1.267
Core_0_ITLB_load_miss_rate 0.0075938
Core_0_ITLB_rfo_access 0
Core_0_ITLB_rfo_hit 0
Core_0_ITLB_rfo_miss 0
Core_0_ITLB_rfo_MPKI 0
Core_0_ITLB_rfo_miss_rate 0
Core_0_ITLB_prefetch_access 0
Core_0_ITLB_prefetch_hit 0
Core_0_ITLB_prefetch_miss 0
Core_0_ITLB_prefetch_MPKI 0
Core_0_ITLB_prefetch_miss_rate 0
Core_0_ITLB_writeback_access 0
Core_0_ITLB_writeback_hit 0
Core_0_ITLB_writeback_miss 0
Core_0_ITLB_writeback_MPKI 0
Core_0_ITLB_writeback_miss_rate 0
Core_0_ITLB_prefetch_requested 0
Core_0_ITLB_prefetch_issued 0
Core_0_ITLB_prefetch_useful 0
Core_0_ITLB_prefetch_useless 0
Core_0_ITLB_prefetch_late 0
Core_0_ITLB_prefetch_accuracy 0
Core_0_ITLB_prefetch_coverage 0

Core_0_DTLB_total_access 14479749
Core_0_DTLB_total_hit 12623928
Core_0_DTLB_total_miss 1855821
Core_0_DTLB_total_MPKI 37.1164
Core_0_DTLB_total_miss_rate 0.128167
Core_0_DTLB_demand_access 14479749
Core_0_DTLB_demand_hit 12623928
Core_0_DTLB_demand_miss 1855821
Core_0_DTLB_demand_MPKI 37.1164
Core_0_DTLB_demand_miss_rate 0.128167
Core_0_DTLB_load_access 14479749
Core_0_DTLB_load_hit 12623928
Core_0_DTLB_load_miss 1855821
Core_0_DTLB_load_MPKI 37.1164
Core_0_DTLB_load_miss_rate 0.128167
Core_0_DTLB_rfo_access 0
Core_0_DTLB_rfo_hit 0
Core_0_DTLB_rfo_miss 0
Core_0_DTLB_rfo_MPKI 0
Core_0_DTLB_rfo_miss_rate 0
Core_0_DTLB_prefetch_access 0
Core_0_DTLB_prefetch_hit 0
Core_0_DTLB_prefetch_miss 0
Core_0_DTLB_prefetch_MPKI 0
Core_0_DTLB_prefetch_miss_rate 0
Core_0_DTLB_writeback_access 0
Core_0_DTLB_writeback_hit 0
Core_0_DTLB_writeback_miss 0
Core_0_DTLB_writeback_MPKI 0
Core_0_DTLB_writeback_miss_rate 0
Core_0_DTLB_prefetch_requested 0
Core_0_DTLB_prefetch_issued 0
Core_0_DTLB_prefetch_useful 0
Core_0_DTLB_prefetch_useless 0
Core_0_DTLB_prefetch_late 0
Core_0_DTLB_prefetch_accuracy 0
Core_0_DTLB_prefetch_coverage 0

Core_0_STLB_total_access 1259013
Core_0_STLB_total_hit 1184281
Core_0_STLB_total_miss 74732
Core_0_STLB_total_MPKI 1.49464
Core_0_STLB_total_miss_rate 0.0593576
Core_0_STLB_demand_access 1259013
Core_0_STLB_demand_hit 1184281
Core_0_STLB_demand_miss 74732
Core_0_STLB_demand_MPKI 1.49464
Core_0_STLB_demand_miss_rate 0.0593576
Core_0_STLB_load_access 1259013
Core_0_STLB_load_hit 1184281
Core_0_STLB_load_miss 74732
Core_0_STLB_load_MPKI 1.49464
Core_0_STLB_load_miss_rate 0.0593576
Core_0_STLB_rfo_access 0
Core_0_STLB_rfo_hit 0
Core_0_STLB_rfo_miss 0
Core_0_STLB_rfo_MPKI 0
Core_0_STLB_rfo_miss_rate 0
Core_0_STLB_prefetch_access 0
Core_0_STLB_prefetch_hit 0
Core_0_STLB_prefetch_miss 0
Core_0_STLB_prefetch_MPKI 0
Core_0_STLB_prefetch_miss_rate 0
Core_0_STLB_writeback_access 0
Core_0_STLB_writeback_hit 0
Core_0_STLB_writeback_miss 0
Core_0_STLB_writeback_MPKI 0
Core_0_STLB_writeback_miss_rate 0
Core_0_STLB_prefetch_requested 0
Core_0_STLB_prefetch_issued 0
Core_0_STLB_prefetch_useful 0
Core_0_STLB_prefetch_useless 0
Core_0_STLB_prefetch_late 0
Core_0_STLB_prefetch_accuracy 0
Core_0_STLB_prefetch_coverage 0

Core_0_L1I_total_access 9097331
Core_0_L1I_total_hit 8835744
Core_0_L1I_total_miss 261587
Core_0_L1I_total_MPKI 5.23174
Core_0_L1I_total_miss_rate 0.0287543
Core_0_L1I_demand_access 9097331
Core_0_L1I_demand_hit 8835744
Core_0_L1I_demand_miss 261587
Core_0_L1I_demand_MPKI 5.23174
Core_0_L1I_demand_miss_rate 0.0287543
Core_0_L1I_load_access 9097331
Core_0_L1I_load_hit 8835744
Core_0_L1I_load_miss 261587
Core_0_L1I_load_MPKI 5.23174
Core_0_L1I_load_miss_rate 0.0287543
Core_0_L1I_rfo_access 0
Core_0_L1I_rfo_hit 0
Core_0_L1I_rfo_miss 0
Core_0_L1I_rfo_MPKI 0
Core_0_L1I_rfo_miss_rate 0
Core_0_L1I_prefetch_access 0
Core_0_L1I_prefetch_hit 0
Core_0_L1I_prefetch_miss 0
Core_0_L1I_prefetch_MPKI 0
Core_0_L1I_prefetch_miss_rate 0
Core_0_L1I_writeback_access 0
Core_0_L1I_writeback_hit 0
Core_0_L1I_writeback_miss 0
Core_0_L1I_writeback_MPKI 0
Core_0_L1I_writeback_miss_rate 0
Core_0_L1I_prefetch_requested 0
Core_0_L1I_prefetch_issued 0
Core_0_L1I_prefetch_useful 0
Core_0_L1I_prefetch_useless 0
Core_0_L1I_prefetch_late 0
Core_0_L1I_prefetch_accuracy 0
Core_0_L1I_prefetch_coverage 0

Core_0_L1D_total_access 15203898
Core_0_L1D_total_hit 11426594
Core_0_L1D_total_miss 3777304
Core_0_L1D_total_MPKI 75.5461
Core_0_L1D_total_miss_rate 0.248443
Core_0_L1D_demand_access 8992819
Core_0_L1D_demand_hit 6583093
Core_0_L1D_demand_miss 2409726
Core_0_L1D_demand_MPKI 48.1945
Core_0_L1D_demand_miss_rate 0.267961
Core_0_L1D_load_access 8992819
Core_0_L1D_load_hit 6583093
Core_0_L1D_load_miss 2409726
Core_0_L1D_load_MPKI 48.1945
Core_0_L1D_load_miss_rate 0.267961
Core_0_L1D_rfo_access 0
Core_0_L1D_rfo_hit 0
Core_0_L1D_rfo_miss 0
Core_0_L1D_rfo_MPKI 0
Core_0_L1D_rfo_miss_rate 0
Core_0_L1D_prefetch_access 1325787
Core_0_L1D_prefetch_hit 442291
Core_0_L1D_prefetch_miss 883496
Core_0_L1D_prefetch_MPKI 17.6699
Core_0_L1D_prefetch_miss_rate 0.666394
Core_0_L1D_writeback_access 4885292
Core_0_L1D_writeback_hit 4401210
Core_0_L1D_writeback_miss 484082
Core_0_L1D_writeback_MPKI 9.68164
Core_0_L1D_writeback_miss_rate 0.0990897
Core_0_L1D_prefetch_requested 1356960
Core_0_L1D_prefetch_issued 1325782
Core_0_L1D_prefetch_useful 275171
Core_0_L1D_prefetch_useless 546637
Core_0_L1D_prefetch_late 19382
Core_0_L1D_prefetch_accuracy 0.207554
Core_0_L1D_prefetch_coverage 0.102488

Core_0_L2C_total_access 3641615
Core_0_L2C_total_hit 3130890
Core_0_L2C_total_miss 510725
Core_0_L2C_total_MPKI 10.2145
Core_0_L2C_total_miss_rate 0.140247
Core_0_L2C_demand_access 2275554
Core_0_L2C_demand_hit 1939727
Core_0_L2C_demand_miss 335827
Core_0_L2C_demand_MPKI 6.71654
Core_0_L2C_demand_miss_rate 0.14758
Core_0_L2C_load_access 2149740
Core_0_L2C_load_hit 1922622
Core_0_L2C_load_miss 227118
Core_0_L2C_load_MPKI 4.54236
Core_0_L2C_load_miss_rate 0.105649
Core_0_L2C_rfo_access 125814
Core_0_L2C_rfo_hit 17105
Core_0_L2C_rfo_miss 108709
Core_0_L2C_rfo_MPKI 2.17418
Core_0_L2C_rfo_miss_rate 0.864045
Core_0_L2C_prefetch_access 1186369
Core_0_L2C_prefetch_hit 1011477
Core_0_L2C_prefetch_miss 174892
Core_0_L2C_prefetch_MPKI 3.49784
Core_0_L2C_prefetch_miss_rate 0.147418
Core_0_L2C_writeback_access 179692
Core_0_L2C_writeback_hit 179686
Core_0_L2C_writeback_miss 6
Core_0_L2C_writeback_MPKI 0.00012
Core_0_L2C_writeback_miss_rate 3.33905e-05
Core_0_L2C_prefetch_requested 364957
Core_0_L2C_prefetch_issued 364631
Core_0_L2C_prefetch_useful 10945
Core_0_L2C_prefetch_useless 6755
Core_0_L2C_prefetch_late 324
Core_0_L2C_prefetch_accuracy 0.0300166
Core_0_L2C_prefetch_coverage 0.0315625

Core_0_LLC_total_access 626142
Core_0_LLC_total_hit 484848
Core_0_LLC_total_miss 141294
Core_0_LLC_total_MPKI 2.82588
Core_0_LLC_total_miss_rate 0.225658
Core_0_LLC_demand_access 335503
Core_0_LLC_demand_hit 224846
Core_0_LLC_demand_miss 110657
Core_0_LLC_demand_MPKI 2.21314
Core_0_LLC_demand_miss_rate 0.329824
Core_0_LLC_load_access 226879
Core_0_LLC_load_hit 218127
Core_0_LLC_load_miss 8752
Core_0_LLC_load_MPKI 0.17504
Core_0_LLC_load_miss_rate 0.0385756
Core_0_LLC_rfo_access 108624
Core_0_LLC_rfo_hit 6719
Core_0_LLC_rfo_miss 101905
Core_0_LLC_rfo_MPKI 2.0381
Core_0_LLC_rfo_miss_rate 0.938144
Core_0_LLC_prefetch_access 163725
Core_0_LLC_prefetch_hit 143487
Core_0_LLC_prefetch_miss 20238
Core_0_LLC_prefetch_MPKI 0.40476
Core_0_LLC_prefetch_miss_rate 0.12361
Core_0_LLC_writeback_access 126914
Core_0_LLC_writeback_hit 116515
Core_0_LLC_writeback_miss 10399
Core_0_LLC_writeback_MPKI 0.20798
Core_0_LLC_writeback_miss_rate 0.0819374
Core_0_LLC_prefetch_requested 0
Core_0_LLC_prefetch_issued 0
Core_0_LLC_prefetch_useful 0
Core_0_LLC_prefetch_useless 0
Core_0_LLC_prefetch_late 0
Core_0_LLC_prefetch_accuracy 0
Core_0_LLC_prefetch_coverage 0

[DRAM Statistics]
Channel_0_RQ_row_buffer_hit 11230
Channel_0_RQ_row_buffer_miss 120360
Channel_0_WQ_row_buffer_hit 5391
Channel_0_WQ_row_buffer_miss 89183
Channel_0_WQ_full 0
Channel_0_dbus_congested 476286
DRAM_total_RQ_row_buffer_hit 11230
DRAM_total_RQ_row_buffer_miss 120360
DRAM_total_WQ_row_buffer_hit 5391
DRAM_total_WQ_row_buffer_miss 89183
DRAM_total_WQ_full 0
DRAM_total_dbus_congested 476286
DRAM_avg_congested_cycle 6.06669

====== DRAM_RQ_TRAFFIC ========
DRAM_RQ_READ_TRAFFIC_BREAKDOWN:
data_demand_read.count = 109283
data_demand_read.share = 83.05%

inst_demand_read.count = 1357
inst_demand_read.share = 1.03%

cache_inst_prefetch.count = 0
cache_inst_prefetch.share = 0.00%

cache_data_prefetch.count = 20162
cache_data_prefetch.share = 15.32%

stlb_data_demand.count = 685
stlb_data_demand.share = 0.52%

stlb_inst_demand.count = 43
stlb_inst_demand.share = 0.03%

stlb_l1i_pref.count = 0
stlb_l1i_pref.share = 0.00%

stlb_l1d_pref.count = 61
stlb_l1d_pref.share = 0.05%

DRAM_RQ_READ_TRAFFIC_SUMMARY:
cache_demand.count = 110640
cache_demand.share = 84.08%

cache_prefetch.count = 20162
cache_prefetch.share = 15.32%

stlb_demand.count = 728
stlb_demand.share = 0.55%

stlb_prefetch.count = 61
stlb_prefetch.share = 0.05%

DRAM_RQ_READ_TRAFFIC_DEBUG:
total_classified_read.count = 131591
unclassified_read.count = 0
total_read_with_other.count = 131591

classified_plus_unclassified_check.count = 131591
dram_rq_read_total_observed.count = 131591
dram_rq_read_total_observed.per_1K_instructions = 2.63182

STLB_MISS_PTW_DRAM_TOUCH_BREAKDOWN:
stlb_miss_total.count = 74732

stlb_miss_touch_dram.count = 786
stlb_miss_touch_dram.share = 1.05%

stlb_miss_no_dram_touch.count = 73946
stlb_miss_no_dram_touch.share = 98.95%

STLB_MISS_PTW_DRAM_TOUCH_DEBUG:
stlb_miss_touch_plus_no_touch.count = 74732
stlb_miss_total_check.count = 74732

======STLB miss causes ========
Core_0_STLB_miss_cause_breakdown
Core_0_STLB_cause_Demand_Data_miss 71348
Core_0_STLB_cause_Demand_Data_miss_rate 0.0566698
Core_0_STLB_cause_Demand_Instruction_miss 1581
Core_0_STLB_cause_Demand_Instruction_miss_rate 0.00125575
Core_0_STLB_cause_L1D_Prefetch_miss 1803
Core_0_STLB_cause_L1D_Prefetch_miss_rate 0.00143207
Core_0_STLB_cause_L1I_Prefetch_miss 0
Core_0_STLB_cause_L1I_Prefetch_miss_rate 0
Core_0_STLB_cause_Other_miss 0
Core_0_STLB_cause_Other_miss_rate 0
Core_0_STLB_Demand_miss 72929
Core_0_STLB_Demand_miss_rate 0.0579255
Core_0_STLB_L1D_Prefetch_miss 1803
Core_0_STLB_L1D_Prefetch_miss_rate 0.00143207
Core_0_STLB_Other_miss 0
Core_0_STLB_Other_miss_rate 0
