[VMEM] WARNING: physical memory size is smaller than virtual memory size.

*** ChampSim Multicore Out-of-Order Simulator ***
Warmup Instructions: 20000000
Simulation Instructions: 50000000
Number of CPUs: 1
Page size: 4096
Core 0: /data0/tzh/champsim_traces/SPEC17/649.fotonik3d_s-10881B.champsimtrace.xz
 L1D Berti prefetcher
Off-chip DRAM Size: 16 GiB Channels: 1 Width: 64-bit Data Rate: 3205 MT/s
Warmup halting CPU 0 at instruction 20000005 cycle 8698804 for remainder of phase
Warmup finished CPU 0 instructions: 20000005 cycles: 8698804 cumulative IPC: 2.299 (Simulation time: 00 hr 01 min 38 sec)
Warmup complete CPU 0 instructions: 20000005 cycles: 8698804 cumulative IPC: 2.299 (Simulation time: 00 hr 01 min 38 sec)
Simulation finished CPU 0 instructions: 50000002 cycles: 54734053 cumulative IPC: 0.9135 (Simulation time: 00 hr 09 min 27 sec)
Simulation complete CPU 0 instructions: 50000002 cycles: 54734053 cumulative IPC: 0.9135 (Simulation time: 00 hr 09 min 27 sec)

ChampSim completed all CPUs

=== Simulation ===
CPU 0 runs /data0/tzh/champsim_traces/SPEC17/649.fotonik3d_s-10881B.champsimtrace.xz

Region of Interest Statistics

CPU 0 cumulative IPC: 0.9135 instructions: 50000002 cycles: 54734053
CPU 0 Branch Prediction Accuracy: 99.99% MPKI: 0.00102 Average ROB Occupancy at Mispredict: 348.1
Branch type MPKI
BRANCH_DIRECT_JUMP: 0
BRANCH_INDIRECT: 0
BRANCH_CONDITIONAL: 0.00102
BRANCH_DIRECT_CALL: 0
BRANCH_INDIRECT_CALL: 0
BRANCH_RETURN: 0

cpu0->cpu0_STLB TOTAL        ACCESS:     245485 HIT:      75700 MISS:     169785 MSHR_MERGE:          0
cpu0->cpu0_STLB LOAD         ACCESS:     245485 HIT:      75700 MISS:     169785 MSHR_MERGE:          0
cpu0->cpu0_STLB RFO          ACCESS:          0 HIT:          0 MISS:          0 MSHR_MERGE:          0
cpu0->cpu0_STLB PREFETCH     ACCESS:          0 HIT:          0 MISS:          0 MSHR_MERGE:          0
cpu0->cpu0_STLB WRITE        ACCESS:          0 HIT:          0 MISS:          0 MSHR_MERGE:          0
cpu0->cpu0_STLB TRANSLATION  ACCESS:          0 HIT:          0 MISS:          0 MSHR_MERGE:          0
cpu0->cpu0_STLB PREFETCH REQUESTED:          0 ISSUED:          0 USEFUL:          0 USELESS:          0 LATE:          0
cpu0->cpu0_STLB AVERAGE MISS LATENCY: 228.9 cycles
cpu0->cpu0_L2C TOTAL        ACCESS:    1786894 HIT:     559821 MISS:    1227073 MSHR_MERGE:       2846
cpu0->cpu0_L2C LOAD         ACCESS:     339616 HIT:      21784 MISS:     317832 MSHR_MERGE:         36
cpu0->cpu0_L2C RFO          ACCESS:          0 HIT:          0 MISS:          0 MSHR_MERGE:          0
cpu0->cpu0_L2C PREFETCH     ACCESS:     936999 HIT:      49395 MISS:     887604 MSHR_MERGE:       2810
cpu0->cpu0_L2C WRITE        ACCESS:     485744 HIT:     485744 MISS:          0 MSHR_MERGE:          0
cpu0->cpu0_L2C TRANSLATION  ACCESS:      24535 HIT:       2898 MISS:      21637 MSHR_MERGE:          0
cpu0->cpu0_L2C PREFETCH REQUESTED:      81342 ISSUED:      81342 USEFUL:      33343 USELESS:      10765 LATE:         36
cpu0->cpu0_L2C AVERAGE MISS LATENCY: 300.5 cycles
cpu0->cpu0_L1I TOTAL        ACCESS:   10442524 HIT:   10442524 MISS:          0 MSHR_MERGE:          0
cpu0->cpu0_L1I LOAD         ACCESS:   10442524 HIT:   10442524 MISS:          0 MSHR_MERGE:          0
cpu0->cpu0_L1I RFO          ACCESS:          0 HIT:          0 MISS:          0 MSHR_MERGE:          0
cpu0->cpu0_L1I PREFETCH     ACCESS:          0 HIT:          0 MISS:          0 MSHR_MERGE:          0
cpu0->cpu0_L1I WRITE        ACCESS:          0 HIT:          0 MISS:          0 MSHR_MERGE:          0
cpu0->cpu0_L1I TRANSLATION  ACCESS:          0 HIT:          0 MISS:          0 MSHR_MERGE:          0
cpu0->cpu0_L1I PREFETCH REQUESTED:          0 ISSUED:          0 USEFUL:          0 USELESS:          0 LATE:          0
cpu0->cpu0_L1I AVERAGE MISS LATENCY: - cycles
cpu0->cpu0_L1D TOTAL        ACCESS:   21856984 HIT:   20265528 MISS:    1591456 MSHR_MERGE:     371648
cpu0->cpu0_L1D LOAD         ACCESS:   17306117 HIT:   16626867 MISS:     679250 MSHR_MERGE:     339634
cpu0->cpu0_L1D RFO          ACCESS:          0 HIT:          0 MISS:          0 MSHR_MERGE:          0
cpu0->cpu0_L1D PREFETCH     ACCESS:    1005390 HIT:     117719 MISS:     887671 MSHR_MERGE:      32014
cpu0->cpu0_L1D WRITE        ACCESS:    3205647 HIT:    3205647 MISS:          0 MSHR_MERGE:          0
cpu0->cpu0_L1D TRANSLATION  ACCESS:     339830 HIT:     315295 MISS:      24535 MSHR_MERGE:          0
cpu0->cpu0_L1D PREFETCH REQUESTED:    1006943 ISSUED:    1005389 USEFUL:     622385 USELESS:     233290 LATE:      35966
cpu0->cpu0_L1D AVERAGE MISS LATENCY: 280.7 cycles
cpu0->cpu0_ITLB TOTAL        ACCESS:    8168966 HIT:    8168966 MISS:          0 MSHR_MERGE:          0
cpu0->cpu0_ITLB LOAD         ACCESS:    8168966 HIT:    8168966 MISS:          0 MSHR_MERGE:          0
cpu0->cpu0_ITLB RFO          ACCESS:          0 HIT:          0 MISS:          0 MSHR_MERGE:          0
cpu0->cpu0_ITLB PREFETCH     ACCESS:          0 HIT:          0 MISS:          0 MSHR_MERGE:          0
cpu0->cpu0_ITLB WRITE        ACCESS:          0 HIT:          0 MISS:          0 MSHR_MERGE:          0
cpu0->cpu0_ITLB TRANSLATION  ACCESS:          0 HIT:          0 MISS:          0 MSHR_MERGE:          0
cpu0->cpu0_ITLB PREFETCH REQUESTED:          0 ISSUED:          0 USEFUL:          0 USELESS:          0 LATE:          0
cpu0->cpu0_ITLB AVERAGE MISS LATENCY: - cycles
cpu0->cpu0_DTLB TOTAL        ACCESS:   21130921 HIT:   20752129 MISS:     378792 MSHR_MERGE:     133307
cpu0->cpu0_DTLB LOAD         ACCESS:   21130921 HIT:   20752129 MISS:     378792 MSHR_MERGE:     133307
cpu0->cpu0_DTLB RFO          ACCESS:          0 HIT:          0 MISS:          0 MSHR_MERGE:          0
cpu0->cpu0_DTLB PREFETCH     ACCESS:          0 HIT:          0 MISS:          0 MSHR_MERGE:          0
cpu0->cpu0_DTLB WRITE        ACCESS:          0 HIT:          0 MISS:          0 MSHR_MERGE:          0
cpu0->cpu0_DTLB TRANSLATION  ACCESS:          0 HIT:          0 MISS:          0 MSHR_MERGE:          0
cpu0->cpu0_DTLB PREFETCH REQUESTED:          0 ISSUED:          0 USEFUL:          0 USELESS:          0 LATE:          0
cpu0->cpu0_DTLB AVERAGE MISS LATENCY: 164 cycles
cpu0->LLC TOTAL        ACCESS:    1710063 HIT:     513645 MISS:    1196418 MSHR_MERGE:         20
cpu0->LLC LOAD         ACCESS:     317796 HIT:      21300 MISS:     296496 MSHR_MERGE:          0
cpu0->LLC RFO          ACCESS:          0 HIT:          0 MISS:          0 MSHR_MERGE:          0
cpu0->LLC PREFETCH     ACCESS:     884794 HIT:      63604 MISS:     821190 MSHR_MERGE:         20
cpu0->LLC WRITE        ACCESS:     485836 HIT:     426872 MISS:      58964 MSHR_MERGE:          0
cpu0->LLC TRANSLATION  ACCESS:      21637 HIT:       1869 MISS:      19768 MSHR_MERGE:          0
cpu0->LLC PREFETCH REQUESTED:          0 ISSUED:          0 USEFUL:          0 USELESS:          0 LATE:          0
cpu0->LLC AVERAGE MISS LATENCY: 258.8 cycles

DRAM Statistics

Channel 0 RQ ROW_BUFFER_HIT:     121197
  ROW_BUFFER_MISS:    1016236
  AVG DBUS CONGESTED CYCLE: 6.906
Channel 0 WQ ROW_BUFFER_HIT:      84195
  ROW_BUFFER_MISS:     401359
  FULL:          0
Channel 0 REFRESHES ISSUED:       4562

[ROI Statistics]
[System Configuration]
num_cpus 1
cpu_freq 4000
fetch_width 6
decode_width 6
dispatch_width 6
execute_width 6
lq_width 2
sq_width 2
retire_width 6
scheduler_size 128
branch_mispredict_penalty 15
rob_size 352
lq_size 128
sq_size 72
ifetch_buffer_size 64
decode_buffer_size 32
dispatch_buffer_size 32
register_file_size 288
decode_latency 1
dispatch_latency 1
schedule_latency 1
execute_latency 1
page_size 4096
block_size 64
core_0_itlb_set 16
core_0_itlb_way 4
core_0_itlb_rq_size 16
core_0_itlb_wq_size 16
core_0_itlb_pq_size 0
core_0_itlb_mshr_size 8
core_0_itlb_hit_latency 1
core_0_itlb_fill_latency 1
core_0_itlb_max_tag_check 2
core_0_itlb_max_fill 2
core_0_dtlb_set 16
core_0_dtlb_way 4
core_0_dtlb_rq_size 16
core_0_dtlb_wq_size 16
core_0_dtlb_pq_size 0
core_0_dtlb_mshr_size 8
core_0_dtlb_hit_latency 1
core_0_dtlb_fill_latency 1
core_0_dtlb_max_tag_check 2
core_0_dtlb_max_fill 2
core_0_stlb_set 128
core_0_stlb_way 12
core_0_stlb_rq_size 32
core_0_stlb_wq_size 32
core_0_stlb_pq_size 0
core_0_stlb_mshr_size 16
core_0_stlb_hit_latency 4
core_0_stlb_fill_latency 4
core_0_stlb_max_tag_check 1
core_0_stlb_max_fill 1
core_0_l1i_set 64
core_0_l1i_way 8
core_0_l1i_rq_size 64
core_0_l1i_wq_size 64
core_0_l1i_pq_size 32
core_0_l1i_mshr_size 8
core_0_l1i_hit_latency 2
core_0_l1i_fill_latency 2
core_0_l1i_max_tag_check 2
core_0_l1i_max_fill 2
core_0_l1d_set 64
core_0_l1d_way 12
core_0_l1d_rq_size 64
core_0_l1d_wq_size 64
core_0_l1d_pq_size 8
core_0_l1d_mshr_size 16
core_0_l1d_hit_latency 2
core_0_l1d_fill_latency 3
core_0_l1d_max_tag_check 2
core_0_l1d_max_fill 2
core_0_l2c_set 1024
core_0_l2c_way 8
core_0_l2c_rq_size 32
core_0_l2c_wq_size 32
core_0_l2c_pq_size 16
core_0_l2c_mshr_size 32
core_0_l2c_hit_latency 5
core_0_l2c_fill_latency 5
core_0_l2c_max_tag_check 1
core_0_l2c_max_fill 1
llc_set 2048
llc_way 16
llc_rq_size 32
llc_wq_size 32
llc_pq_size 32
llc_mshr_size 64
llc_hit_latency 10
llc_fill_latency 10
llc_max_tag_check 1
llc_max_fill 1
dram_channels 1
dram_ranks 1
dram_bankgroups 8
dram_banks 4
dram_rows 65536
dram_columns 1024
dram_channel_width 8
dram_rq_size 64
dram_wq_size 64
dram_size 17179869184
core_0_itlb_prefetcher no
core_0_dtlb_prefetcher no
core_0_stlb_prefetcher no
core_0_l1i_prefetcher next_line
core_0_l1d_prefetcher berti
core_0_l2c_prefetcher ip_stride
llc_prefetcher no
llc_replacement drrip

Core_0_instructions 50000002
Core_0_cycles 54734053
Core_0_IPC 0.913508
Core_0_branch_prediction_accuracy 99.9915
Core_0_branch_MPKI 0.00102
Core_0_average_ROB_occupancy_at_mispredict 348.098

Core_0_ITLB_total_access 8168966
Core_0_ITLB_total_hit 8168966
Core_0_ITLB_total_miss 0
Core_0_ITLB_total_MPKI 0
Core_0_ITLB_total_miss_rate 0
Core_0_ITLB_demand_access 8168966
Core_0_ITLB_demand_hit 8168966
Core_0_ITLB_demand_miss 0
Core_0_ITLB_demand_MPKI 0
Core_0_ITLB_demand_miss_rate 0
Core_0_ITLB_load_access 8168966
Core_0_ITLB_load_hit 8168966
Core_0_ITLB_load_miss 0
Core_0_ITLB_load_MPKI 0
Core_0_ITLB_load_miss_rate 0
Core_0_ITLB_rfo_access 0
Core_0_ITLB_rfo_hit 0
Core_0_ITLB_rfo_miss 0
Core_0_ITLB_rfo_MPKI 0
Core_0_ITLB_rfo_miss_rate 0
Core_0_ITLB_prefetch_access 0
Core_0_ITLB_prefetch_hit 0
Core_0_ITLB_prefetch_miss 0
Core_0_ITLB_prefetch_MPKI 0
Core_0_ITLB_prefetch_miss_rate 0
Core_0_ITLB_writeback_access 0
Core_0_ITLB_writeback_hit 0
Core_0_ITLB_writeback_miss 0
Core_0_ITLB_writeback_MPKI 0
Core_0_ITLB_writeback_miss_rate 0
Core_0_ITLB_prefetch_requested 0
Core_0_ITLB_prefetch_issued 0
Core_0_ITLB_prefetch_useful 0
Core_0_ITLB_prefetch_useless 0
Core_0_ITLB_prefetch_late 0
Core_0_ITLB_prefetch_accuracy 0
Core_0_ITLB_prefetch_coverage 0

Core_0_DTLB_total_access 21130921
Core_0_DTLB_total_hit 20752129
Core_0_DTLB_total_miss 378792
Core_0_DTLB_total_MPKI 7.57584
Core_0_DTLB_total_miss_rate 0.017926
Core_0_DTLB_demand_access 21130921
Core_0_DTLB_demand_hit 20752129
Core_0_DTLB_demand_miss 378792
Core_0_DTLB_demand_MPKI 7.57584
Core_0_DTLB_demand_miss_rate 0.017926
Core_0_DTLB_load_access 21130921
Core_0_DTLB_load_hit 20752129
Core_0_DTLB_load_miss 378792
Core_0_DTLB_load_MPKI 7.57584
Core_0_DTLB_load_miss_rate 0.017926
Core_0_DTLB_rfo_access 0
Core_0_DTLB_rfo_hit 0
Core_0_DTLB_rfo_miss 0
Core_0_DTLB_rfo_MPKI 0
Core_0_DTLB_rfo_miss_rate 0
Core_0_DTLB_prefetch_access 0
Core_0_DTLB_prefetch_hit 0
Core_0_DTLB_prefetch_miss 0
Core_0_DTLB_prefetch_MPKI 0
Core_0_DTLB_prefetch_miss_rate 0
Core_0_DTLB_writeback_access 0
Core_0_DTLB_writeback_hit 0
Core_0_DTLB_writeback_miss 0
Core_0_DTLB_writeback_MPKI 0
Core_0_DTLB_writeback_miss_rate 0
Core_0_DTLB_prefetch_requested 0
Core_0_DTLB_prefetch_issued 0
Core_0_DTLB_prefetch_useful 0
Core_0_DTLB_prefetch_useless 0
Core_0_DTLB_prefetch_late 0
Core_0_DTLB_prefetch_accuracy 0
Core_0_DTLB_prefetch_coverage 0

Core_0_STLB_total_access 245485
Core_0_STLB_total_hit 75700
Core_0_STLB_total_miss 169785
Core_0_STLB_total_MPKI 3.3957
Core_0_STLB_total_miss_rate 0.691631
Core_0_STLB_demand_access 245485
Core_0_STLB_demand_hit 75700
Core_0_STLB_demand_miss 169785
Core_0_STLB_demand_MPKI 3.3957
Core_0_STLB_demand_miss_rate 0.691631
Core_0_STLB_load_access 245485
Core_0_STLB_load_hit 75700
Core_0_STLB_load_miss 169785
Core_0_STLB_load_MPKI 3.3957
Core_0_STLB_load_miss_rate 0.691631
Core_0_STLB_rfo_access 0
Core_0_STLB_rfo_hit 0
Core_0_STLB_rfo_miss 0
Core_0_STLB_rfo_MPKI 0
Core_0_STLB_rfo_miss_rate 0
Core_0_STLB_prefetch_access 0
Core_0_STLB_prefetch_hit 0
Core_0_STLB_prefetch_miss 0
Core_0_STLB_prefetch_MPKI 0
Core_0_STLB_prefetch_miss_rate 0
Core_0_STLB_writeback_access 0
Core_0_STLB_writeback_hit 0
Core_0_STLB_writeback_miss 0
Core_0_STLB_writeback_MPKI 0
Core_0_STLB_writeback_miss_rate 0
Core_0_STLB_prefetch_requested 0
Core_0_STLB_prefetch_issued 0
Core_0_STLB_prefetch_useful 0
Core_0_STLB_prefetch_useless 0
Core_0_STLB_prefetch_late 0
Core_0_STLB_prefetch_accuracy 0
Core_0_STLB_prefetch_coverage 0

Core_0_L1I_total_access 10442524
Core_0_L1I_total_hit 10442524
Core_0_L1I_total_miss 0
Core_0_L1I_total_MPKI 0
Core_0_L1I_total_miss_rate 0
Core_0_L1I_demand_access 10442524
Core_0_L1I_demand_hit 10442524
Core_0_L1I_demand_miss 0
Core_0_L1I_demand_MPKI 0
Core_0_L1I_demand_miss_rate 0
Core_0_L1I_load_access 10442524
Core_0_L1I_load_hit 10442524
Core_0_L1I_load_miss 0
Core_0_L1I_load_MPKI 0
Core_0_L1I_load_miss_rate 0
Core_0_L1I_rfo_access 0
Core_0_L1I_rfo_hit 0
Core_0_L1I_rfo_miss 0
Core_0_L1I_rfo_MPKI 0
Core_0_L1I_rfo_miss_rate 0
Core_0_L1I_prefetch_access 0
Core_0_L1I_prefetch_hit 0
Core_0_L1I_prefetch_miss 0
Core_0_L1I_prefetch_MPKI 0
Core_0_L1I_prefetch_miss_rate 0
Core_0_L1I_writeback_access 0
Core_0_L1I_writeback_hit 0
Core_0_L1I_writeback_miss 0
Core_0_L1I_writeback_MPKI 0
Core_0_L1I_writeback_miss_rate 0
Core_0_L1I_prefetch_requested 0
Core_0_L1I_prefetch_issued 0
Core_0_L1I_prefetch_useful 0
Core_0_L1I_prefetch_useless 0
Core_0_L1I_prefetch_late 0
Core_0_L1I_prefetch_accuracy 0
Core_0_L1I_prefetch_coverage 0

Core_0_L1D_total_access 21517154
Core_0_L1D_total_hit 19950233
Core_0_L1D_total_miss 1566921
Core_0_L1D_total_MPKI 31.3384
Core_0_L1D_total_miss_rate 0.0728219
Core_0_L1D_demand_access 17306117
Core_0_L1D_demand_hit 16626867
Core_0_L1D_demand_miss 679250
Core_0_L1D_demand_MPKI 13.585
Core_0_L1D_demand_miss_rate 0.0392491
Core_0_L1D_load_access 17306117
Core_0_L1D_load_hit 16626867
Core_0_L1D_load_miss 679250
Core_0_L1D_load_MPKI 13.585
Core_0_L1D_load_miss_rate 0.0392491
Core_0_L1D_rfo_access 0
Core_0_L1D_rfo_hit 0
Core_0_L1D_rfo_miss 0
Core_0_L1D_rfo_MPKI 0
Core_0_L1D_rfo_miss_rate 0
Core_0_L1D_prefetch_access 1005390
Core_0_L1D_prefetch_hit 117719
Core_0_L1D_prefetch_miss 887671
Core_0_L1D_prefetch_MPKI 17.7534
Core_0_L1D_prefetch_miss_rate 0.882912
Core_0_L1D_writeback_access 3205647
Core_0_L1D_writeback_hit 3205647
Core_0_L1D_writeback_miss 0
Core_0_L1D_writeback_MPKI 0
Core_0_L1D_writeback_miss_rate 0
Core_0_L1D_prefetch_requested 1006943
Core_0_L1D_prefetch_issued 1005389
Core_0_L1D_prefetch_useful 622385
Core_0_L1D_prefetch_useless 233290
Core_0_L1D_prefetch_late 35966
Core_0_L1D_prefetch_accuracy 0.619049
Core_0_L1D_prefetch_coverage 0.478156

Core_0_L2C_total_access 1762359
Core_0_L2C_total_hit 556923
Core_0_L2C_total_miss 1205436
Core_0_L2C_total_MPKI 24.1087
Core_0_L2C_total_miss_rate 0.68399
Core_0_L2C_demand_access 339616
Core_0_L2C_demand_hit 21784
Core_0_L2C_demand_miss 317832
Core_0_L2C_demand_MPKI 6.35664
Core_0_L2C_demand_miss_rate 0.935857
Core_0_L2C_load_access 339616
Core_0_L2C_load_hit 21784
Core_0_L2C_load_miss 317832
Core_0_L2C_load_MPKI 6.35664
Core_0_L2C_load_miss_rate 0.935857
Core_0_L2C_rfo_access 0
Core_0_L2C_rfo_hit 0
Core_0_L2C_rfo_miss 0
Core_0_L2C_rfo_MPKI 0
Core_0_L2C_rfo_miss_rate 0
Core_0_L2C_prefetch_access 936999
Core_0_L2C_prefetch_hit 49395
Core_0_L2C_prefetch_miss 887604
Core_0_L2C_prefetch_MPKI 17.7521
Core_0_L2C_prefetch_miss_rate 0.947284
Core_0_L2C_writeback_access 485744
Core_0_L2C_writeback_hit 485744
Core_0_L2C_writeback_miss 0
Core_0_L2C_writeback_MPKI 0
Core_0_L2C_writeback_miss_rate 0
Core_0_L2C_prefetch_requested 81342
Core_0_L2C_prefetch_issued 81342
Core_0_L2C_prefetch_useful 33343
Core_0_L2C_prefetch_useless 10765
Core_0_L2C_prefetch_late 36
Core_0_L2C_prefetch_accuracy 0.409911
Core_0_L2C_prefetch_coverage 0.094947

Core_0_LLC_total_access 1688426
Core_0_LLC_total_hit 511776
Core_0_LLC_total_miss 1176650
Core_0_LLC_total_MPKI 23.533
Core_0_LLC_total_miss_rate 0.696892
Core_0_LLC_demand_access 317796
Core_0_LLC_demand_hit 21300
Core_0_LLC_demand_miss 296496
Core_0_LLC_demand_MPKI 5.92992
Core_0_LLC_demand_miss_rate 0.932976
Core_0_LLC_load_access 317796
Core_0_LLC_load_hit 21300
Core_0_LLC_load_miss 296496
Core_0_LLC_load_MPKI 5.92992
Core_0_LLC_load_miss_rate 0.932976
Core_0_LLC_rfo_access 0
Core_0_LLC_rfo_hit 0
Core_0_LLC_rfo_miss 0
Core_0_LLC_rfo_MPKI 0
Core_0_LLC_rfo_miss_rate 0
Core_0_LLC_prefetch_access 884794
Core_0_LLC_prefetch_hit 63604
Core_0_LLC_prefetch_miss 821190
Core_0_LLC_prefetch_MPKI 16.4238
Core_0_LLC_prefetch_miss_rate 0.928114
Core_0_LLC_writeback_access 485836
Core_0_LLC_writeback_hit 426872
Core_0_LLC_writeback_miss 58964
Core_0_LLC_writeback_MPKI 1.17928
Core_0_LLC_writeback_miss_rate 0.121366
Core_0_LLC_prefetch_requested 0
Core_0_LLC_prefetch_issued 0
Core_0_LLC_prefetch_useful 0
Core_0_LLC_prefetch_useless 0
Core_0_LLC_prefetch_late 0
Core_0_LLC_prefetch_accuracy 0
Core_0_LLC_prefetch_coverage 0

[DRAM Statistics]
Channel_0_RQ_row_buffer_hit 121197
Channel_0_RQ_row_buffer_miss 1016236
Channel_0_WQ_row_buffer_hit 84195
Channel_0_WQ_row_buffer_miss 401359
Channel_0_WQ_full 0
Channel_0_dbus_congested 4368253
DRAM_total_RQ_row_buffer_hit 121197
DRAM_total_RQ_row_buffer_miss 1016236
DRAM_total_WQ_row_buffer_hit 84195
DRAM_total_WQ_row_buffer_miss 401359
DRAM_total_WQ_full 0
DRAM_total_dbus_congested 4368253
DRAM_avg_congested_cycle 6.90569

====== DRAM_RQ_TRAFFIC ========
DRAM_RQ_READ_TRAFFIC_BREAKDOWN:
data_demand_read.count = 296496
data_demand_read.share = 26.07%

inst_demand_read.count = 0
inst_demand_read.share = 0.00%

cache_inst_prefetch.count = 0
cache_inst_prefetch.share = 0.00%

cache_data_prefetch.count = 821170
cache_data_prefetch.share = 72.19%

stlb_data_demand.count = 11397
stlb_data_demand.share = 1.00%

stlb_inst_demand.count = 0
stlb_inst_demand.share = 0.00%

stlb_l1i_pref.count = 0
stlb_l1i_pref.share = 0.00%

stlb_l1d_pref.count = 8371
stlb_l1d_pref.share = 0.74%

DRAM_RQ_READ_TRAFFIC_SUMMARY:
cache_demand.count = 296496
cache_demand.share = 26.07%

cache_prefetch.count = 821170
cache_prefetch.share = 72.19%

stlb_demand.count = 11397
stlb_demand.share = 1.00%

stlb_prefetch.count = 8371
stlb_prefetch.share = 0.74%

DRAM_RQ_READ_TRAFFIC_DEBUG:
total_classified_read.count = 1137434
unclassified_read.count = 0
total_read_with_other.count = 1137434

classified_plus_unclassified_check.count = 1137434
dram_rq_read_total_observed.count = 1137434
dram_rq_read_total_observed.per_1K_instructions = 22.7487

STLB_MISS_PTW_DRAM_TOUCH_BREAKDOWN:
stlb_miss_total.count = 169785

stlb_miss_touch_dram.count = 19652
stlb_miss_touch_dram.share = 11.57%

stlb_miss_no_dram_touch.count = 150133
stlb_miss_no_dram_touch.share = 88.43%

STLB_MISS_PTW_DRAM_TOUCH_DEBUG:
stlb_miss_touch_plus_no_touch.count = 169785
stlb_miss_total_check.count = 169785

======STLB miss causes ========
Core_0_STLB_miss_cause_breakdown
Core_0_STLB_cause_Demand_Data_miss 95972
Core_0_STLB_cause_Demand_Data_miss_rate 0.390949
Core_0_STLB_cause_Demand_Instruction_miss 0
Core_0_STLB_cause_Demand_Instruction_miss_rate 0
Core_0_STLB_cause_L1D_Prefetch_miss 73813
Core_0_STLB_cause_L1D_Prefetch_miss_rate 0.300682
Core_0_STLB_cause_L1I_Prefetch_miss 0
Core_0_STLB_cause_L1I_Prefetch_miss_rate 0
Core_0_STLB_cause_Other_miss 0
Core_0_STLB_cause_Other_miss_rate 0
Core_0_STLB_Demand_miss 95972
Core_0_STLB_Demand_miss_rate 0.390949
Core_0_STLB_L1D_Prefetch_miss 73813
Core_0_STLB_L1D_Prefetch_miss_rate 0.300682
Core_0_STLB_Other_miss 0
Core_0_STLB_Other_miss_rate 0
