[VMEM] WARNING: physical memory size is smaller than virtual memory size.

*** ChampSim Multicore Out-of-Order Simulator ***
Warmup Instructions: 20000000
Simulation Instructions: 50000000
Number of CPUs: 1
Page size: 4096
Core 0: /data0/tzh/champsim_traces/Ligra/ligra_Components.com-lj.ungraph.gcc_6.3.0_O3.drop_6250M.length_250M.champsimtrace.xz
 L1D Berti prefetcher
Off-chip DRAM Size: 16 GiB Channels: 1 Width: 64-bit Data Rate: 3205 MT/s
Warmup halting CPU 0 at instruction 20000000 cycle 7627635 for remainder of phase
Warmup finished CPU 0 instructions: 20000000 cycles: 7627635 cumulative IPC: 2.622 (Simulation time: 00 hr 01 min 15 sec)
Warmup complete CPU 0 instructions: 20000000 cycles: 7627635 cumulative IPC: 2.622 (Simulation time: 00 hr 01 min 15 sec)
Simulation finished CPU 0 instructions: 50000001 cycles: 116249460 cumulative IPC: 0.4301 (Simulation time: 00 hr 15 min 56 sec)
Simulation complete CPU 0 instructions: 50000001 cycles: 116249460 cumulative IPC: 0.4301 (Simulation time: 00 hr 15 min 56 sec)

ChampSim completed all CPUs

=== Simulation ===
CPU 0 runs /data0/tzh/champsim_traces/Ligra/ligra_Components.com-lj.ungraph.gcc_6.3.0_O3.drop_6250M.length_250M.champsimtrace.xz

Region of Interest Statistics

CPU 0 cumulative IPC: 0.4301 instructions: 50000001 cycles: 116249460
CPU 0 Branch Prediction Accuracy: 100% MPKI: 0 Average ROB Occupancy at Mispredict: -
Branch type MPKI
BRANCH_DIRECT_JUMP: 0
BRANCH_INDIRECT: 0
BRANCH_CONDITIONAL: 0
BRANCH_DIRECT_CALL: 0
BRANCH_INDIRECT_CALL: 0
BRANCH_RETURN: 0

cpu0->cpu0_STLB TOTAL        ACCESS:      55804 HIT:          0 MISS:      55804 MSHR_MERGE:          0
cpu0->cpu0_STLB LOAD         ACCESS:      55804 HIT:          0 MISS:      55804 MSHR_MERGE:          0
cpu0->cpu0_STLB RFO          ACCESS:          0 HIT:          0 MISS:          0 MSHR_MERGE:          0
cpu0->cpu0_STLB PREFETCH     ACCESS:          0 HIT:          0 MISS:          0 MSHR_MERGE:          0
cpu0->cpu0_STLB WRITE        ACCESS:          0 HIT:          0 MISS:          0 MSHR_MERGE:          0
cpu0->cpu0_STLB TRANSLATION  ACCESS:          0 HIT:          0 MISS:          0 MSHR_MERGE:          0
cpu0->cpu0_STLB PREFETCH REQUESTED:          0 ISSUED:          0 USEFUL:          0 USELESS:          0 LATE:          0
cpu0->cpu0_STLB AVERAGE MISS LATENCY: 309.6 cycles
cpu0->cpu0_L2C TOTAL        ACCESS:    8677662 HIT:    2050773 MISS:    6626889 MSHR_MERGE:    2069787
cpu0->cpu0_L2C LOAD         ACCESS:     880329 HIT:      64230 MISS:     816099 MSHR_MERGE:     394019
cpu0->cpu0_L2C RFO          ACCESS:    1785721 HIT:          0 MISS:    1785721 MSHR_MERGE:          0
cpu0->cpu0_L2C PREFETCH     ACCESS:    4218822 HIT:     200837 MISS:    4017985 MSHR_MERGE:    1675768
cpu0->cpu0_L2C WRITE        ACCESS:    1785706 HIT:    1785706 MISS:          0 MSHR_MERGE:          0
cpu0->cpu0_L2C TRANSLATION  ACCESS:       7084 HIT:          0 MISS:       7084 MSHR_MERGE:          0
cpu0->cpu0_L2C PREFETCH REQUESTED:    3313432 ISSUED:    3313422 USEFUL:     494570 USELESS:     416699 LATE:     394019
cpu0->cpu0_L2C AVERAGE MISS LATENCY: 474.6 cycles
cpu0->cpu0_L1I TOTAL        ACCESS:    6170528 HIT:    6170528 MISS:          0 MSHR_MERGE:          0
cpu0->cpu0_L1I LOAD         ACCESS:    6170528 HIT:    6170528 MISS:          0 MSHR_MERGE:          0
cpu0->cpu0_L1I RFO          ACCESS:          0 HIT:          0 MISS:          0 MSHR_MERGE:          0
cpu0->cpu0_L1I PREFETCH     ACCESS:          0 HIT:          0 MISS:          0 MSHR_MERGE:          0
cpu0->cpu0_L1I WRITE        ACCESS:          0 HIT:          0 MISS:          0 MSHR_MERGE:          0
cpu0->cpu0_L1I TRANSLATION  ACCESS:          0 HIT:          0 MISS:          0 MSHR_MERGE:          0
cpu0->cpu0_L1I PREFETCH REQUESTED:          0 ISSUED:          0 USEFUL:          0 USELESS:          0 LATE:          0
cpu0->cpu0_L1I AVERAGE MISS LATENCY: - cycles
cpu0->cpu0_L1D TOTAL        ACCESS:   11835067 HIT:    1225014 MISS:   10610053 MSHR_MERGE:    7031537
cpu0->cpu0_L1D LOAD         ACCESS:    3260499 HIT:     956932 MISS:    2303567 MSHR_MERGE:    1423239
cpu0->cpu0_L1D RFO          ACCESS:          0 HIT:          0 MISS:          0 MSHR_MERGE:          0
cpu0->cpu0_L1D PREFETCH     ACCESS:    1319968 HIT:     102266 MISS:    1217702 MSHR_MERGE:     312318
cpu0->cpu0_L1D WRITE        ACCESS:    7142883 HIT:      61183 MISS:    7081700 MSHR_MERGE:    5295980
cpu0->cpu0_L1D TRANSLATION  ACCESS:     111717 HIT:     104633 MISS:       7084 MSHR_MERGE:          0
cpu0->cpu0_L1D PREFETCH REQUESTED:    1797297 ISSUED:    1319968 USEFUL:     905383 USELESS:          0 LATE:     478127
cpu0->cpu0_L1D AVERAGE MISS LATENCY: 442.3 cycles
cpu0->cpu0_ITLB TOTAL        ACCESS:    6170528 HIT:    6170528 MISS:          0 MSHR_MERGE:          0
cpu0->cpu0_ITLB LOAD         ACCESS:    6170528 HIT:    6170528 MISS:          0 MSHR_MERGE:          0
cpu0->cpu0_ITLB RFO          ACCESS:          0 HIT:          0 MISS:          0 MSHR_MERGE:          0
cpu0->cpu0_ITLB PREFETCH     ACCESS:          0 HIT:          0 MISS:          0 MSHR_MERGE:          0
cpu0->cpu0_ITLB WRITE        ACCESS:          0 HIT:          0 MISS:          0 MSHR_MERGE:          0
cpu0->cpu0_ITLB TRANSLATION  ACCESS:          0 HIT:          0 MISS:          0 MSHR_MERGE:          0
cpu0->cpu0_ITLB PREFETCH REQUESTED:          0 ISSUED:          0 USEFUL:          0 USELESS:          0 LATE:          0
cpu0->cpu0_ITLB AVERAGE MISS LATENCY: - cycles
cpu0->cpu0_DTLB TOTAL        ACCESS:   10514286 HIT:    9763468 MISS:     750818 MSHR_MERGE:     695014
cpu0->cpu0_DTLB LOAD         ACCESS:   10514286 HIT:    9763468 MISS:     750818 MSHR_MERGE:     695014
cpu0->cpu0_DTLB RFO          ACCESS:          0 HIT:          0 MISS:          0 MSHR_MERGE:          0
cpu0->cpu0_DTLB PREFETCH     ACCESS:          0 HIT:          0 MISS:          0 MSHR_MERGE:          0
cpu0->cpu0_DTLB WRITE        ACCESS:          0 HIT:          0 MISS:          0 MSHR_MERGE:          0
cpu0->cpu0_DTLB TRANSLATION  ACCESS:          0 HIT:          0 MISS:          0 MSHR_MERGE:          0
cpu0->cpu0_DTLB PREFETCH REQUESTED:          0 ISSUED:          0 USEFUL:          0 USELESS:          0 LATE:          0
cpu0->cpu0_DTLB AVERAGE MISS LATENCY: 315.6 cycles
cpu0->LLC TOTAL        ACCESS:    6342639 HIT:    1636375 MISS:    4706264 MSHR_MERGE:     912218
cpu0->LLC LOAD         ACCESS:     422080 HIT:      25489 MISS:     396591 MSHR_MERGE:     104316
cpu0->LLC RFO          ACCESS:    1785721 HIT:          0 MISS:    1785721 MSHR_MERGE:          0
cpu0->LLC PREFETCH     ACCESS:    2342206 HIT:      40863 MISS:    2301343 MSHR_MERGE:     807902
cpu0->LLC WRITE        ACCESS:    1785548 HIT:    1570023 MISS:     215525 MSHR_MERGE:          0
cpu0->LLC TRANSLATION  ACCESS:       7084 HIT:          0 MISS:       7084 MSHR_MERGE:          0
cpu0->LLC PREFETCH REQUESTED:          0 ISSUED:          0 USEFUL:          0 USELESS:          0 LATE:          0
cpu0->LLC AVERAGE MISS LATENCY: 441.8 cycles

DRAM Statistics

Channel 0 RQ ROW_BUFFER_HIT:     220707
  ROW_BUFFER_MISS:    3357802
  AVG DBUS CONGESTED CYCLE: 6.688
Channel 0 WQ ROW_BUFFER_HIT:     122964
  ROW_BUFFER_MISS:    1663329
  FULL:          0
Channel 0 REFRESHES ISSUED:       9688

[ROI Statistics]
[System Configuration]
num_cpus 1
cpu_freq 4000
fetch_width 6
decode_width 6
dispatch_width 6
execute_width 6
lq_width 2
sq_width 2
retire_width 6
scheduler_size 128
branch_mispredict_penalty 15
rob_size 352
lq_size 128
sq_size 72
ifetch_buffer_size 64
decode_buffer_size 32
dispatch_buffer_size 32
register_file_size 288
decode_latency 1
dispatch_latency 1
schedule_latency 1
execute_latency 1
page_size 4096
block_size 64
core_0_itlb_set 16
core_0_itlb_way 4
core_0_itlb_rq_size 16
core_0_itlb_wq_size 16
core_0_itlb_pq_size 0
core_0_itlb_mshr_size 8
core_0_itlb_hit_latency 1
core_0_itlb_fill_latency 1
core_0_itlb_max_tag_check 2
core_0_itlb_max_fill 2
core_0_dtlb_set 16
core_0_dtlb_way 4
core_0_dtlb_rq_size 16
core_0_dtlb_wq_size 16
core_0_dtlb_pq_size 0
core_0_dtlb_mshr_size 8
core_0_dtlb_hit_latency 1
core_0_dtlb_fill_latency 1
core_0_dtlb_max_tag_check 2
core_0_dtlb_max_fill 2
core_0_stlb_set 128
core_0_stlb_way 12
core_0_stlb_rq_size 32
core_0_stlb_wq_size 32
core_0_stlb_pq_size 0
core_0_stlb_mshr_size 16
core_0_stlb_hit_latency 4
core_0_stlb_fill_latency 4
core_0_stlb_max_tag_check 1
core_0_stlb_max_fill 1
core_0_l1i_set 64
core_0_l1i_way 8
core_0_l1i_rq_size 64
core_0_l1i_wq_size 64
core_0_l1i_pq_size 32
core_0_l1i_mshr_size 8
core_0_l1i_hit_latency 2
core_0_l1i_fill_latency 2
core_0_l1i_max_tag_check 2
core_0_l1i_max_fill 2
core_0_l1d_set 64
core_0_l1d_way 12
core_0_l1d_rq_size 64
core_0_l1d_wq_size 64
core_0_l1d_pq_size 8
core_0_l1d_mshr_size 16
core_0_l1d_hit_latency 2
core_0_l1d_fill_latency 3
core_0_l1d_max_tag_check 2
core_0_l1d_max_fill 2
core_0_l2c_set 1024
core_0_l2c_way 8
core_0_l2c_rq_size 32
core_0_l2c_wq_size 32
core_0_l2c_pq_size 16
core_0_l2c_mshr_size 32
core_0_l2c_hit_latency 5
core_0_l2c_fill_latency 5
core_0_l2c_max_tag_check 1
core_0_l2c_max_fill 1
llc_set 2048
llc_way 16
llc_rq_size 32
llc_wq_size 32
llc_pq_size 32
llc_mshr_size 64
llc_hit_latency 10
llc_fill_latency 10
llc_max_tag_check 1
llc_max_fill 1
dram_channels 1
dram_ranks 1
dram_bankgroups 8
dram_banks 4
dram_rows 65536
dram_columns 1024
dram_channel_width 8
dram_rq_size 64
dram_wq_size 64
dram_size 17179869184
core_0_itlb_prefetcher no
core_0_dtlb_prefetcher no
core_0_stlb_prefetcher no
core_0_l1i_prefetcher next_line
core_0_l1d_prefetcher berti
core_0_l2c_prefetcher ip_stride
llc_prefetcher no
llc_replacement drrip

Core_0_instructions 50000001
Core_0_cycles 116249460
Core_0_IPC 0.43011
Core_0_branch_prediction_accuracy 100
Core_0_branch_MPKI 0
Core_0_average_ROB_occupancy_at_mispredict 0

Core_0_ITLB_total_access 6170528
Core_0_ITLB_total_hit 6170528
Core_0_ITLB_total_miss 0
Core_0_ITLB_total_MPKI 0
Core_0_ITLB_total_miss_rate 0
Core_0_ITLB_demand_access 6170528
Core_0_ITLB_demand_hit 6170528
Core_0_ITLB_demand_miss 0
Core_0_ITLB_demand_MPKI 0
Core_0_ITLB_demand_miss_rate 0
Core_0_ITLB_load_access 6170528
Core_0_ITLB_load_hit 6170528
Core_0_ITLB_load_miss 0
Core_0_ITLB_load_MPKI 0
Core_0_ITLB_load_miss_rate 0
Core_0_ITLB_rfo_access 0
Core_0_ITLB_rfo_hit 0
Core_0_ITLB_rfo_miss 0
Core_0_ITLB_rfo_MPKI 0
Core_0_ITLB_rfo_miss_rate 0
Core_0_ITLB_prefetch_access 0
Core_0_ITLB_prefetch_hit 0
Core_0_ITLB_prefetch_miss 0
Core_0_ITLB_prefetch_MPKI 0
Core_0_ITLB_prefetch_miss_rate 0
Core_0_ITLB_writeback_access 0
Core_0_ITLB_writeback_hit 0
Core_0_ITLB_writeback_miss 0
Core_0_ITLB_writeback_MPKI 0
Core_0_ITLB_writeback_miss_rate 0
Core_0_ITLB_prefetch_requested 0
Core_0_ITLB_prefetch_issued 0
Core_0_ITLB_prefetch_useful 0
Core_0_ITLB_prefetch_useless 0
Core_0_ITLB_prefetch_late 0
Core_0_ITLB_prefetch_accuracy 0
Core_0_ITLB_prefetch_coverage 0

Core_0_DTLB_total_access 10514286
Core_0_DTLB_total_hit 9763468
Core_0_DTLB_total_miss 750818
Core_0_DTLB_total_MPKI 15.0164
Core_0_DTLB_total_miss_rate 0.0714093
Core_0_DTLB_demand_access 10514286
Core_0_DTLB_demand_hit 9763468
Core_0_DTLB_demand_miss 750818
Core_0_DTLB_demand_MPKI 15.0164
Core_0_DTLB_demand_miss_rate 0.0714093
Core_0_DTLB_load_access 10514286
Core_0_DTLB_load_hit 9763468
Core_0_DTLB_load_miss 750818
Core_0_DTLB_load_MPKI 15.0164
Core_0_DTLB_load_miss_rate 0.0714093
Core_0_DTLB_rfo_access 0
Core_0_DTLB_rfo_hit 0
Core_0_DTLB_rfo_miss 0
Core_0_DTLB_rfo_MPKI 0
Core_0_DTLB_rfo_miss_rate 0
Core_0_DTLB_prefetch_access 0
Core_0_DTLB_prefetch_hit 0
Core_0_DTLB_prefetch_miss 0
Core_0_DTLB_prefetch_MPKI 0
Core_0_DTLB_prefetch_miss_rate 0
Core_0_DTLB_writeback_access 0
Core_0_DTLB_writeback_hit 0
Core_0_DTLB_writeback_miss 0
Core_0_DTLB_writeback_MPKI 0
Core_0_DTLB_writeback_miss_rate 0
Core_0_DTLB_prefetch_requested 0
Core_0_DTLB_prefetch_issued 0
Core_0_DTLB_prefetch_useful 0
Core_0_DTLB_prefetch_useless 0
Core_0_DTLB_prefetch_late 0
Core_0_DTLB_prefetch_accuracy 0
Core_0_DTLB_prefetch_coverage 0

Core_0_STLB_total_access 55804
Core_0_STLB_total_hit 0
Core_0_STLB_total_miss 55804
Core_0_STLB_total_MPKI 1.11608
Core_0_STLB_total_miss_rate 1
Core_0_STLB_demand_access 55804
Core_0_STLB_demand_hit 0
Core_0_STLB_demand_miss 55804
Core_0_STLB_demand_MPKI 1.11608
Core_0_STLB_demand_miss_rate 1
Core_0_STLB_load_access 55804
Core_0_STLB_load_hit 0
Core_0_STLB_load_miss 55804
Core_0_STLB_load_MPKI 1.11608
Core_0_STLB_load_miss_rate 1
Core_0_STLB_rfo_access 0
Core_0_STLB_rfo_hit 0
Core_0_STLB_rfo_miss 0
Core_0_STLB_rfo_MPKI 0
Core_0_STLB_rfo_miss_rate 0
Core_0_STLB_prefetch_access 0
Core_0_STLB_prefetch_hit 0
Core_0_STLB_prefetch_miss 0
Core_0_STLB_prefetch_MPKI 0
Core_0_STLB_prefetch_miss_rate 0
Core_0_STLB_writeback_access 0
Core_0_STLB_writeback_hit 0
Core_0_STLB_writeback_miss 0
Core_0_STLB_writeback_MPKI 0
Core_0_STLB_writeback_miss_rate 0
Core_0_STLB_prefetch_requested 0
Core_0_STLB_prefetch_issued 0
Core_0_STLB_prefetch_useful 0
Core_0_STLB_prefetch_useless 0
Core_0_STLB_prefetch_late 0
Core_0_STLB_prefetch_accuracy 0
Core_0_STLB_prefetch_coverage 0

Core_0_L1I_total_access 6170528
Core_0_L1I_total_hit 6170528
Core_0_L1I_total_miss 0
Core_0_L1I_total_MPKI 0
Core_0_L1I_total_miss_rate 0
Core_0_L1I_demand_access 6170528
Core_0_L1I_demand_hit 6170528
Core_0_L1I_demand_miss 0
Core_0_L1I_demand_MPKI 0
Core_0_L1I_demand_miss_rate 0
Core_0_L1I_load_access 6170528
Core_0_L1I_load_hit 6170528
Core_0_L1I_load_miss 0
Core_0_L1I_load_MPKI 0
Core_0_L1I_load_miss_rate 0
Core_0_L1I_rfo_access 0
Core_0_L1I_rfo_hit 0
Core_0_L1I_rfo_miss 0
Core_0_L1I_rfo_MPKI 0
Core_0_L1I_rfo_miss_rate 0
Core_0_L1I_prefetch_access 0
Core_0_L1I_prefetch_hit 0
Core_0_L1I_prefetch_miss 0
Core_0_L1I_prefetch_MPKI 0
Core_0_L1I_prefetch_miss_rate 0
Core_0_L1I_writeback_access 0
Core_0_L1I_writeback_hit 0
Core_0_L1I_writeback_miss 0
Core_0_L1I_writeback_MPKI 0
Core_0_L1I_writeback_miss_rate 0
Core_0_L1I_prefetch_requested 0
Core_0_L1I_prefetch_issued 0
Core_0_L1I_prefetch_useful 0
Core_0_L1I_prefetch_useless 0
Core_0_L1I_prefetch_late 0
Core_0_L1I_prefetch_accuracy 0
Core_0_L1I_prefetch_coverage 0

Core_0_L1D_total_access 11723350
Core_0_L1D_total_hit 1120381
Core_0_L1D_total_miss 10602969
Core_0_L1D_total_MPKI 212.059
Core_0_L1D_total_miss_rate 0.904432
Core_0_L1D_demand_access 3260499
Core_0_L1D_demand_hit 956932
Core_0_L1D_demand_miss 2303567
Core_0_L1D_demand_MPKI 46.0713
Core_0_L1D_demand_miss_rate 0.706508
Core_0_L1D_load_access 3260499
Core_0_L1D_load_hit 956932
Core_0_L1D_load_miss 2303567
Core_0_L1D_load_MPKI 46.0713
Core_0_L1D_load_miss_rate 0.706508
Core_0_L1D_rfo_access 0
Core_0_L1D_rfo_hit 0
Core_0_L1D_rfo_miss 0
Core_0_L1D_rfo_MPKI 0
Core_0_L1D_rfo_miss_rate 0
Core_0_L1D_prefetch_access 1319968
Core_0_L1D_prefetch_hit 102266
Core_0_L1D_prefetch_miss 1217702
Core_0_L1D_prefetch_MPKI 24.354
Core_0_L1D_prefetch_miss_rate 0.922524
Core_0_L1D_writeback_access 7142883
Core_0_L1D_writeback_hit 61183
Core_0_L1D_writeback_miss 7081700
Core_0_L1D_writeback_MPKI 141.634
Core_0_L1D_writeback_miss_rate 0.991434
Core_0_L1D_prefetch_requested 1797297
Core_0_L1D_prefetch_issued 1319968
Core_0_L1D_prefetch_useful 905383
Core_0_L1D_prefetch_useless 0
Core_0_L1D_prefetch_late 478127
Core_0_L1D_prefetch_accuracy 0.685913
Core_0_L1D_prefetch_coverage 0.282143

Core_0_L2C_total_access 8670578
Core_0_L2C_total_hit 2050773
Core_0_L2C_total_miss 6619805
Core_0_L2C_total_MPKI 132.396
Core_0_L2C_total_miss_rate 0.763479
Core_0_L2C_demand_access 2666050
Core_0_L2C_demand_hit 64230
Core_0_L2C_demand_miss 2601820
Core_0_L2C_demand_MPKI 52.0364
Core_0_L2C_demand_miss_rate 0.975908
Core_0_L2C_load_access 880329
Core_0_L2C_load_hit 64230
Core_0_L2C_load_miss 816099
Core_0_L2C_load_MPKI 16.322
Core_0_L2C_load_miss_rate 0.927039
Core_0_L2C_rfo_access 1785721
Core_0_L2C_rfo_hit 0
Core_0_L2C_rfo_miss 1785721
Core_0_L2C_rfo_MPKI 35.7144
Core_0_L2C_rfo_miss_rate 1
Core_0_L2C_prefetch_access 4218822
Core_0_L2C_prefetch_hit 200837
Core_0_L2C_prefetch_miss 4017985
Core_0_L2C_prefetch_MPKI 80.3597
Core_0_L2C_prefetch_miss_rate 0.952395
Core_0_L2C_writeback_access 1785706
Core_0_L2C_writeback_hit 1785706
Core_0_L2C_writeback_miss 0
Core_0_L2C_writeback_MPKI 0
Core_0_L2C_writeback_miss_rate 0
Core_0_L2C_prefetch_requested 3313432
Core_0_L2C_prefetch_issued 3313422
Core_0_L2C_prefetch_useful 494570
Core_0_L2C_prefetch_useless 416699
Core_0_L2C_prefetch_late 394019
Core_0_L2C_prefetch_accuracy 0.149263
Core_0_L2C_prefetch_coverage 0.159725

Core_0_LLC_total_access 6335555
Core_0_LLC_total_hit 1636375
Core_0_LLC_total_miss 4699180
Core_0_LLC_total_MPKI 93.9836
Core_0_LLC_total_miss_rate 0.741716
Core_0_LLC_demand_access 2207801
Core_0_LLC_demand_hit 25489
Core_0_LLC_demand_miss 2182312
Core_0_LLC_demand_MPKI 43.6462
Core_0_LLC_demand_miss_rate 0.988455
Core_0_LLC_load_access 422080
Core_0_LLC_load_hit 25489
Core_0_LLC_load_miss 396591
Core_0_LLC_load_MPKI 7.93182
Core_0_LLC_load_miss_rate 0.939611
Core_0_LLC_rfo_access 1785721
Core_0_LLC_rfo_hit 0
Core_0_LLC_rfo_miss 1785721
Core_0_LLC_rfo_MPKI 35.7144
Core_0_LLC_rfo_miss_rate 1
Core_0_LLC_prefetch_access 2342206
Core_0_LLC_prefetch_hit 40863
Core_0_LLC_prefetch_miss 2301343
Core_0_LLC_prefetch_MPKI 46.0269
Core_0_LLC_prefetch_miss_rate 0.982554
Core_0_LLC_writeback_access 1785548
Core_0_LLC_writeback_hit 1570023
Core_0_LLC_writeback_miss 215525
Core_0_LLC_writeback_MPKI 4.3105
Core_0_LLC_writeback_miss_rate 0.120705
Core_0_LLC_prefetch_requested 0
Core_0_LLC_prefetch_issued 0
Core_0_LLC_prefetch_useful 0
Core_0_LLC_prefetch_useless 0
Core_0_LLC_prefetch_late 0
Core_0_LLC_prefetch_accuracy 0
Core_0_LLC_prefetch_coverage 0

[DRAM Statistics]
Channel_0_RQ_row_buffer_hit 220707
Channel_0_RQ_row_buffer_miss 3357802
Channel_0_WQ_row_buffer_hit 122964
Channel_0_WQ_row_buffer_miss 1663329
Channel_0_WQ_full 0
Channel_0_dbus_congested 18494835
DRAM_total_RQ_row_buffer_hit 220707
DRAM_total_RQ_row_buffer_miss 3357802
DRAM_total_WQ_row_buffer_hit 122964
DRAM_total_WQ_row_buffer_miss 1663329
DRAM_total_WQ_full 0
DRAM_total_dbus_congested 18494835
DRAM_avg_congested_cycle 6.6881

====== DRAM_RQ_TRAFFIC ========
DRAM_RQ_READ_TRAFFIC_BREAKDOWN:
data_demand_read.count = 2077997
data_demand_read.share = 58.07%

inst_demand_read.count = 0
inst_demand_read.share = 0.00%

cache_inst_prefetch.count = 0
cache_inst_prefetch.share = 0.00%

cache_data_prefetch.count = 1493441
cache_data_prefetch.share = 41.73%

stlb_data_demand.count = 7084
stlb_data_demand.share = 0.20%

stlb_inst_demand.count = 0
stlb_inst_demand.share = 0.00%

stlb_l1i_pref.count = 0
stlb_l1i_pref.share = 0.00%

stlb_l1d_pref.count = 0
stlb_l1d_pref.share = 0.00%

DRAM_RQ_READ_TRAFFIC_SUMMARY:
cache_demand.count = 2077997
cache_demand.share = 58.07%

cache_prefetch.count = 1493441
cache_prefetch.share = 41.73%

stlb_demand.count = 7084
stlb_demand.share = 0.20%

stlb_prefetch.count = 0
stlb_prefetch.share = 0.00%

DRAM_RQ_READ_TRAFFIC_DEBUG:
total_classified_read.count = 3578522
unclassified_read.count = 0
total_read_with_other.count = 3578522

classified_plus_unclassified_check.count = 3578522
dram_rq_read_total_observed.count = 3578522
dram_rq_read_total_observed.per_1K_instructions = 71.5704

STLB_MISS_PTW_DRAM_TOUCH_BREAKDOWN:
stlb_miss_total.count = 55803

stlb_miss_touch_dram.count = 6975
stlb_miss_touch_dram.share = 12.50%

stlb_miss_no_dram_touch.count = 48828
stlb_miss_no_dram_touch.share = 87.50%

STLB_MISS_PTW_DRAM_TOUCH_DEBUG:
stlb_miss_touch_plus_no_touch.count = 55803
stlb_miss_total_check.count = 55803

======STLB miss causes ========
Core_0_STLB_miss_cause_breakdown
Core_0_STLB_cause_Demand_Data_miss 55804
Core_0_STLB_cause_Demand_Data_miss_rate 1
Core_0_STLB_cause_Demand_Instruction_miss 0
Core_0_STLB_cause_Demand_Instruction_miss_rate 0
Core_0_STLB_cause_L1D_Prefetch_miss 0
Core_0_STLB_cause_L1D_Prefetch_miss_rate 0
Core_0_STLB_cause_L1I_Prefetch_miss 0
Core_0_STLB_cause_L1I_Prefetch_miss_rate 0
Core_0_STLB_cause_Other_miss 0
Core_0_STLB_cause_Other_miss_rate 0
Core_0_STLB_Demand_miss 55804
Core_0_STLB_Demand_miss_rate 1
Core_0_STLB_L1D_Prefetch_miss 0
Core_0_STLB_L1D_Prefetch_miss_rate 0
Core_0_STLB_Other_miss 0
Core_0_STLB_Other_miss_rate 0
