[VMEM] WARNING: physical memory size is smaller than virtual memory size.

*** ChampSim Multicore Out-of-Order Simulator ***
Warmup Instructions: 20000000
Simulation Instructions: 50000000
Number of CPUs: 1
Page size: 4096
Core 0: /data2/zcq/champsim_traces_xsbench/xs.XL64hash-126B.champsimtrace.xz
 L1D Berti prefetcher
Off-chip DRAM Size: 16 GiB Channels: 1 Width: 64-bit Data Rate: 3205 MT/s
Warmup halting CPU 0 at instruction 20000003 cycle 13669561 for remainder of phase
Warmup finished CPU 0 instructions: 20000003 cycles: 13669561 cumulative IPC: 1.463 (Simulation time: 00 hr 02 min 13 sec)
Warmup complete CPU 0 instructions: 20000003 cycles: 13669561 cumulative IPC: 1.463 (Simulation time: 00 hr 02 min 13 sec)
Simulation finished CPU 0 instructions: 50000002 cycles: 243729435 cumulative IPC: 0.2051 (Simulation time: 00 hr 18 min 53 sec)
Simulation complete CPU 0 instructions: 50000002 cycles: 243729435 cumulative IPC: 0.2051 (Simulation time: 00 hr 18 min 53 sec)

ChampSim completed all CPUs

=== Simulation ===
CPU 0 runs /data2/zcq/champsim_traces_xsbench/xs.XL64hash-126B.champsimtrace.xz

Region of Interest Statistics

CPU 0 cumulative IPC: 0.2051 instructions: 50000002 cycles: 243729435
CPU 0 Branch Prediction Accuracy: 93.08% MPKI: 9.479 Average ROB Occupancy at Mispredict: 69.03
Branch type MPKI
BRANCH_DIRECT_JUMP: 0
BRANCH_INDIRECT: 0
BRANCH_CONDITIONAL: 9.479
BRANCH_DIRECT_CALL: 0
BRANCH_INDIRECT_CALL: 0
BRANCH_RETURN: 0

cpu0->cpu0_STLB TOTAL        ACCESS:     423812 HIT:       8099 MISS:     415713 MSHR_MERGE:          0
cpu0->cpu0_STLB LOAD         ACCESS:     423812 HIT:       8099 MISS:     415713 MSHR_MERGE:          0
cpu0->cpu0_STLB RFO          ACCESS:          0 HIT:          0 MISS:          0 MSHR_MERGE:          0
cpu0->cpu0_STLB PREFETCH     ACCESS:          0 HIT:          0 MISS:          0 MSHR_MERGE:          0
cpu0->cpu0_STLB WRITE        ACCESS:          0 HIT:          0 MISS:          0 MSHR_MERGE:          0
cpu0->cpu0_STLB TRANSLATION  ACCESS:          0 HIT:          0 MISS:          0 MSHR_MERGE:          0
cpu0->cpu0_STLB PREFETCH REQUESTED:          0 ISSUED:          0 USEFUL:          0 USELESS:          0 LATE:          0
cpu0->cpu0_STLB AVERAGE MISS LATENCY: 374.9 cycles
cpu0->cpu0_L2C TOTAL        ACCESS:    3565862 HIT:     305765 MISS:    3260097 MSHR_MERGE:      40403
cpu0->cpu0_L2C LOAD         ACCESS:    1981233 HIT:      30872 MISS:    1950361 MSHR_MERGE:        921
cpu0->cpu0_L2C RFO          ACCESS:       4381 HIT:       4281 MISS:        100 MSHR_MERGE:          0
cpu0->cpu0_L2C PREFETCH     ACCESS:    1052491 HIT:      92005 MISS:     960486 MSHR_MERGE:      39482
cpu0->cpu0_L2C WRITE        ACCESS:       7672 HIT:       7569 MISS:        103 MSHR_MERGE:          0
cpu0->cpu0_L2C TRANSLATION  ACCESS:     520085 HIT:     171038 MISS:     349047 MSHR_MERGE:          0
cpu0->cpu0_L2C PREFETCH REQUESTED:     219642 ISSUED:     219642 USEFUL:      13787 USELESS:     121014 LATE:        921
cpu0->cpu0_L2C AVERAGE MISS LATENCY: 227.4 cycles
cpu0->cpu0_L1I TOTAL        ACCESS:     221326 HIT:     221326 MISS:          0 MSHR_MERGE:          0
cpu0->cpu0_L1I LOAD         ACCESS:     221326 HIT:     221326 MISS:          0 MSHR_MERGE:          0
cpu0->cpu0_L1I RFO          ACCESS:          0 HIT:          0 MISS:          0 MSHR_MERGE:          0
cpu0->cpu0_L1I PREFETCH     ACCESS:          0 HIT:          0 MISS:          0 MSHR_MERGE:          0
cpu0->cpu0_L1I WRITE        ACCESS:          0 HIT:          0 MISS:          0 MSHR_MERGE:          0
cpu0->cpu0_L1I TRANSLATION  ACCESS:          0 HIT:          0 MISS:          0 MSHR_MERGE:          0
cpu0->cpu0_L1I PREFETCH REQUESTED:          0 ISSUED:          0 USEFUL:          0 USELESS:          0 LATE:          0
cpu0->cpu0_L1I AVERAGE MISS LATENCY: - cycles
cpu0->cpu0_L1D TOTAL        ACCESS:   11190113 HIT:    7134183 MISS:    4055930 MSHR_MERGE:     717338
cpu0->cpu0_L1D LOAD         ACCESS:    7330160 HIT:    4811431 MISS:    2518729 MSHR_MERGE:     537496
cpu0->cpu0_L1D RFO          ACCESS:          0 HIT:          0 MISS:          0 MSHR_MERGE:          0
cpu0->cpu0_L1D PREFETCH     ACCESS:     980036 HIT:      63046 MISS:     916990 MSHR_MERGE:      84141
cpu0->cpu0_L1D WRITE        ACCESS:    1764934 HIT:    1746649 MISS:      18285 MSHR_MERGE:      13860
cpu0->cpu0_L1D TRANSLATION  ACCESS:    1114983 HIT:     513057 MISS:     601926 MSHR_MERGE:      81841
cpu0->cpu0_L1D PREFETCH REQUESTED:     980115 ISSUED:     980036 USEFUL:     157071 USELESS:     675632 LATE:      21937
cpu0->cpu0_L1D AVERAGE MISS LATENCY: 217.5 cycles
cpu0->cpu0_ITLB TOTAL        ACCESS:     183943 HIT:     183943 MISS:          0 MSHR_MERGE:          0
cpu0->cpu0_ITLB LOAD         ACCESS:     183943 HIT:     183943 MISS:          0 MSHR_MERGE:          0
cpu0->cpu0_ITLB RFO          ACCESS:          0 HIT:          0 MISS:          0 MSHR_MERGE:          0
cpu0->cpu0_ITLB PREFETCH     ACCESS:          0 HIT:          0 MISS:          0 MSHR_MERGE:          0
cpu0->cpu0_ITLB WRITE        ACCESS:          0 HIT:          0 MISS:          0 MSHR_MERGE:          0
cpu0->cpu0_ITLB TRANSLATION  ACCESS:          0 HIT:          0 MISS:          0 MSHR_MERGE:          0
cpu0->cpu0_ITLB PREFETCH REQUESTED:          0 ISSUED:          0 USEFUL:          0 USELESS:          0 LATE:          0
cpu0->cpu0_ITLB AVERAGE MISS LATENCY: - cycles
cpu0->cpu0_DTLB TOTAL        ACCESS:    9641286 HIT:    7877299 MISS:    1763987 MSHR_MERGE:    1340175
cpu0->cpu0_DTLB LOAD         ACCESS:    9641286 HIT:    7877299 MISS:    1763987 MSHR_MERGE:    1340175
cpu0->cpu0_DTLB RFO          ACCESS:          0 HIT:          0 MISS:          0 MSHR_MERGE:          0
cpu0->cpu0_DTLB PREFETCH     ACCESS:          0 HIT:          0 MISS:          0 MSHR_MERGE:          0
cpu0->cpu0_DTLB WRITE        ACCESS:          0 HIT:          0 MISS:          0 MSHR_MERGE:          0
cpu0->cpu0_DTLB TRANSLATION  ACCESS:          0 HIT:          0 MISS:          0 MSHR_MERGE:          0
cpu0->cpu0_DTLB PREFETCH REQUESTED:          0 ISSUED:          0 USEFUL:          0 USELESS:          0 LATE:          0
cpu0->cpu0_DTLB AVERAGE MISS LATENCY: 373.8 cycles
cpu0->LLC TOTAL        ACCESS:    3220465 HIT:      57277 MISS:    3163188 MSHR_MERGE:        126
cpu0->LLC LOAD         ACCESS:    1949440 HIT:       6751 MISS:    1942689 MSHR_MERGE:         22
cpu0->LLC RFO          ACCESS:        100 HIT:        100 MISS:          0 MSHR_MERGE:          0
cpu0->LLC PREFETCH     ACCESS:     921004 HIT:      10372 MISS:     910632 MSHR_MERGE:        104
cpu0->LLC WRITE        ACCESS:        874 HIT:        872 MISS:          2 MSHR_MERGE:          0
cpu0->LLC TRANSLATION  ACCESS:     349047 HIT:      39182 MISS:     309865 MSHR_MERGE:          0
cpu0->LLC PREFETCH REQUESTED:          0 ISSUED:          0 USEFUL:          0 USELESS:          0 LATE:          0
cpu0->LLC AVERAGE MISS LATENCY: 215.8 cycles

DRAM Statistics

Channel 0 RQ ROW_BUFFER_HIT:        748
  ROW_BUFFER_MISS:    3162308
  AVG DBUS CONGESTED CYCLE: 3.035
Channel 0 WQ ROW_BUFFER_HIT:          1
  ROW_BUFFER_MISS:          1
  FULL:          0
Channel 0 REFRESHES ISSUED:      20310

[ROI Statistics]
[System Configuration]
num_cpus 1
cpu_freq 4000
fetch_width 6
decode_width 6
dispatch_width 6
execute_width 6
lq_width 2
sq_width 2
retire_width 6
scheduler_size 128
branch_mispredict_penalty 15
rob_size 352
lq_size 128
sq_size 72
ifetch_buffer_size 64
decode_buffer_size 32
dispatch_buffer_size 32
register_file_size 288
decode_latency 1
dispatch_latency 1
schedule_latency 1
execute_latency 1
page_size 4096
block_size 64
core_0_itlb_set 16
core_0_itlb_way 4
core_0_itlb_rq_size 16
core_0_itlb_wq_size 16
core_0_itlb_pq_size 0
core_0_itlb_mshr_size 8
core_0_itlb_hit_latency 1
core_0_itlb_fill_latency 1
core_0_itlb_max_tag_check 2
core_0_itlb_max_fill 2
core_0_dtlb_set 16
core_0_dtlb_way 4
core_0_dtlb_rq_size 16
core_0_dtlb_wq_size 16
core_0_dtlb_pq_size 0
core_0_dtlb_mshr_size 8
core_0_dtlb_hit_latency 1
core_0_dtlb_fill_latency 1
core_0_dtlb_max_tag_check 2
core_0_dtlb_max_fill 2
core_0_stlb_set 128
core_0_stlb_way 12
core_0_stlb_rq_size 32
core_0_stlb_wq_size 32
core_0_stlb_pq_size 0
core_0_stlb_mshr_size 16
core_0_stlb_hit_latency 4
core_0_stlb_fill_latency 4
core_0_stlb_max_tag_check 1
core_0_stlb_max_fill 1
core_0_l1i_set 64
core_0_l1i_way 8
core_0_l1i_rq_size 64
core_0_l1i_wq_size 64
core_0_l1i_pq_size 32
core_0_l1i_mshr_size 8
core_0_l1i_hit_latency 2
core_0_l1i_fill_latency 2
core_0_l1i_max_tag_check 2
core_0_l1i_max_fill 2
core_0_l1d_set 64
core_0_l1d_way 12
core_0_l1d_rq_size 64
core_0_l1d_wq_size 64
core_0_l1d_pq_size 8
core_0_l1d_mshr_size 16
core_0_l1d_hit_latency 2
core_0_l1d_fill_latency 3
core_0_l1d_max_tag_check 2
core_0_l1d_max_fill 2
core_0_l2c_set 1024
core_0_l2c_way 8
core_0_l2c_rq_size 32
core_0_l2c_wq_size 32
core_0_l2c_pq_size 16
core_0_l2c_mshr_size 32
core_0_l2c_hit_latency 5
core_0_l2c_fill_latency 5
core_0_l2c_max_tag_check 1
core_0_l2c_max_fill 1
llc_set 2048
llc_way 16
llc_rq_size 32
llc_wq_size 32
llc_pq_size 32
llc_mshr_size 64
llc_hit_latency 10
llc_fill_latency 10
llc_max_tag_check 1
llc_max_fill 1
dram_channels 1
dram_ranks 1
dram_bankgroups 8
dram_banks 4
dram_rows 65536
dram_columns 1024
dram_channel_width 8
dram_rq_size 64
dram_wq_size 64
dram_size 17179869184
core_0_itlb_prefetcher no
core_0_dtlb_prefetcher no
core_0_stlb_prefetcher no
core_0_l1i_prefetcher next_line
core_0_l1d_prefetcher berti
core_0_l2c_prefetcher ip_stride
llc_prefetcher no
llc_replacement drrip

Core_0_instructions 50000002
Core_0_cycles 243729435
Core_0_IPC 0.205146
Core_0_branch_prediction_accuracy 93.0849
Core_0_branch_MPKI 9.47912
Core_0_average_ROB_occupancy_at_mispredict 69.0347

Core_0_ITLB_total_access 183943
Core_0_ITLB_total_hit 183943
Core_0_ITLB_total_miss 0
Core_0_ITLB_total_MPKI 0
Core_0_ITLB_total_miss_rate 0
Core_0_ITLB_demand_access 183943
Core_0_ITLB_demand_hit 183943
Core_0_ITLB_demand_miss 0
Core_0_ITLB_demand_MPKI 0
Core_0_ITLB_demand_miss_rate 0
Core_0_ITLB_load_access 183943
Core_0_ITLB_load_hit 183943
Core_0_ITLB_load_miss 0
Core_0_ITLB_load_MPKI 0
Core_0_ITLB_load_miss_rate 0
Core_0_ITLB_rfo_access 0
Core_0_ITLB_rfo_hit 0
Core_0_ITLB_rfo_miss 0
Core_0_ITLB_rfo_MPKI 0
Core_0_ITLB_rfo_miss_rate 0
Core_0_ITLB_prefetch_access 0
Core_0_ITLB_prefetch_hit 0
Core_0_ITLB_prefetch_miss 0
Core_0_ITLB_prefetch_MPKI 0
Core_0_ITLB_prefetch_miss_rate 0
Core_0_ITLB_writeback_access 0
Core_0_ITLB_writeback_hit 0
Core_0_ITLB_writeback_miss 0
Core_0_ITLB_writeback_MPKI 0
Core_0_ITLB_writeback_miss_rate 0
Core_0_ITLB_prefetch_requested 0
Core_0_ITLB_prefetch_issued 0
Core_0_ITLB_prefetch_useful 0
Core_0_ITLB_prefetch_useless 0
Core_0_ITLB_prefetch_late 0
Core_0_ITLB_prefetch_accuracy 0
Core_0_ITLB_prefetch_coverage 0

Core_0_DTLB_total_access 9641286
Core_0_DTLB_total_hit 7877299
Core_0_DTLB_total_miss 1763987
Core_0_DTLB_total_MPKI 35.2797
Core_0_DTLB_total_miss_rate 0.182962
Core_0_DTLB_demand_access 9641286
Core_0_DTLB_demand_hit 7877299
Core_0_DTLB_demand_miss 1763987
Core_0_DTLB_demand_MPKI 35.2797
Core_0_DTLB_demand_miss_rate 0.182962
Core_0_DTLB_load_access 9641286
Core_0_DTLB_load_hit 7877299
Core_0_DTLB_load_miss 1763987
Core_0_DTLB_load_MPKI 35.2797
Core_0_DTLB_load_miss_rate 0.182962
Core_0_DTLB_rfo_access 0
Core_0_DTLB_rfo_hit 0
Core_0_DTLB_rfo_miss 0
Core_0_DTLB_rfo_MPKI 0
Core_0_DTLB_rfo_miss_rate 0
Core_0_DTLB_prefetch_access 0
Core_0_DTLB_prefetch_hit 0
Core_0_DTLB_prefetch_miss 0
Core_0_DTLB_prefetch_MPKI 0
Core_0_DTLB_prefetch_miss_rate 0
Core_0_DTLB_writeback_access 0
Core_0_DTLB_writeback_hit 0
Core_0_DTLB_writeback_miss 0
Core_0_DTLB_writeback_MPKI 0
Core_0_DTLB_writeback_miss_rate 0
Core_0_DTLB_prefetch_requested 0
Core_0_DTLB_prefetch_issued 0
Core_0_DTLB_prefetch_useful 0
Core_0_DTLB_prefetch_useless 0
Core_0_DTLB_prefetch_late 0
Core_0_DTLB_prefetch_accuracy 0
Core_0_DTLB_prefetch_coverage 0

Core_0_STLB_total_access 423812
Core_0_STLB_total_hit 8099
Core_0_STLB_total_miss 415713
Core_0_STLB_total_MPKI 8.31426
Core_0_STLB_total_miss_rate 0.98089
Core_0_STLB_demand_access 423812
Core_0_STLB_demand_hit 8099
Core_0_STLB_demand_miss 415713
Core_0_STLB_demand_MPKI 8.31426
Core_0_STLB_demand_miss_rate 0.98089
Core_0_STLB_load_access 423812
Core_0_STLB_load_hit 8099
Core_0_STLB_load_miss 415713
Core_0_STLB_load_MPKI 8.31426
Core_0_STLB_load_miss_rate 0.98089
Core_0_STLB_rfo_access 0
Core_0_STLB_rfo_hit 0
Core_0_STLB_rfo_miss 0
Core_0_STLB_rfo_MPKI 0
Core_0_STLB_rfo_miss_rate 0
Core_0_STLB_prefetch_access 0
Core_0_STLB_prefetch_hit 0
Core_0_STLB_prefetch_miss 0
Core_0_STLB_prefetch_MPKI 0
Core_0_STLB_prefetch_miss_rate 0
Core_0_STLB_writeback_access 0
Core_0_STLB_writeback_hit 0
Core_0_STLB_writeback_miss 0
Core_0_STLB_writeback_MPKI 0
Core_0_STLB_writeback_miss_rate 0
Core_0_STLB_prefetch_requested 0
Core_0_STLB_prefetch_issued 0
Core_0_STLB_prefetch_useful 0
Core_0_STLB_prefetch_useless 0
Core_0_STLB_prefetch_late 0
Core_0_STLB_prefetch_accuracy 0
Core_0_STLB_prefetch_coverage 0

Core_0_L1I_total_access 221326
Core_0_L1I_total_hit 221326
Core_0_L1I_total_miss 0
Core_0_L1I_total_MPKI 0
Core_0_L1I_total_miss_rate 0
Core_0_L1I_demand_access 221326
Core_0_L1I_demand_hit 221326
Core_0_L1I_demand_miss 0
Core_0_L1I_demand_MPKI 0
Core_0_L1I_demand_miss_rate 0
Core_0_L1I_load_access 221326
Core_0_L1I_load_hit 221326
Core_0_L1I_load_miss 0
Core_0_L1I_load_MPKI 0
Core_0_L1I_load_miss_rate 0
Core_0_L1I_rfo_access 0
Core_0_L1I_rfo_hit 0
Core_0_L1I_rfo_miss 0
Core_0_L1I_rfo_MPKI 0
Core_0_L1I_rfo_miss_rate 0
Core_0_L1I_prefetch_access 0
Core_0_L1I_prefetch_hit 0
Core_0_L1I_prefetch_miss 0
Core_0_L1I_prefetch_MPKI 0
Core_0_L1I_prefetch_miss_rate 0
Core_0_L1I_writeback_access 0
Core_0_L1I_writeback_hit 0
Core_0_L1I_writeback_miss 0
Core_0_L1I_writeback_MPKI 0
Core_0_L1I_writeback_miss_rate 0
Core_0_L1I_prefetch_requested 0
Core_0_L1I_prefetch_issued 0
Core_0_L1I_prefetch_useful 0
Core_0_L1I_prefetch_useless 0
Core_0_L1I_prefetch_late 0
Core_0_L1I_prefetch_accuracy 0
Core_0_L1I_prefetch_coverage 0

Core_0_L1D_total_access 10075130
Core_0_L1D_total_hit 6621126
Core_0_L1D_total_miss 3454004
Core_0_L1D_total_MPKI 69.0801
Core_0_L1D_total_miss_rate 0.342825
Core_0_L1D_demand_access 7330160
Core_0_L1D_demand_hit 4811431
Core_0_L1D_demand_miss 2518729
Core_0_L1D_demand_MPKI 50.3746
Core_0_L1D_demand_miss_rate 0.343612
Core_0_L1D_load_access 7330160
Core_0_L1D_load_hit 4811431
Core_0_L1D_load_miss 2518729
Core_0_L1D_load_MPKI 50.3746
Core_0_L1D_load_miss_rate 0.343612
Core_0_L1D_rfo_access 0
Core_0_L1D_rfo_hit 0
Core_0_L1D_rfo_miss 0
Core_0_L1D_rfo_MPKI 0
Core_0_L1D_rfo_miss_rate 0
Core_0_L1D_prefetch_access 980036
Core_0_L1D_prefetch_hit 63046
Core_0_L1D_prefetch_miss 916990
Core_0_L1D_prefetch_MPKI 18.3398
Core_0_L1D_prefetch_miss_rate 0.93567
Core_0_L1D_writeback_access 1764934
Core_0_L1D_writeback_hit 1746649
Core_0_L1D_writeback_miss 18285
Core_0_L1D_writeback_MPKI 0.3657
Core_0_L1D_writeback_miss_rate 0.0103602
Core_0_L1D_prefetch_requested 980115
Core_0_L1D_prefetch_issued 980036
Core_0_L1D_prefetch_useful 157071
Core_0_L1D_prefetch_useless 675632
Core_0_L1D_prefetch_late 21937
Core_0_L1D_prefetch_accuracy 0.160271
Core_0_L1D_prefetch_coverage 0.0587006

Core_0_L2C_total_access 3045777
Core_0_L2C_total_hit 134727
Core_0_L2C_total_miss 2911050
Core_0_L2C_total_MPKI 58.221
Core_0_L2C_total_miss_rate 0.955766
Core_0_L2C_demand_access 1985614
Core_0_L2C_demand_hit 35153
Core_0_L2C_demand_miss 1950461
Core_0_L2C_demand_MPKI 39.0092
Core_0_L2C_demand_miss_rate 0.982296
Core_0_L2C_load_access 1981233
Core_0_L2C_load_hit 30872
Core_0_L2C_load_miss 1950361
Core_0_L2C_load_MPKI 39.0072
Core_0_L2C_load_miss_rate 0.984418
Core_0_L2C_rfo_access 4381
Core_0_L2C_rfo_hit 4281
Core_0_L2C_rfo_miss 100
Core_0_L2C_rfo_MPKI 0.002
Core_0_L2C_rfo_miss_rate 0.0228258
Core_0_L2C_prefetch_access 1052491
Core_0_L2C_prefetch_hit 92005
Core_0_L2C_prefetch_miss 960486
Core_0_L2C_prefetch_MPKI 19.2097
Core_0_L2C_prefetch_miss_rate 0.912584
Core_0_L2C_writeback_access 7672
Core_0_L2C_writeback_hit 7569
Core_0_L2C_writeback_miss 103
Core_0_L2C_writeback_MPKI 0.00206
Core_0_L2C_writeback_miss_rate 0.0134254
Core_0_L2C_prefetch_requested 219642
Core_0_L2C_prefetch_issued 219642
Core_0_L2C_prefetch_useful 13787
Core_0_L2C_prefetch_useless 121014
Core_0_L2C_prefetch_late 921
Core_0_L2C_prefetch_accuracy 0.0627703
Core_0_L2C_prefetch_coverage 0.00701897

Core_0_LLC_total_access 2871418
Core_0_LLC_total_hit 18095
Core_0_LLC_total_miss 2853323
Core_0_LLC_total_MPKI 57.0665
Core_0_LLC_total_miss_rate 0.993698
Core_0_LLC_demand_access 1949540
Core_0_LLC_demand_hit 6851
Core_0_LLC_demand_miss 1942689
Core_0_LLC_demand_MPKI 38.8538
Core_0_LLC_demand_miss_rate 0.996486
Core_0_LLC_load_access 1949440
Core_0_LLC_load_hit 6751
Core_0_LLC_load_miss 1942689
Core_0_LLC_load_MPKI 38.8538
Core_0_LLC_load_miss_rate 0.996537
Core_0_LLC_rfo_access 100
Core_0_LLC_rfo_hit 100
Core_0_LLC_rfo_miss 0
Core_0_LLC_rfo_MPKI 0
Core_0_LLC_rfo_miss_rate 0
Core_0_LLC_prefetch_access 921004
Core_0_LLC_prefetch_hit 10372
Core_0_LLC_prefetch_miss 910632
Core_0_LLC_prefetch_MPKI 18.2126
Core_0_LLC_prefetch_miss_rate 0.988738
Core_0_LLC_writeback_access 874
Core_0_LLC_writeback_hit 872
Core_0_LLC_writeback_miss 2
Core_0_LLC_writeback_MPKI 4e-05
Core_0_LLC_writeback_miss_rate 0.00228833
Core_0_LLC_prefetch_requested 0
Core_0_LLC_prefetch_issued 0
Core_0_LLC_prefetch_useful 0
Core_0_LLC_prefetch_useless 0
Core_0_LLC_prefetch_late 0
Core_0_LLC_prefetch_accuracy 0
Core_0_LLC_prefetch_coverage 0

[DRAM Statistics]
Channel_0_RQ_row_buffer_hit 748
Channel_0_RQ_row_buffer_miss 3162308
Channel_0_WQ_row_buffer_hit 1
Channel_0_WQ_row_buffer_miss 1
Channel_0_WQ_full 0
Channel_0_dbus_congested 6060509
DRAM_total_RQ_row_buffer_hit 748
DRAM_total_RQ_row_buffer_miss 3162308
DRAM_total_WQ_row_buffer_hit 1
DRAM_total_WQ_row_buffer_miss 1
DRAM_total_WQ_full 0
DRAM_total_dbus_congested 6060509
DRAM_avg_congested_cycle 3.03498

====== DRAM_RQ_TRAFFIC ========
DRAM_RQ_READ_TRAFFIC_BREAKDOWN:
data_demand_read.count = 1942667
data_demand_read.share = 61.42%

inst_demand_read.count = 0
inst_demand_read.share = 0.00%

cache_inst_prefetch.count = 0
cache_inst_prefetch.share = 0.00%

cache_data_prefetch.count = 910528
cache_data_prefetch.share = 28.79%

stlb_data_demand.count = 309224
stlb_data_demand.share = 9.78%

stlb_inst_demand.count = 0
stlb_inst_demand.share = 0.00%

stlb_l1i_pref.count = 0
stlb_l1i_pref.share = 0.00%

stlb_l1d_pref.count = 641
stlb_l1d_pref.share = 0.02%

DRAM_RQ_READ_TRAFFIC_SUMMARY:
cache_demand.count = 1942667
cache_demand.share = 61.42%

cache_prefetch.count = 910528
cache_prefetch.share = 28.79%

stlb_demand.count = 309224
stlb_demand.share = 9.78%

stlb_prefetch.count = 641
stlb_prefetch.share = 0.02%

DRAM_RQ_READ_TRAFFIC_DEBUG:
total_classified_read.count = 3163060
unclassified_read.count = 0
total_read_with_other.count = 3163060

classified_plus_unclassified_check.count = 3163060
dram_rq_read_total_observed.count = 3163060
dram_rq_read_total_observed.per_1K_instructions = 63.2612

STLB_MISS_PTW_DRAM_TOUCH_BREAKDOWN:
stlb_miss_total.count = 415713

stlb_miss_touch_dram.count = 354097
stlb_miss_touch_dram.share = 85.18%

stlb_miss_no_dram_touch.count = 61616
stlb_miss_no_dram_touch.share = 14.82%

STLB_MISS_PTW_DRAM_TOUCH_DEBUG:
stlb_miss_touch_plus_no_touch.count = 415713
stlb_miss_total_check.count = 415713

======STLB miss causes ========
Core_0_STLB_miss_cause_breakdown
Core_0_STLB_cause_Demand_Data_miss 410619
Core_0_STLB_cause_Demand_Data_miss_rate 0.968871
Core_0_STLB_cause_Demand_Instruction_miss 0
Core_0_STLB_cause_Demand_Instruction_miss_rate 0
Core_0_STLB_cause_L1D_Prefetch_miss 5094
Core_0_STLB_cause_L1D_Prefetch_miss_rate 0.0120195
Core_0_STLB_cause_L1I_Prefetch_miss 0
Core_0_STLB_cause_L1I_Prefetch_miss_rate 0
Core_0_STLB_cause_Other_miss 0
Core_0_STLB_cause_Other_miss_rate 0
Core_0_STLB_Demand_miss 410619
Core_0_STLB_Demand_miss_rate 0.968871
Core_0_STLB_L1D_Prefetch_miss 5094
Core_0_STLB_L1D_Prefetch_miss_rate 0.0120195
Core_0_STLB_Other_miss 0
Core_0_STLB_Other_miss_rate 0
