[VMEM] WARNING: physical memory size is smaller than virtual memory size.

*** ChampSim Multicore Out-of-Order Simulator ***
Warmup Instructions: 20000000
Simulation Instructions: 50000000
Number of CPUs: 1
Page size: 4096
Core 0: /data0/tzh/champsim_traces/SPEC17/654.roms_s-294B.champsimtrace.xz
Off-chip DRAM Size: 4 GiB Channels: 1 Width: 64-bit Data Rate: 3205 MT/s
Warmup halting CPU 0 at instruction 20000005 cycle 4366409 for remainder of phase
Warmup finished CPU 0 instructions: 20000005 cycles: 4366409 cumulative IPC: 4.58 (Simulation time: 00 hr 00 min 56 sec)
Warmup complete CPU 0 instructions: 20000005 cycles: 4366409 cumulative IPC: 4.58 (Simulation time: 00 hr 00 min 56 sec)
Simulation finished CPU 0 instructions: 50000003 cycles: 42504995 cumulative IPC: 1.176 (Simulation time: 00 hr 07 min 26 sec)
Simulation complete CPU 0 instructions: 50000003 cycles: 42504995 cumulative IPC: 1.176 (Simulation time: 00 hr 07 min 26 sec)

ChampSim completed all CPUs

=== Simulation ===
CPU 0 runs /data0/tzh/champsim_traces/SPEC17/654.roms_s-294B.champsimtrace.xz

Region of Interest Statistics

CPU 0 cumulative IPC: 1.176 instructions: 50000003 cycles: 42504995
CPU 0 Branch Prediction Accuracy: 99.93% MPKI: 0.03674 Average ROB Occupancy at Mispredict: 324.4
Branch type MPKI
BRANCH_DIRECT_JUMP: 0
BRANCH_INDIRECT: 0
BRANCH_CONDITIONAL: 0.03674
BRANCH_DIRECT_CALL: 0
BRANCH_INDIRECT_CALL: 0
BRANCH_RETURN: 0

cpu0->cpu0_STLB TOTAL        ACCESS:      19730 HIT:       3304 MISS:      16426 MSHR_MERGE:          0
cpu0->cpu0_STLB LOAD         ACCESS:      19730 HIT:       3304 MISS:      16426 MSHR_MERGE:          0
cpu0->cpu0_STLB RFO          ACCESS:          0 HIT:          0 MISS:          0 MSHR_MERGE:          0
cpu0->cpu0_STLB PREFETCH     ACCESS:          0 HIT:          0 MISS:          0 MSHR_MERGE:          0
cpu0->cpu0_STLB WRITE        ACCESS:          0 HIT:          0 MISS:          0 MSHR_MERGE:          0
cpu0->cpu0_STLB TRANSLATION  ACCESS:          0 HIT:          0 MISS:          0 MSHR_MERGE:          0
cpu0->cpu0_STLB PREFETCH REQUESTED:          0 ISSUED:          0 USEFUL:          0 USELESS:          0 LATE:          0
cpu0->cpu0_STLB AVERAGE MISS LATENCY: 298.4 cycles
cpu0->cpu0_L2C TOTAL        ACCESS:     673667 HIT:      13787 MISS:     659880 MSHR_MERGE:          0
cpu0->cpu0_L2C LOAD         ACCESS:     644481 HIT:       8073 MISS:     636408 MSHR_MERGE:          0
cpu0->cpu0_L2C RFO          ACCESS:       5210 HIT:          0 MISS:       5210 MSHR_MERGE:          0
cpu0->cpu0_L2C PREFETCH     ACCESS:          0 HIT:          0 MISS:          0 MSHR_MERGE:          0
cpu0->cpu0_L2C WRITE        ACCESS:      10340 HIT:       5541 MISS:       4799 MSHR_MERGE:          0
cpu0->cpu0_L2C TRANSLATION  ACCESS:      13636 HIT:        173 MISS:      13463 MSHR_MERGE:          0
cpu0->cpu0_L2C PREFETCH REQUESTED:          0 ISSUED:          0 USEFUL:          0 USELESS:          0 LATE:          0
cpu0->cpu0_L2C AVERAGE MISS LATENCY: 191.5 cycles
cpu0->cpu0_L1I TOTAL        ACCESS:    9495823 HIT:    9495823 MISS:          0 MSHR_MERGE:          0
cpu0->cpu0_L1I LOAD         ACCESS:    9495823 HIT:    9495823 MISS:          0 MSHR_MERGE:          0
cpu0->cpu0_L1I RFO          ACCESS:          0 HIT:          0 MISS:          0 MSHR_MERGE:          0
cpu0->cpu0_L1I PREFETCH     ACCESS:          0 HIT:          0 MISS:          0 MSHR_MERGE:          0
cpu0->cpu0_L1I WRITE        ACCESS:          0 HIT:          0 MISS:          0 MSHR_MERGE:          0
cpu0->cpu0_L1I TRANSLATION  ACCESS:          0 HIT:          0 MISS:          0 MSHR_MERGE:          0
cpu0->cpu0_L1I PREFETCH REQUESTED:          0 ISSUED:          0 USEFUL:          0 USELESS:          0 LATE:          0
cpu0->cpu0_L1I AVERAGE MISS LATENCY: - cycles
cpu0->cpu0_L1D TOTAL        ACCESS:   14628216 HIT:   12462449 MISS:    2165767 MSHR_MERGE:    1502439
cpu0->cpu0_L1D LOAD         ACCESS:   12887235 HIT:   10765726 MISS:    2121509 MSHR_MERGE:    1477027
cpu0->cpu0_L1D RFO          ACCESS:          0 HIT:          0 MISS:          0 MSHR_MERGE:          0
cpu0->cpu0_L1D PREFETCH     ACCESS:          0 HIT:          0 MISS:          0 MSHR_MERGE:          0
cpu0->cpu0_L1D WRITE        ACCESS:    1699870 HIT:    1669285 MISS:      30585 MSHR_MERGE:      25375
cpu0->cpu0_L1D TRANSLATION  ACCESS:      41111 HIT:      27438 MISS:      13673 MSHR_MERGE:         37
cpu0->cpu0_L1D PREFETCH REQUESTED:          0 ISSUED:          0 USEFUL:          0 USELESS:          0 LATE:          0
cpu0->cpu0_L1D AVERAGE MISS LATENCY: 199.5 cycles
cpu0->cpu0_ITLB TOTAL        ACCESS:    7976987 HIT:    7976987 MISS:          0 MSHR_MERGE:          0
cpu0->cpu0_ITLB LOAD         ACCESS:    7976987 HIT:    7976987 MISS:          0 MSHR_MERGE:          0
cpu0->cpu0_ITLB RFO          ACCESS:          0 HIT:          0 MISS:          0 MSHR_MERGE:          0
cpu0->cpu0_ITLB PREFETCH     ACCESS:          0 HIT:          0 MISS:          0 MSHR_MERGE:          0
cpu0->cpu0_ITLB WRITE        ACCESS:          0 HIT:          0 MISS:          0 MSHR_MERGE:          0
cpu0->cpu0_ITLB TRANSLATION  ACCESS:          0 HIT:          0 MISS:          0 MSHR_MERGE:          0
cpu0->cpu0_ITLB PREFETCH REQUESTED:          0 ISSUED:          0 USEFUL:          0 USELESS:          0 LATE:          0
cpu0->cpu0_ITLB AVERAGE MISS LATENCY: - cycles
cpu0->cpu0_DTLB TOTAL        ACCESS:   14357332 HIT:   14293152 MISS:      64180 MSHR_MERGE:      44450
cpu0->cpu0_DTLB LOAD         ACCESS:   14357332 HIT:   14293152 MISS:      64180 MSHR_MERGE:      44450
cpu0->cpu0_DTLB RFO          ACCESS:          0 HIT:          0 MISS:          0 MSHR_MERGE:          0
cpu0->cpu0_DTLB PREFETCH     ACCESS:          0 HIT:          0 MISS:          0 MSHR_MERGE:          0
cpu0->cpu0_DTLB WRITE        ACCESS:          0 HIT:          0 MISS:          0 MSHR_MERGE:          0
cpu0->cpu0_DTLB TRANSLATION  ACCESS:          0 HIT:          0 MISS:          0 MSHR_MERGE:          0
cpu0->cpu0_DTLB PREFETCH REQUESTED:          0 ISSUED:          0 USEFUL:          0 USELESS:          0 LATE:          0
cpu0->cpu0_DTLB AVERAGE MISS LATENCY: 254.3 cycles
cpu0->LLC TOTAL        ACCESS:     661583 HIT:      95979 MISS:     565604 MSHR_MERGE:          0
cpu0->LLC LOAD         ACCESS:     636405 HIT:      83184 MISS:     553221 MSHR_MERGE:          0
cpu0->LLC RFO          ACCESS:       5210 HIT:         38 MISS:       5172 MSHR_MERGE:          0
cpu0->LLC PREFETCH     ACCESS:          0 HIT:          0 MISS:          0 MSHR_MERGE:          0
cpu0->LLC WRITE        ACCESS:       6505 HIT:       4425 MISS:       2080 MSHR_MERGE:          0
cpu0->LLC TRANSLATION  ACCESS:      13463 HIT:       8332 MISS:       5131 MSHR_MERGE:          0
cpu0->LLC PREFETCH REQUESTED:          0 ISSUED:          0 USEFUL:          0 USELESS:          0 LATE:          0
cpu0->LLC AVERAGE MISS LATENCY: 205.1 cycles

DRAM Statistics

Channel 0 RQ ROW_BUFFER_HIT:        490
  ROW_BUFFER_MISS:     563033
  AVG DBUS CONGESTED CYCLE: 7.798
Channel 0 WQ ROW_BUFFER_HIT:       1171
  ROW_BUFFER_MISS:       3980
  FULL:          0
Channel 0 REFRESHES ISSUED:       3542

[ROI Statistics]
[System Configuration]
num_cpus 1
cpu_freq 4000
fetch_width 6
decode_width 6
dispatch_width 6
execute_width 6
lq_width 2
sq_width 2
retire_width 6
scheduler_size 160
branch_mispredict_penalty 1
rob_size 352
lq_size 240
sq_size 112
ifetch_buffer_size 64
decode_buffer_size 32
dispatch_buffer_size 32
register_file_size 288
decode_latency 1
dispatch_latency 1
schedule_latency 0
execute_latency 0
page_size 4096
block_size 64
core_0_itlb_set 16
core_0_itlb_way 4
core_0_itlb_rq_size 16
core_0_itlb_wq_size 16
core_0_itlb_pq_size 0
core_0_itlb_mshr_size 8
core_0_itlb_hit_latency 1
core_0_itlb_fill_latency 1
core_0_itlb_max_tag_check 2
core_0_itlb_max_fill 2
core_0_dtlb_set 16
core_0_dtlb_way 4
core_0_dtlb_rq_size 16
core_0_dtlb_wq_size 16
core_0_dtlb_pq_size 0
core_0_dtlb_mshr_size 8
core_0_dtlb_hit_latency 1
core_0_dtlb_fill_latency 1
core_0_dtlb_max_tag_check 2
core_0_dtlb_max_fill 2
core_0_stlb_set 128
core_0_stlb_way 12
core_0_stlb_rq_size 32
core_0_stlb_wq_size 32
core_0_stlb_pq_size 0
core_0_stlb_mshr_size 16
core_0_stlb_hit_latency 4
core_0_stlb_fill_latency 4
core_0_stlb_max_tag_check 1
core_0_stlb_max_fill 1
core_0_l1i_set 64
core_0_l1i_way 8
core_0_l1i_rq_size 64
core_0_l1i_wq_size 64
core_0_l1i_pq_size 32
core_0_l1i_mshr_size 8
core_0_l1i_hit_latency 2
core_0_l1i_fill_latency 2
core_0_l1i_max_tag_check 2
core_0_l1i_max_fill 2
core_0_l1d_set 64
core_0_l1d_way 12
core_0_l1d_rq_size 64
core_0_l1d_wq_size 64
core_0_l1d_pq_size 8
core_0_l1d_mshr_size 16
core_0_l1d_hit_latency 2
core_0_l1d_fill_latency 3
core_0_l1d_max_tag_check 2
core_0_l1d_max_fill 2
core_0_l2c_set 1024
core_0_l2c_way 8
core_0_l2c_rq_size 32
core_0_l2c_wq_size 32
core_0_l2c_pq_size 16
core_0_l2c_mshr_size 32
core_0_l2c_hit_latency 5
core_0_l2c_fill_latency 5
core_0_l2c_max_tag_check 1
core_0_l2c_max_fill 1
llc_set 2048
llc_way 16
llc_rq_size 32
llc_wq_size 32
llc_pq_size 32
llc_mshr_size 64
llc_hit_latency 10
llc_fill_latency 10
llc_max_tag_check 1
llc_max_fill 1
dram_channels 1
dram_ranks 1
dram_bankgroups 8
dram_banks 4
dram_rows 16384
dram_columns 1024
dram_channel_width 8
dram_rq_size 64
dram_wq_size 64
dram_size 4294967296
core_0_itlb_prefetcher no
core_0_dtlb_prefetcher no
core_0_stlb_prefetcher no
core_0_l1i_prefetcher no
core_0_l1d_prefetcher no
core_0_l2c_prefetcher no
llc_prefetcher no
llc_replacement drrip

Core_0_instructions 50000003
Core_0_cycles 42504995
Core_0_IPC 1.17633
Core_0_branch_prediction_accuracy 99.9268
Core_0_branch_MPKI 0.03674
Core_0_average_ROB_occupancy_at_mispredict 324.366

Core_0_ITLB_total_access 7976987
Core_0_ITLB_total_hit 7976987
Core_0_ITLB_total_miss 0
Core_0_ITLB_total_MPKI 0
Core_0_ITLB_total_miss_rate 0
Core_0_ITLB_demand_access 7976987
Core_0_ITLB_demand_hit 7976987
Core_0_ITLB_demand_miss 0
Core_0_ITLB_demand_MPKI 0
Core_0_ITLB_demand_miss_rate 0
Core_0_ITLB_load_access 7976987
Core_0_ITLB_load_hit 7976987
Core_0_ITLB_load_miss 0
Core_0_ITLB_load_MPKI 0
Core_0_ITLB_load_miss_rate 0
Core_0_ITLB_rfo_access 0
Core_0_ITLB_rfo_hit 0
Core_0_ITLB_rfo_miss 0
Core_0_ITLB_rfo_MPKI 0
Core_0_ITLB_rfo_miss_rate 0
Core_0_ITLB_prefetch_access 0
Core_0_ITLB_prefetch_hit 0
Core_0_ITLB_prefetch_miss 0
Core_0_ITLB_prefetch_MPKI 0
Core_0_ITLB_prefetch_miss_rate 0
Core_0_ITLB_writeback_access 0
Core_0_ITLB_writeback_hit 0
Core_0_ITLB_writeback_miss 0
Core_0_ITLB_writeback_MPKI 0
Core_0_ITLB_writeback_miss_rate 0
Core_0_ITLB_prefetch_requested 0
Core_0_ITLB_prefetch_issued 0
Core_0_ITLB_prefetch_useful 0
Core_0_ITLB_prefetch_useless 0
Core_0_ITLB_prefetch_late 0
Core_0_ITLB_prefetch_accuracy 0
Core_0_ITLB_prefetch_coverage 0

Core_0_DTLB_total_access 14357332
Core_0_DTLB_total_hit 14293152
Core_0_DTLB_total_miss 64180
Core_0_DTLB_total_MPKI 1.2836
Core_0_DTLB_total_miss_rate 0.00447019
Core_0_DTLB_demand_access 14357332
Core_0_DTLB_demand_hit 14293152
Core_0_DTLB_demand_miss 64180
Core_0_DTLB_demand_MPKI 1.2836
Core_0_DTLB_demand_miss_rate 0.00447019
Core_0_DTLB_load_access 14357332
Core_0_DTLB_load_hit 14293152
Core_0_DTLB_load_miss 64180
Core_0_DTLB_load_MPKI 1.2836
Core_0_DTLB_load_miss_rate 0.00447019
Core_0_DTLB_rfo_access 0
Core_0_DTLB_rfo_hit 0
Core_0_DTLB_rfo_miss 0
Core_0_DTLB_rfo_MPKI 0
Core_0_DTLB_rfo_miss_rate 0
Core_0_DTLB_prefetch_access 0
Core_0_DTLB_prefetch_hit 0
Core_0_DTLB_prefetch_miss 0
Core_0_DTLB_prefetch_MPKI 0
Core_0_DTLB_prefetch_miss_rate 0
Core_0_DTLB_writeback_access 0
Core_0_DTLB_writeback_hit 0
Core_0_DTLB_writeback_miss 0
Core_0_DTLB_writeback_MPKI 0
Core_0_DTLB_writeback_miss_rate 0
Core_0_DTLB_prefetch_requested 0
Core_0_DTLB_prefetch_issued 0
Core_0_DTLB_prefetch_useful 0
Core_0_DTLB_prefetch_useless 0
Core_0_DTLB_prefetch_late 0
Core_0_DTLB_prefetch_accuracy 0
Core_0_DTLB_prefetch_coverage 0

Core_0_STLB_total_access 19730
Core_0_STLB_total_hit 3304
Core_0_STLB_total_miss 16426
Core_0_STLB_total_MPKI 0.32852
Core_0_STLB_total_miss_rate 0.832539
Core_0_STLB_demand_access 19730
Core_0_STLB_demand_hit 3304
Core_0_STLB_demand_miss 16426
Core_0_STLB_demand_MPKI 0.32852
Core_0_STLB_demand_miss_rate 0.832539
Core_0_STLB_load_access 19730
Core_0_STLB_load_hit 3304
Core_0_STLB_load_miss 16426
Core_0_STLB_load_MPKI 0.32852
Core_0_STLB_load_miss_rate 0.832539
Core_0_STLB_rfo_access 0
Core_0_STLB_rfo_hit 0
Core_0_STLB_rfo_miss 0
Core_0_STLB_rfo_MPKI 0
Core_0_STLB_rfo_miss_rate 0
Core_0_STLB_prefetch_access 0
Core_0_STLB_prefetch_hit 0
Core_0_STLB_prefetch_miss 0
Core_0_STLB_prefetch_MPKI 0
Core_0_STLB_prefetch_miss_rate 0
Core_0_STLB_writeback_access 0
Core_0_STLB_writeback_hit 0
Core_0_STLB_writeback_miss 0
Core_0_STLB_writeback_MPKI 0
Core_0_STLB_writeback_miss_rate 0
Core_0_STLB_prefetch_requested 0
Core_0_STLB_prefetch_issued 0
Core_0_STLB_prefetch_useful 0
Core_0_STLB_prefetch_useless 0
Core_0_STLB_prefetch_late 0
Core_0_STLB_prefetch_accuracy 0
Core_0_STLB_prefetch_coverage 0

Core_0_L1I_total_access 9495823
Core_0_L1I_total_hit 9495823
Core_0_L1I_total_miss 0
Core_0_L1I_total_MPKI 0
Core_0_L1I_total_miss_rate 0
Core_0_L1I_demand_access 9495823
Core_0_L1I_demand_hit 9495823
Core_0_L1I_demand_miss 0
Core_0_L1I_demand_MPKI 0
Core_0_L1I_demand_miss_rate 0
Core_0_L1I_load_access 9495823
Core_0_L1I_load_hit 9495823
Core_0_L1I_load_miss 0
Core_0_L1I_load_MPKI 0
Core_0_L1I_load_miss_rate 0
Core_0_L1I_rfo_access 0
Core_0_L1I_rfo_hit 0
Core_0_L1I_rfo_miss 0
Core_0_L1I_rfo_MPKI 0
Core_0_L1I_rfo_miss_rate 0
Core_0_L1I_prefetch_access 0
Core_0_L1I_prefetch_hit 0
Core_0_L1I_prefetch_miss 0
Core_0_L1I_prefetch_MPKI 0
Core_0_L1I_prefetch_miss_rate 0
Core_0_L1I_writeback_access 0
Core_0_L1I_writeback_hit 0
Core_0_L1I_writeback_miss 0
Core_0_L1I_writeback_MPKI 0
Core_0_L1I_writeback_miss_rate 0
Core_0_L1I_prefetch_requested 0
Core_0_L1I_prefetch_issued 0
Core_0_L1I_prefetch_useful 0
Core_0_L1I_prefetch_useless 0
Core_0_L1I_prefetch_late 0
Core_0_L1I_prefetch_accuracy 0
Core_0_L1I_prefetch_coverage 0

Core_0_L1D_total_access 14587105
Core_0_L1D_total_hit 12435011
Core_0_L1D_total_miss 2152094
Core_0_L1D_total_MPKI 43.0419
Core_0_L1D_total_miss_rate 0.147534
Core_0_L1D_demand_access 12887235
Core_0_L1D_demand_hit 10765726
Core_0_L1D_demand_miss 2121509
Core_0_L1D_demand_MPKI 42.4302
Core_0_L1D_demand_miss_rate 0.164621
Core_0_L1D_load_access 12887235
Core_0_L1D_load_hit 10765726
Core_0_L1D_load_miss 2121509
Core_0_L1D_load_MPKI 42.4302
Core_0_L1D_load_miss_rate 0.164621
Core_0_L1D_rfo_access 0
Core_0_L1D_rfo_hit 0
Core_0_L1D_rfo_miss 0
Core_0_L1D_rfo_MPKI 0
Core_0_L1D_rfo_miss_rate 0
Core_0_L1D_prefetch_access 0
Core_0_L1D_prefetch_hit 0
Core_0_L1D_prefetch_miss 0
Core_0_L1D_prefetch_MPKI 0
Core_0_L1D_prefetch_miss_rate 0
Core_0_L1D_writeback_access 1699870
Core_0_L1D_writeback_hit 1669285
Core_0_L1D_writeback_miss 30585
Core_0_L1D_writeback_MPKI 0.6117
Core_0_L1D_writeback_miss_rate 0.0179926
Core_0_L1D_prefetch_requested 0
Core_0_L1D_prefetch_issued 0
Core_0_L1D_prefetch_useful 0
Core_0_L1D_prefetch_useless 0
Core_0_L1D_prefetch_late 0
Core_0_L1D_prefetch_accuracy 0
Core_0_L1D_prefetch_coverage 0

Core_0_L2C_total_access 660031
Core_0_L2C_total_hit 13614
Core_0_L2C_total_miss 646417
Core_0_L2C_total_MPKI 12.9283
Core_0_L2C_total_miss_rate 0.979374
Core_0_L2C_demand_access 649691
Core_0_L2C_demand_hit 8073
Core_0_L2C_demand_miss 641618
Core_0_L2C_demand_MPKI 12.8324
Core_0_L2C_demand_miss_rate 0.987574
Core_0_L2C_load_access 644481
Core_0_L2C_load_hit 8073
Core_0_L2C_load_miss 636408
Core_0_L2C_load_MPKI 12.7282
Core_0_L2C_load_miss_rate 0.987474
Core_0_L2C_rfo_access 5210
Core_0_L2C_rfo_hit 0
Core_0_L2C_rfo_miss 5210
Core_0_L2C_rfo_MPKI 0.1042
Core_0_L2C_rfo_miss_rate 1
Core_0_L2C_prefetch_access 0
Core_0_L2C_prefetch_hit 0
Core_0_L2C_prefetch_miss 0
Core_0_L2C_prefetch_MPKI 0
Core_0_L2C_prefetch_miss_rate 0
Core_0_L2C_writeback_access 10340
Core_0_L2C_writeback_hit 5541
Core_0_L2C_writeback_miss 4799
Core_0_L2C_writeback_MPKI 0.09598
Core_0_L2C_writeback_miss_rate 0.46412
Core_0_L2C_prefetch_requested 0
Core_0_L2C_prefetch_issued 0
Core_0_L2C_prefetch_useful 0
Core_0_L2C_prefetch_useless 0
Core_0_L2C_prefetch_late 0
Core_0_L2C_prefetch_accuracy 0
Core_0_L2C_prefetch_coverage 0

Core_0_LLC_total_access 648120
Core_0_LLC_total_hit 87647
Core_0_LLC_total_miss 560473
Core_0_LLC_total_MPKI 11.2095
Core_0_LLC_total_miss_rate 0.864767
Core_0_LLC_demand_access 641615
Core_0_LLC_demand_hit 83222
Core_0_LLC_demand_miss 558393
Core_0_LLC_demand_MPKI 11.1679
Core_0_LLC_demand_miss_rate 0.870293
Core_0_LLC_load_access 636405
Core_0_LLC_load_hit 83184
Core_0_LLC_load_miss 553221
Core_0_LLC_load_MPKI 11.0644
Core_0_LLC_load_miss_rate 0.869291
Core_0_LLC_rfo_access 5210
Core_0_LLC_rfo_hit 38
Core_0_LLC_rfo_miss 5172
Core_0_LLC_rfo_MPKI 0.10344
Core_0_LLC_rfo_miss_rate 0.992706
Core_0_LLC_prefetch_access 0
Core_0_LLC_prefetch_hit 0
Core_0_LLC_prefetch_miss 0
Core_0_LLC_prefetch_MPKI 0
Core_0_LLC_prefetch_miss_rate 0
Core_0_LLC_writeback_access 6505
Core_0_LLC_writeback_hit 4425
Core_0_LLC_writeback_miss 2080
Core_0_LLC_writeback_MPKI 0.0416
Core_0_LLC_writeback_miss_rate 0.319754
Core_0_LLC_prefetch_requested 0
Core_0_LLC_prefetch_issued 0
Core_0_LLC_prefetch_useful 0
Core_0_LLC_prefetch_useless 0
Core_0_LLC_prefetch_late 0
Core_0_LLC_prefetch_accuracy 0
Core_0_LLC_prefetch_coverage 0

[DRAM Statistics]
Channel_0_RQ_row_buffer_hit 490
Channel_0_RQ_row_buffer_miss 563033
Channel_0_WQ_row_buffer_hit 1171
Channel_0_WQ_row_buffer_miss 3980
Channel_0_WQ_full 0
Channel_0_dbus_congested 1080410
DRAM_total_RQ_row_buffer_hit 490
DRAM_total_RQ_row_buffer_miss 563033
DRAM_total_WQ_row_buffer_hit 1171
DRAM_total_WQ_row_buffer_miss 3980
DRAM_total_WQ_full 0
DRAM_total_dbus_congested 1080410
DRAM_avg_congested_cycle 7.79849

======STLB miss causes ========
Core_0_STLB_miss_cause_breakdown
Core_0_STLB_cause_Demand_Data_miss 16426
Core_0_STLB_cause_Demand_Data_miss_rate 0.832539
Core_0_STLB_cause_Demand_Instruction_miss 0
Core_0_STLB_cause_Demand_Instruction_miss_rate 0
Core_0_STLB_cause_L1D_Prefetch_miss 0
Core_0_STLB_cause_L1D_Prefetch_miss_rate 0
Core_0_STLB_cause_L1I_Prefetch_miss 0
Core_0_STLB_cause_L1I_Prefetch_miss_rate 0
Core_0_STLB_cause_Other_miss 0
Core_0_STLB_cause_Other_miss_rate 0
Core_0_STLB_Demand_miss 16426
Core_0_STLB_Demand_miss_rate 0.832539
Core_0_STLB_L1D_Prefetch_miss 0
Core_0_STLB_L1D_Prefetch_miss_rate 0
Core_0_STLB_Other_miss 0
Core_0_STLB_Other_miss_rate 0
