[VMEM] WARNING: physical memory size is smaller than virtual memory size.

*** ChampSim Multicore Out-of-Order Simulator ***
Warmup Instructions: 50000000
Simulation Instructions: 100000000
Number of CPUs: 1
Page size: 4096
Core 0: /data0/tzh/champsim_traces/SPEC06/473.astar-42B.champsimtrace.xz
Off-chip DRAM Size: 16 GiB Channels: 1 Width: 64-bit Data Rate: 3205 MT/s
Warmup halting CPU 0 at instruction 50000005 cycle 10715648 for remainder of phase
Warmup finished CPU 0 instructions: 50000005 cycles: 10715648 cumulative IPC: 4.666 (Simulation time: 00 hr 02 min 00 sec)
Warmup complete CPU 0 instructions: 50000005 cycles: 10715648 cumulative IPC: 4.666 (Simulation time: 00 hr 02 min 00 sec)
Simulation finished CPU 0 instructions: 100000000 cycles: 194304133 cumulative IPC: 0.5147 (Simulation time: 00 hr 16 min 16 sec)
Simulation complete CPU 0 instructions: 100000000 cycles: 194304133 cumulative IPC: 0.5147 (Simulation time: 00 hr 16 min 16 sec)

ChampSim completed all CPUs

=== Simulation ===
CPU 0 runs /data0/tzh/champsim_traces/SPEC06/473.astar-42B.champsimtrace.xz

Region of Interest Statistics

CPU 0 cumulative IPC: 0.5147 instructions: 100000000 cycles: 194304133
CPU 0 Branch Prediction Accuracy: 84.34% MPKI: 29.57 Average ROB Occupancy at Mispredict: 16.44
Branch type MPKI
BRANCH_DIRECT_JUMP: 0.00026
BRANCH_INDIRECT: 0
BRANCH_CONDITIONAL: 29.57
BRANCH_DIRECT_CALL: 0.00018
BRANCH_INDIRECT_CALL: 0
BRANCH_RETURN: 0.00022

cpu0->cpu0_STLB TOTAL        ACCESS:    2337246 HIT:    1785715 MISS:     551531 MSHR_MERGE:          0
cpu0->cpu0_STLB LOAD         ACCESS:    2337246 HIT:    1785715 MISS:     551531 MSHR_MERGE:          0
cpu0->cpu0_STLB RFO          ACCESS:          0 HIT:          0 MISS:          0 MSHR_MERGE:          0
cpu0->cpu0_STLB PREFETCH     ACCESS:          0 HIT:          0 MISS:          0 MSHR_MERGE:          0
cpu0->cpu0_STLB WRITE        ACCESS:          0 HIT:          0 MISS:          0 MSHR_MERGE:          0
cpu0->cpu0_STLB TRANSLATION  ACCESS:          0 HIT:          0 MISS:          0 MSHR_MERGE:          0
cpu0->cpu0_STLB PREFETCH REQUESTED:          0 ISSUED:          0 USEFUL:          0 USELESS:          0 LATE:          0 TOO_EARLY:          0
cpu0->cpu0_STLB AVERAGE MISS LATENCY: 13.07 cycles
cpu0->cpu0_L2C TOTAL        ACCESS:    3955247 HIT:    2818769 MISS:    1136478 MSHR_MERGE:          1
cpu0->cpu0_L2C LOAD         ACCESS:    2806429 HIT:    1709520 MISS:    1096909 MSHR_MERGE:          0
cpu0->cpu0_L2C RFO          ACCESS:      40097 HIT:      33153 MISS:       6944 MSHR_MERGE:          0
cpu0->cpu0_L2C PREFETCH     ACCESS:      75772 HIT:      60910 MISS:      14862 MSHR_MERGE:          1
cpu0->cpu0_L2C WRITE        ACCESS:     937102 HIT:     937087 MISS:         15 MSHR_MERGE:          0
cpu0->cpu0_L2C TRANSLATION  ACCESS:      95847 HIT:      78099 MISS:      17748 MSHR_MERGE:          0
cpu0->cpu0_L2C PREFETCH REQUESTED:      75772 ISSUED:      75772 USEFUL:       8824 USELESS:       5797 LATE:          0 TOO_EARLY:       2545
cpu0->cpu0_L2C AVERAGE MISS LATENCY: 59.77 cycles
cpu0->cpu0_L1I TOTAL        ACCESS:      29392 HIT:      29264 MISS:        128 MSHR_MERGE:         21
cpu0->cpu0_L1I LOAD         ACCESS:      29392 HIT:      29264 MISS:        128 MSHR_MERGE:         21
cpu0->cpu0_L1I RFO          ACCESS:          0 HIT:          0 MISS:          0 MSHR_MERGE:          0
cpu0->cpu0_L1I PREFETCH     ACCESS:          0 HIT:          0 MISS:          0 MSHR_MERGE:          0
cpu0->cpu0_L1I WRITE        ACCESS:          0 HIT:          0 MISS:          0 MSHR_MERGE:          0
cpu0->cpu0_L1I TRANSLATION  ACCESS:          0 HIT:          0 MISS:          0 MSHR_MERGE:          0
cpu0->cpu0_L1I PREFETCH REQUESTED:          0 ISSUED:          0 USEFUL:          0 USELESS:          0 LATE:          0 TOO_EARLY:          0
cpu0->cpu0_L1I AVERAGE MISS LATENCY: 213.3 cycles
cpu0->cpu0_L1D TOTAL        ACCESS:   30348672 HIT:   26241883 MISS:    4106789 MSHR_MERGE:    1164458
cpu0->cpu0_L1D LOAD         ACCESS:   25000951 HIT:   21041242 MISS:    3959709 MSHR_MERGE:    1153376
cpu0->cpu0_L1D RFO          ACCESS:          0 HIT:          0 MISS:          0 MSHR_MERGE:          0
cpu0->cpu0_L1D PREFETCH     ACCESS:          0 HIT:          0 MISS:          0 MSHR_MERGE:          0
cpu0->cpu0_L1D WRITE        ACCESS:    4258316 HIT:    4213846 MISS:      44470 MSHR_MERGE:       4319
cpu0->cpu0_L1D TRANSLATION  ACCESS:    1089405 HIT:     986795 MISS:     102610 MSHR_MERGE:       6763
cpu0->cpu0_L1D PREFETCH REQUESTED:          0 ISSUED:          0 USEFUL:          0 USELESS:          0 LATE:          0 TOO_EARLY:          0
cpu0->cpu0_L1D AVERAGE MISS LATENCY: 31.2 cycles
cpu0->cpu0_ITLB TOTAL        ACCESS:      25745 HIT:      25730 MISS:         15 MSHR_MERGE:          7
cpu0->cpu0_ITLB LOAD         ACCESS:      25745 HIT:      25730 MISS:         15 MSHR_MERGE:          7
cpu0->cpu0_ITLB RFO          ACCESS:          0 HIT:          0 MISS:          0 MSHR_MERGE:          0
cpu0->cpu0_ITLB PREFETCH     ACCESS:          0 HIT:          0 MISS:          0 MSHR_MERGE:          0
cpu0->cpu0_ITLB WRITE        ACCESS:          0 HIT:          0 MISS:          0 MSHR_MERGE:          0
cpu0->cpu0_ITLB TRANSLATION  ACCESS:          0 HIT:          0 MISS:          0 MSHR_MERGE:          0
cpu0->cpu0_ITLB PREFETCH REQUESTED:          0 ISSUED:          0 USEFUL:          0 USELESS:          0 LATE:          0 TOO_EARLY:          0
cpu0->cpu0_ITLB AVERAGE MISS LATENCY: 324.4 cycles
cpu0->cpu0_DTLB TOTAL        ACCESS:   28644703 HIT:   25523203 MISS:    3121500 MSHR_MERGE:     784262
cpu0->cpu0_DTLB LOAD         ACCESS:   28644703 HIT:   25523203 MISS:    3121500 MSHR_MERGE:     784262
cpu0->cpu0_DTLB RFO          ACCESS:          0 HIT:          0 MISS:          0 MSHR_MERGE:          0
cpu0->cpu0_DTLB PREFETCH     ACCESS:          0 HIT:          0 MISS:          0 MSHR_MERGE:          0
cpu0->cpu0_DTLB WRITE        ACCESS:          0 HIT:          0 MISS:          0 MSHR_MERGE:          0
cpu0->cpu0_DTLB TRANSLATION  ACCESS:          0 HIT:          0 MISS:          0 MSHR_MERGE:          0
cpu0->cpu0_DTLB PREFETCH REQUESTED:          0 ISSUED:          0 USEFUL:          0 USELESS:          0 LATE:          0 TOO_EARLY:          0
cpu0->cpu0_DTLB AVERAGE MISS LATENCY: 8.319 cycles
cpu0->LLC TOTAL        ACCESS:    1537551 HIT:    1206674 MISS:     330877 MSHR_MERGE:          0
cpu0->LLC LOAD         ACCESS:    1096854 HIT:     814012 MISS:     282842 MSHR_MERGE:          0
cpu0->LLC RFO          ACCESS:       6943 HIT:       6516 MISS:        427 MSHR_MERGE:          0
cpu0->LLC PREFETCH     ACCESS:      14861 HIT:       3854 MISS:      11007 MSHR_MERGE:          0
cpu0->LLC WRITE        ACCESS:     401145 HIT:     366345 MISS:      34800 MSHR_MERGE:          0
cpu0->LLC TRANSLATION  ACCESS:      17748 HIT:      15947 MISS:       1801 MSHR_MERGE:          0
cpu0->LLC PREFETCH REQUESTED:          0 ISSUED:          0 USEFUL:          0 USELESS:          0 LATE:          0 TOO_EARLY:          0
cpu0->LLC AVERAGE MISS LATENCY: 157.1 cycles

DRAM Statistics

Channel 0 RQ ROW_BUFFER_HIT:        396
  ROW_BUFFER_MISS:     295645
  AVG DBUS CONGESTED CYCLE: 16.15
Channel 0 WQ ROW_BUFFER_HIT:      14436
  ROW_BUFFER_MISS:     125411
  FULL:          0
Channel 0 REFRESHES ISSUED:      16192

[ROI Statistics]
[System Configuration]
num_cpus 1
cpu_freq 4000
fetch_width 6
decode_width 6
dispatch_width 6
execute_width 6
lq_width 2
sq_width 2
retire_width 6
scheduler_size 128
branch_mispredict_penalty 15
rob_size 352
lq_size 128
sq_size 72
ifetch_buffer_size 64
decode_buffer_size 32
dispatch_buffer_size 32
register_file_size 288
decode_latency 1
dispatch_latency 1
schedule_latency 1
execute_latency 1
page_size 4096
block_size 64
core_0_itlb_set 16
core_0_itlb_way 4
core_0_itlb_rq_size 16
core_0_itlb_wq_size 16
core_0_itlb_pq_size 0
core_0_itlb_mshr_size 8
core_0_itlb_hit_latency 1
core_0_itlb_fill_latency 1
core_0_itlb_max_tag_check 2
core_0_itlb_max_fill 2
core_0_dtlb_set 16
core_0_dtlb_way 4
core_0_dtlb_rq_size 16
core_0_dtlb_wq_size 16
core_0_dtlb_pq_size 0
core_0_dtlb_mshr_size 8
core_0_dtlb_hit_latency 1
core_0_dtlb_fill_latency 1
core_0_dtlb_max_tag_check 2
core_0_dtlb_max_fill 2
core_0_stlb_set 128
core_0_stlb_way 12
core_0_stlb_rq_size 32
core_0_stlb_wq_size 32
core_0_stlb_pq_size 0
core_0_stlb_mshr_size 16
core_0_stlb_hit_latency 4
core_0_stlb_fill_latency 4
core_0_stlb_max_tag_check 1
core_0_stlb_max_fill 1
core_0_l1i_set 64
core_0_l1i_way 8
core_0_l1i_rq_size 64
core_0_l1i_wq_size 64
core_0_l1i_pq_size 32
core_0_l1i_mshr_size 8
core_0_l1i_hit_latency 2
core_0_l1i_fill_latency 2
core_0_l1i_max_tag_check 2
core_0_l1i_max_fill 2
core_0_l1d_set 64
core_0_l1d_way 12
core_0_l1d_rq_size 64
core_0_l1d_wq_size 64
core_0_l1d_pq_size 8
core_0_l1d_mshr_size 16
core_0_l1d_hit_latency 2
core_0_l1d_fill_latency 3
core_0_l1d_max_tag_check 2
core_0_l1d_max_fill 2
core_0_l2c_set 1024
core_0_l2c_way 8
core_0_l2c_rq_size 32
core_0_l2c_wq_size 32
core_0_l2c_pq_size 16
core_0_l2c_mshr_size 32
core_0_l2c_hit_latency 5
core_0_l2c_fill_latency 5
core_0_l2c_max_tag_check 1
core_0_l2c_max_fill 1
llc_set 2048
llc_way 16
llc_rq_size 32
llc_wq_size 32
llc_pq_size 32
llc_mshr_size 64
llc_hit_latency 10
llc_fill_latency 10
llc_max_tag_check 1
llc_max_fill 1
dram_channels 1
dram_ranks 1
dram_bankgroups 8
dram_banks 4
dram_rows 65536
dram_columns 1024
dram_channel_width 8
dram_rq_size 64
dram_wq_size 64
dram_size 17179869184
core_0_itlb_prefetcher no
core_0_dtlb_prefetcher no
core_0_stlb_prefetcher no
core_0_l1i_prefetcher next_line
core_0_l1d_prefetcher no
core_0_l2c_prefetcher ip_stride
llc_prefetcher no
llc_replacement drrip

Core_0_instructions 100000000
Core_0_cycles 194304133
Core_0_IPC 0.514657
Core_0_branch_prediction_accuracy 84.3361
Core_0_branch_MPKI 29.5707
Core_0_average_ROB_occupancy_at_mispredict 16.4378

Core_0_ITLB_total_access 25745
Core_0_ITLB_total_hit 25730
Core_0_ITLB_total_miss 15
Core_0_ITLB_total_MPKI 0.00015
Core_0_ITLB_total_miss_rate 0.000582637
Core_0_ITLB_demand_access 25745
Core_0_ITLB_demand_hit 25730
Core_0_ITLB_demand_miss 15
Core_0_ITLB_demand_MPKI 0.00015
Core_0_ITLB_demand_miss_rate 0.000582637
Core_0_ITLB_load_access 25745
Core_0_ITLB_load_hit 25730
Core_0_ITLB_load_miss 15
Core_0_ITLB_load_MPKI 0.00015
Core_0_ITLB_load_miss_rate 0.000582637
Core_0_ITLB_rfo_access 0
Core_0_ITLB_rfo_hit 0
Core_0_ITLB_rfo_miss 0
Core_0_ITLB_rfo_MPKI 0
Core_0_ITLB_rfo_miss_rate 0
Core_0_ITLB_prefetch_access 0
Core_0_ITLB_prefetch_hit 0
Core_0_ITLB_prefetch_miss 0
Core_0_ITLB_prefetch_MPKI 0
Core_0_ITLB_prefetch_miss_rate 0
Core_0_ITLB_writeback_access 0
Core_0_ITLB_writeback_hit 0
Core_0_ITLB_writeback_miss 0
Core_0_ITLB_writeback_MPKI 0
Core_0_ITLB_writeback_miss_rate 0
Core_0_ITLB_prefetch_requested 0
Core_0_ITLB_prefetch_issued 0
Core_0_ITLB_prefetch_useful 0
Core_0_ITLB_prefetch_useless 0
Core_0_ITLB_prefetch_late 0
Core_0_ITLB_prefetch_fill 0
Core_0_ITLB_prefetch_too_early 0
Core_0_ITLB_prefetch_too_early_among_fill 0
Core_0_ITLB_prefetch_too_early_among_useless 0
Core_0_ITLB_prefetch_pollution_evict 0
Core_0_ITLB_prefetch_pollution_demand 0
Core_0_ITLB_prefetch_pollution_among_prefetch_fill 0
Core_0_ITLB_prefetch_accuracy 0
Core_0_ITLB_prefetch_coverage 0

Core_0_DTLB_total_access 28644703
Core_0_DTLB_total_hit 25523203
Core_0_DTLB_total_miss 3121500
Core_0_DTLB_total_MPKI 31.215
Core_0_DTLB_total_miss_rate 0.108973
Core_0_DTLB_demand_access 28644703
Core_0_DTLB_demand_hit 25523203
Core_0_DTLB_demand_miss 3121500
Core_0_DTLB_demand_MPKI 31.215
Core_0_DTLB_demand_miss_rate 0.108973
Core_0_DTLB_load_access 28644703
Core_0_DTLB_load_hit 25523203
Core_0_DTLB_load_miss 3121500
Core_0_DTLB_load_MPKI 31.215
Core_0_DTLB_load_miss_rate 0.108973
Core_0_DTLB_rfo_access 0
Core_0_DTLB_rfo_hit 0
Core_0_DTLB_rfo_miss 0
Core_0_DTLB_rfo_MPKI 0
Core_0_DTLB_rfo_miss_rate 0
Core_0_DTLB_prefetch_access 0
Core_0_DTLB_prefetch_hit 0
Core_0_DTLB_prefetch_miss 0
Core_0_DTLB_prefetch_MPKI 0
Core_0_DTLB_prefetch_miss_rate 0
Core_0_DTLB_writeback_access 0
Core_0_DTLB_writeback_hit 0
Core_0_DTLB_writeback_miss 0
Core_0_DTLB_writeback_MPKI 0
Core_0_DTLB_writeback_miss_rate 0
Core_0_DTLB_prefetch_requested 0
Core_0_DTLB_prefetch_issued 0
Core_0_DTLB_prefetch_useful 0
Core_0_DTLB_prefetch_useless 0
Core_0_DTLB_prefetch_late 0
Core_0_DTLB_prefetch_fill 0
Core_0_DTLB_prefetch_too_early 0
Core_0_DTLB_prefetch_too_early_among_fill 0
Core_0_DTLB_prefetch_too_early_among_useless 0
Core_0_DTLB_prefetch_pollution_evict 0
Core_0_DTLB_prefetch_pollution_demand 0
Core_0_DTLB_prefetch_pollution_among_prefetch_fill 0
Core_0_DTLB_prefetch_accuracy 0
Core_0_DTLB_prefetch_coverage 0

Core_0_STLB_total_access 2337246
Core_0_STLB_total_hit 1785715
Core_0_STLB_total_miss 551531
Core_0_STLB_total_MPKI 5.51531
Core_0_STLB_total_miss_rate 0.235975
Core_0_STLB_demand_access 2337246
Core_0_STLB_demand_hit 1785715
Core_0_STLB_demand_miss 551531
Core_0_STLB_demand_MPKI 5.51531
Core_0_STLB_demand_miss_rate 0.235975
Core_0_STLB_load_access 2337246
Core_0_STLB_load_hit 1785715
Core_0_STLB_load_miss 551531
Core_0_STLB_load_MPKI 5.51531
Core_0_STLB_load_miss_rate 0.235975
Core_0_STLB_rfo_access 0
Core_0_STLB_rfo_hit 0
Core_0_STLB_rfo_miss 0
Core_0_STLB_rfo_MPKI 0
Core_0_STLB_rfo_miss_rate 0
Core_0_STLB_prefetch_access 0
Core_0_STLB_prefetch_hit 0
Core_0_STLB_prefetch_miss 0
Core_0_STLB_prefetch_MPKI 0
Core_0_STLB_prefetch_miss_rate 0
Core_0_STLB_writeback_access 0
Core_0_STLB_writeback_hit 0
Core_0_STLB_writeback_miss 0
Core_0_STLB_writeback_MPKI 0
Core_0_STLB_writeback_miss_rate 0
Core_0_STLB_prefetch_requested 0
Core_0_STLB_prefetch_issued 0
Core_0_STLB_prefetch_useful 0
Core_0_STLB_prefetch_useless 0
Core_0_STLB_prefetch_late 0
Core_0_STLB_prefetch_fill 0
Core_0_STLB_prefetch_too_early 0
Core_0_STLB_prefetch_too_early_among_fill 0
Core_0_STLB_prefetch_too_early_among_useless 0
Core_0_STLB_prefetch_pollution_evict 0
Core_0_STLB_prefetch_pollution_demand 0
Core_0_STLB_prefetch_pollution_among_prefetch_fill 0
Core_0_STLB_prefetch_accuracy 0
Core_0_STLB_prefetch_coverage 0

Core_0_L1I_total_access 29392
Core_0_L1I_total_hit 29264
Core_0_L1I_total_miss 128
Core_0_L1I_total_MPKI 0.00128
Core_0_L1I_total_miss_rate 0.00435493
Core_0_L1I_demand_access 29392
Core_0_L1I_demand_hit 29264
Core_0_L1I_demand_miss 128
Core_0_L1I_demand_MPKI 0.00128
Core_0_L1I_demand_miss_rate 0.00435493
Core_0_L1I_load_access 29392
Core_0_L1I_load_hit 29264
Core_0_L1I_load_miss 128
Core_0_L1I_load_MPKI 0.00128
Core_0_L1I_load_miss_rate 0.00435493
Core_0_L1I_rfo_access 0
Core_0_L1I_rfo_hit 0
Core_0_L1I_rfo_miss 0
Core_0_L1I_rfo_MPKI 0
Core_0_L1I_rfo_miss_rate 0
Core_0_L1I_prefetch_access 0
Core_0_L1I_prefetch_hit 0
Core_0_L1I_prefetch_miss 0
Core_0_L1I_prefetch_MPKI 0
Core_0_L1I_prefetch_miss_rate 0
Core_0_L1I_writeback_access 0
Core_0_L1I_writeback_hit 0
Core_0_L1I_writeback_miss 0
Core_0_L1I_writeback_MPKI 0
Core_0_L1I_writeback_miss_rate 0
Core_0_L1I_prefetch_requested 0
Core_0_L1I_prefetch_issued 0
Core_0_L1I_prefetch_useful 0
Core_0_L1I_prefetch_useless 0
Core_0_L1I_prefetch_late 0
Core_0_L1I_prefetch_fill 0
Core_0_L1I_prefetch_too_early 0
Core_0_L1I_prefetch_too_early_among_fill 0
Core_0_L1I_prefetch_too_early_among_useless 0
Core_0_L1I_prefetch_pollution_evict 0
Core_0_L1I_prefetch_pollution_demand 0
Core_0_L1I_prefetch_pollution_among_prefetch_fill 0
Core_0_L1I_prefetch_accuracy 0
Core_0_L1I_prefetch_coverage 0

Core_0_L1D_total_access 29259267
Core_0_L1D_total_hit 25255088
Core_0_L1D_total_miss 4004179
Core_0_L1D_total_MPKI 40.0418
Core_0_L1D_total_miss_rate 0.136852
Core_0_L1D_demand_access 25000951
Core_0_L1D_demand_hit 21041242
Core_0_L1D_demand_miss 3959709
Core_0_L1D_demand_MPKI 39.5971
Core_0_L1D_demand_miss_rate 0.158382
Core_0_L1D_load_access 25000951
Core_0_L1D_load_hit 21041242
Core_0_L1D_load_miss 3959709
Core_0_L1D_load_MPKI 39.5971
Core_0_L1D_load_miss_rate 0.158382
Core_0_L1D_rfo_access 0
Core_0_L1D_rfo_hit 0
Core_0_L1D_rfo_miss 0
Core_0_L1D_rfo_MPKI 0
Core_0_L1D_rfo_miss_rate 0
Core_0_L1D_prefetch_access 0
Core_0_L1D_prefetch_hit 0
Core_0_L1D_prefetch_miss 0
Core_0_L1D_prefetch_MPKI 0
Core_0_L1D_prefetch_miss_rate 0
Core_0_L1D_writeback_access 4258316
Core_0_L1D_writeback_hit 4213846
Core_0_L1D_writeback_miss 44470
Core_0_L1D_writeback_MPKI 0.4447
Core_0_L1D_writeback_miss_rate 0.0104431
Core_0_L1D_prefetch_requested 0
Core_0_L1D_prefetch_issued 0
Core_0_L1D_prefetch_useful 0
Core_0_L1D_prefetch_useless 0
Core_0_L1D_prefetch_late 0
Core_0_L1D_prefetch_fill 0
Core_0_L1D_prefetch_too_early 0
Core_0_L1D_prefetch_too_early_among_fill 0
Core_0_L1D_prefetch_too_early_among_useless 0
Core_0_L1D_prefetch_pollution_evict 0
Core_0_L1D_prefetch_pollution_demand 0
Core_0_L1D_prefetch_pollution_among_prefetch_fill 0
Core_0_L1D_prefetch_accuracy 0
Core_0_L1D_prefetch_coverage 0

Core_0_L2C_total_access 3859400
Core_0_L2C_total_hit 2740670
Core_0_L2C_total_miss 1118730
Core_0_L2C_total_MPKI 11.1873
Core_0_L2C_total_miss_rate 0.289871
Core_0_L2C_demand_access 2846526
Core_0_L2C_demand_hit 1742673
Core_0_L2C_demand_miss 1103853
Core_0_L2C_demand_MPKI 11.0385
Core_0_L2C_demand_miss_rate 0.38779
Core_0_L2C_load_access 2806429
Core_0_L2C_load_hit 1709520
Core_0_L2C_load_miss 1096909
Core_0_L2C_load_MPKI 10.9691
Core_0_L2C_load_miss_rate 0.390856
Core_0_L2C_rfo_access 40097
Core_0_L2C_rfo_hit 33153
Core_0_L2C_rfo_miss 6944
Core_0_L2C_rfo_MPKI 0.06944
Core_0_L2C_rfo_miss_rate 0.17318
Core_0_L2C_prefetch_access 75772
Core_0_L2C_prefetch_hit 60910
Core_0_L2C_prefetch_miss 14862
Core_0_L2C_prefetch_MPKI 0.14862
Core_0_L2C_prefetch_miss_rate 0.196141
Core_0_L2C_writeback_access 937102
Core_0_L2C_writeback_hit 937087
Core_0_L2C_writeback_miss 15
Core_0_L2C_writeback_MPKI 0.00015
Core_0_L2C_writeback_miss_rate 1.60068e-05
Core_0_L2C_prefetch_requested 75772
Core_0_L2C_prefetch_issued 75772
Core_0_L2C_prefetch_useful 8824
Core_0_L2C_prefetch_useless 5797
Core_0_L2C_prefetch_late 0
Core_0_L2C_prefetch_fill 14861
Core_0_L2C_prefetch_too_early 2545
Core_0_L2C_prefetch_too_early_among_fill 0.171254
Core_0_L2C_prefetch_too_early_among_useless 0.43902
Core_0_L2C_prefetch_pollution_evict 5169
Core_0_L2C_prefetch_pollution_demand 4978
Core_0_L2C_prefetch_pollution_among_prefetch_fill 0.347823
Core_0_L2C_prefetch_accuracy 0.116455
Core_0_L2C_prefetch_coverage 0.00793042

Core_0_LLC_total_access 1519803
Core_0_LLC_total_hit 1190727
Core_0_LLC_total_miss 329076
Core_0_LLC_total_MPKI 3.29076
Core_0_LLC_total_miss_rate 0.216525
Core_0_LLC_demand_access 1103797
Core_0_LLC_demand_hit 820528
Core_0_LLC_demand_miss 283269
Core_0_LLC_demand_MPKI 2.83269
Core_0_LLC_demand_miss_rate 0.256631
Core_0_LLC_load_access 1096854
Core_0_LLC_load_hit 814012
Core_0_LLC_load_miss 282842
Core_0_LLC_load_MPKI 2.82842
Core_0_LLC_load_miss_rate 0.257867
Core_0_LLC_rfo_access 6943
Core_0_LLC_rfo_hit 6516
Core_0_LLC_rfo_miss 427
Core_0_LLC_rfo_MPKI 0.00427
Core_0_LLC_rfo_miss_rate 0.0615008
Core_0_LLC_prefetch_access 14861
Core_0_LLC_prefetch_hit 3854
Core_0_LLC_prefetch_miss 11007
Core_0_LLC_prefetch_MPKI 0.11007
Core_0_LLC_prefetch_miss_rate 0.740663
Core_0_LLC_writeback_access 401145
Core_0_LLC_writeback_hit 366345
Core_0_LLC_writeback_miss 34800
Core_0_LLC_writeback_MPKI 0.348
Core_0_LLC_writeback_miss_rate 0.0867517
Core_0_LLC_prefetch_requested 0
Core_0_LLC_prefetch_issued 0
Core_0_LLC_prefetch_useful 0
Core_0_LLC_prefetch_useless 0
Core_0_LLC_prefetch_late 0
Core_0_LLC_prefetch_fill 11007
Core_0_LLC_prefetch_too_early 0
Core_0_LLC_prefetch_too_early_among_fill 0
Core_0_LLC_prefetch_too_early_among_useless 0
Core_0_LLC_prefetch_pollution_evict 2555
Core_0_LLC_prefetch_pollution_demand 2555
Core_0_LLC_prefetch_pollution_among_prefetch_fill 0.232125
Core_0_LLC_prefetch_accuracy 0
Core_0_LLC_prefetch_coverage 0

[DRAM Statistics]
Channel_0_RQ_row_buffer_hit 396
Channel_0_RQ_row_buffer_miss 295645
Channel_0_WQ_row_buffer_hit 14436
Channel_0_WQ_row_buffer_miss 125411
Channel_0_WQ_full 0
Channel_0_dbus_congested 1058087
DRAM_total_RQ_row_buffer_hit 396
DRAM_total_RQ_row_buffer_miss 295645
DRAM_total_WQ_row_buffer_hit 14436
DRAM_total_WQ_row_buffer_miss 125411
DRAM_total_WQ_full 0
DRAM_total_dbus_congested 1058087
DRAM_avg_congested_cycle 16.1458

====== DRAM_RQ_TRAFFIC ========
DRAM_RQ_READ_TRAFFIC_BREAKDOWN:
data_demand_read.count = 283162
data_demand_read.share = 95.64%

inst_demand_read.count = 107
inst_demand_read.share = 0.04%

cache_inst_prefetch.count = 0
cache_inst_prefetch.share = 0.00%

cache_data_prefetch.count = 11007
cache_data_prefetch.share = 3.72%

stlb_data_demand.count = 1797
stlb_data_demand.share = 0.61%

stlb_inst_demand.count = 4
stlb_inst_demand.share = 0.00%

stlb_l1i_pref.count = 0
stlb_l1i_pref.share = 0.00%

stlb_l1d_pref.count = 0
stlb_l1d_pref.share = 0.00%

DRAM_RQ_READ_TRAFFIC_SUMMARY:
cache_demand.count = 283269
cache_demand.share = 95.67%

cache_prefetch.count = 11007
cache_prefetch.share = 3.72%

stlb_demand.count = 1801
stlb_demand.share = 0.61%

stlb_prefetch.count = 0
stlb_prefetch.share = 0.00%

DRAM_RQ_READ_TRAFFIC_DEBUG:
total_classified_read.count = 296077
unclassified_read.count = 0
total_read_with_other.count = 296077

classified_plus_unclassified_check.count = 296077
dram_rq_read_total_observed.count = 296077
dram_rq_read_total_observed.per_1K_instructions = 2.96077

STLB_MISS_PTW_DRAM_TOUCH_BREAKDOWN:
stlb_miss_total.count = 551531

stlb_miss_touch_dram.count = 1793
stlb_miss_touch_dram.share = 0.33%

stlb_miss_no_dram_touch.count = 549738
stlb_miss_no_dram_touch.share = 99.67%

STLB_MISS_PTW_DRAM_TOUCH_DEBUG:
stlb_miss_touch_plus_no_touch.count = 551531
stlb_miss_total_check.count = 551531

======STLB miss causes ========
Core_0_STLB_miss_cause_breakdown
Core_0_STLB_cause_Demand_Data_miss 551523
Core_0_STLB_cause_Demand_Data_miss_rate 0.235971
Core_0_STLB_cause_Demand_Instruction_miss 8
Core_0_STLB_cause_Demand_Instruction_miss_rate 3.42283e-06
Core_0_STLB_cause_L1D_Prefetch_miss 0
Core_0_STLB_cause_L1D_Prefetch_miss_rate 0
Core_0_STLB_cause_L1D_Prefetch_Same_Page_miss 0
Core_0_STLB_cause_L1D_Prefetch_Same_Page_miss_rate 0
Core_0_STLB_cause_L1D_Prefetch_Cross_Page_miss 0
Core_0_STLB_cause_L1D_Prefetch_Cross_Page_miss_rate 0
Core_0_STLB_cause_L1I_Prefetch_miss 0
Core_0_STLB_cause_L1I_Prefetch_miss_rate 0
Core_0_STLB_cause_Other_miss 0
Core_0_STLB_cause_Other_miss_rate 0
Core_0_STLB_Demand_miss 551531
Core_0_STLB_Demand_miss_rate 0.235975
Core_0_STLB_L1D_Prefetch_miss 0
Core_0_STLB_L1D_Prefetch_miss_rate 0
Core_0_STLB_Other_miss 0
Core_0_STLB_Other_miss_rate 0

========== vBerti-TLB Cross-page Flow Stats ==========

Core_0_vBerti_Requested 0
Core_0_vBerti_Cross_page_prefetch_in_Requested 0
Core_0_vBerti_Same_page_prefetch_in_Requested 0
Core_0_vBerti_Cross_page_prefetch_of_Requested 0
Core_0_vBerti_Issued 0
Core_0_vBerti_PQ_Drop_Rate 0
Core_0_vBerti_InPQ_Cross_page_prefetch_of_Requested 0
Core_0_vBerti_Cross_page_PQ_Drop_rate 0
Core_0_vBerti_Cross_page_prefetch_of_Issued 0

========= DTLB_vBerti Prefetch Stats =========
Core_0_DTLB_demand_access 28644703
Core_0_DTLB_demand_hit 25523203
Core_0_DTLB_demand_miss 3121500
Core_0_DTLB_demand_mshr_merge 784262
Core_0_DTLB_demand_fill 2337238
Core_0_DTLB_demand_miss_rate 0.108973
Core_0_DTLB_demand_mpki 31.215
Core_0_DTLB_vberti_prefetch_access 0
Core_0_DTLB_vberti_prefetch_hit 0
Core_0_DTLB_vberti_prefetch_miss 0
Core_0_DTLB_vberti_prefetch_mshr_merge 0
Core_0_DTLB_vberti_prefetch_fill 0
Core_0_DTLB_vberti_prefetch_miss_rate 0
Core_0_DTLB_vberti_prefetch_mpki 0

=== DTLB_vBerti Same/Cross-page Prefetch Stats ===
Core_0_DTLB_vberti_same_page_prefetch 0
Core_0_DTLB_vberti_same_page_prefetch_hit 0
Core_0_DTLB_vberti_same_page_prefetch_miss 0
Core_0_DTLB_vberti_same_page_prefetch_mshr_merge 0
Core_0_DTLB_vberti_same_page_prefetch_fill 0
Core_0_DTLB_vberti_same_page_prefetch_miss_rate 0
Core_0_DTLB_vberti_same_page_prefetch_mpki 0
Core_0_DTLB_vberti_cross_page_prefetch 0
Core_0_DTLB_vberti_cross_page_prefetch_hit 0
Core_0_DTLB_vberti_cross_page_prefetch_miss 0
Core_0_DTLB_vberti_cross_page_prefetch_mshr_merge 0
Core_0_DTLB_vberti_cross_page_prefetch_fill 0
Core_0_DTLB_vberti_cross_page_prefetch_miss_rate 0
Core_0_DTLB_vberti_cross_page_prefetch_mpki 0
Core_0_DTLB_same_page_prefetch_miss_rate 0
Core_0_DTLB_same_page_prefetch_mpki 0
Core_0_DTLB_cross_page_prefetch_miss_rate 0
Core_0_DTLB_cross_page_prefetch_mpki 0
Core_0_DTLB_cross_page_prefetch_issued 0
Core_0_DTLB_cross_page_prefetch_lookups 0
Core_0_DTLB_cross_page_prefetch_useful 0
Core_0_DTLB_cross_page_prefetch_useless 0
Core_0_DTLB_cross_page_prefetch_late 0
Core_0_DTLB_cross_page_prefetch_too_early 0
Core_0_DTLB_cross_page_prefetch_too_early_among_fill 0
Core_0_DTLB_cross_page_prefetch_too_early_among_useless 0
Core_0_DTLB_cross_page_prefetch_pollution_evict 0
Core_0_DTLB_cross_page_prefetch_pollution_demand 0
Core_0_DTLB_cross_page_prefetch_pollution_among_prefetch_fill 0
Core_0_DTLB_cross_page_prefetch_accuracy 0
Core_0_DTLB_cross_page_prefetch_coverage 0

========= STLB_vBerti Prefetch Stats =========
Core_0_STLB_demand_access 2337246
Core_0_STLB_demand_hit 1785715
Core_0_STLB_demand_miss 551531
Core_0_STLB_demand_mshr_merge 0
Core_0_STLB_demand_fill 551531
Core_0_STLB_demand_miss_rate 0.235975
Core_0_STLB_demand_mpki 5.51531
Core_0_STLB_vberti_prefetch_access 0
Core_0_STLB_vberti_prefetch_hit 0
Core_0_STLB_vberti_prefetch_miss 0
Core_0_STLB_vberti_prefetch_mshr_merge 0
Core_0_STLB_vberti_prefetch_fill 0
Core_0_STLB_vberti_prefetch_miss_rate 0
Core_0_STLB_vberti_prefetch_mpki 0

=== STLB_vBerti Same/Cross-page Prefetch Stats ===
Core_0_STLB_vberti_same_page_prefetch 0
Core_0_STLB_vberti_same_page_prefetch_hit 0
Core_0_STLB_vberti_same_page_prefetch_miss 0
Core_0_STLB_vberti_same_page_prefetch_mshr_merge 0
Core_0_STLB_vberti_same_page_prefetch_fill 0
Core_0_STLB_vberti_same_page_prefetch_miss_rate 0
Core_0_STLB_vberti_same_page_prefetch_mpki 0
Core_0_STLB_vberti_cross_page_prefetch 0
Core_0_STLB_vberti_cross_page_prefetch_hit 0
Core_0_STLB_vberti_cross_page_prefetch_miss 0
Core_0_STLB_vberti_cross_page_prefetch_mshr_merge 0
Core_0_STLB_vberti_cross_page_prefetch_fill 0
Core_0_STLB_vberti_cross_page_prefetch_miss_rate 0
Core_0_STLB_vberti_cross_page_prefetch_mpki 0
Core_0_STLB_same_page_prefetch_miss_rate 0
Core_0_STLB_same_page_prefetch_mpki 0
Core_0_STLB_cross_page_prefetch_miss_rate 0
Core_0_STLB_cross_page_prefetch_mpki 0
Core_0_STLB_cross_page_prefetch_issued 0
Core_0_STLB_cross_page_prefetch_lookups 0
Core_0_STLB_cross_page_prefetch_useful 0
Core_0_STLB_cross_page_prefetch_useless 0
Core_0_STLB_cross_page_prefetch_late 0
Core_0_STLB_cross_page_prefetch_too_early 0
Core_0_STLB_cross_page_prefetch_too_early_among_fill 0
Core_0_STLB_cross_page_prefetch_too_early_among_useless 0
Core_0_STLB_cross_page_prefetch_pollution_evict 0
Core_0_STLB_cross_page_prefetch_pollution_demand 0
Core_0_STLB_cross_page_prefetch_pollution_among_prefetch_fill 0
Core_0_STLB_cross_page_prefetch_accuracy 0
Core_0_STLB_cross_page_prefetch_coverage 0

========= STLB Cross-page Prefetch Buffer Stats =========
Core_0_STLB_raw_demand_miss 551523
Core_0_CP_PB_insert 0
Core_0_CP_PB_demand_hit 0
Core_0_STLB_PB_demand_miss 551523
Core_0_CP_PB_coverage 0
Core_0_STLB_raw_demand_mpki 5.51523
Core_0_STLB_PB_demand_mpki 5.51523
Core_0_CP_PB_demand_hit_mpki 0

Core_0_TLB_demand_miss_rate 0.0192542
Core_0_TLB_demand_mpki 5.51531
Core_0_TLB_same_page_prefetch_miss_rate 0
Core_0_TLB_same_page_prefetch_mpki 0
Core_0_TLB_cross_page_prefetch_miss_rate 0
Core_0_TLB_cross_page_prefetch_mpki 0
Core_0_TLB_cross_page_prefetch_issued 0
Core_0_TLB_cross_page_prefetch_lookups 0
Core_0_TLB_cross_page_prefetch_useful 0
Core_0_TLB_cross_page_prefetch_useless 0
Core_0_TLB_cross_page_prefetch_late 0
Core_0_TLB_cross_page_prefetch_too_early 0
Core_0_TLB_cross_page_prefetch_too_early_among_fill 0
Core_0_TLB_cross_page_prefetch_too_early_among_useless 0
Core_0_TLB_cross_page_prefetch_accuracy 0
Core_0_TLB_cross_page_prefetch_coverage 0
