[VMEM] WARNING: physical memory size is smaller than virtual memory size.

*** ChampSim Multicore Out-of-Order Simulator ***
Warmup Instructions: 50000000
Simulation Instructions: 100000000
Number of CPUs: 1
Page size: 4096
Core 0: /data0/tzh/champsim_traces/SPEC17/623.xalancbmk_s-700B.champsimtrace.xz
Off-chip DRAM Size: 16 GiB Channels: 1 Width: 64-bit Data Rate: 3205 MT/s
Warmup halting CPU 0 at instruction 50000001 cycle 11866655 for remainder of phase
Warmup finished CPU 0 instructions: 50000001 cycles: 11866655 cumulative IPC: 4.213 (Simulation time: 00 hr 02 min 37 sec)
Warmup complete CPU 0 instructions: 50000001 cycles: 11866655 cumulative IPC: 4.213 (Simulation time: 00 hr 02 min 37 sec)
Simulation finished CPU 0 instructions: 100000000 cycles: 96631629 cumulative IPC: 1.035 (Simulation time: 00 hr 14 min 25 sec)
Simulation complete CPU 0 instructions: 100000000 cycles: 96631629 cumulative IPC: 1.035 (Simulation time: 00 hr 14 min 25 sec)

ChampSim completed all CPUs

=== Simulation ===
CPU 0 runs /data0/tzh/champsim_traces/SPEC17/623.xalancbmk_s-700B.champsimtrace.xz

Region of Interest Statistics

CPU 0 cumulative IPC: 1.035 instructions: 100000000 cycles: 96631629
CPU 0 Branch Prediction Accuracy: 98.01% MPKI: 5.598 Average ROB Occupancy at Mispredict: 50.89
Branch type MPKI
BRANCH_DIRECT_JUMP: 0.1109
BRANCH_INDIRECT: 0.3288
BRANCH_CONDITIONAL: 3.331
BRANCH_DIRECT_CALL: 0.00102
BRANCH_INDIRECT_CALL: 0.3785
BRANCH_RETURN: 1.448

cpu0->cpu0_STLB TOTAL        ACCESS:    3055195 HIT:    2879476 MISS:     175719 MSHR_MERGE:          0
cpu0->cpu0_STLB LOAD         ACCESS:    3055195 HIT:    2879476 MISS:     175719 MSHR_MERGE:          0
cpu0->cpu0_STLB RFO          ACCESS:          0 HIT:          0 MISS:          0 MSHR_MERGE:          0
cpu0->cpu0_STLB PREFETCH     ACCESS:          0 HIT:          0 MISS:          0 MSHR_MERGE:          0
cpu0->cpu0_STLB WRITE        ACCESS:          0 HIT:          0 MISS:          0 MSHR_MERGE:          0
cpu0->cpu0_STLB TRANSLATION  ACCESS:          0 HIT:          0 MISS:          0 MSHR_MERGE:          0
cpu0->cpu0_STLB PREFETCH REQUESTED:          0 ISSUED:          0 USEFUL:          0 USELESS:          0 LATE:          0 TOO_EARLY:          0
cpu0->cpu0_STLB AVERAGE MISS LATENCY: 21.97 cycles
cpu0->cpu0_L2C TOTAL        ACCESS:    6095123 HIT:    5747664 MISS:     347459 MSHR_MERGE:       5581
cpu0->cpu0_L2C LOAD         ACCESS:    5177857 HIT:    4950448 MISS:     227409 MSHR_MERGE:        187
cpu0->cpu0_L2C RFO          ACCESS:     109264 HIT:      23177 MISS:      86087 MSHR_MERGE:         75
cpu0->cpu0_L2C PREFETCH     ACCESS:     446395 HIT:     428152 MISS:      18243 MSHR_MERGE:       5319
cpu0->cpu0_L2C WRITE        ACCESS:     194845 HIT:     194836 MISS:          9 MSHR_MERGE:          0
cpu0->cpu0_L2C TRANSLATION  ACCESS:     166762 HIT:     151051 MISS:      15711 MSHR_MERGE:          0
cpu0->cpu0_L2C PREFETCH REQUESTED:     446601 ISSUED:     446395 USEFUL:      11327 USELESS:       1576 LATE:        262 TOO_EARLY:        198
cpu0->cpu0_L2C AVERAGE MISS LATENCY: 64.73 cycles
cpu0->cpu0_L1I TOTAL        ACCESS:   18112048 HIT:   17770129 MISS:     341919 MSHR_MERGE:     100568
cpu0->cpu0_L1I LOAD         ACCESS:   18112048 HIT:   17770129 MISS:     341919 MSHR_MERGE:     100568
cpu0->cpu0_L1I RFO          ACCESS:          0 HIT:          0 MISS:          0 MSHR_MERGE:          0
cpu0->cpu0_L1I PREFETCH     ACCESS:          0 HIT:          0 MISS:          0 MSHR_MERGE:          0
cpu0->cpu0_L1I WRITE        ACCESS:          0 HIT:          0 MISS:          0 MSHR_MERGE:          0
cpu0->cpu0_L1I TRANSLATION  ACCESS:          0 HIT:          0 MISS:          0 MSHR_MERGE:          0
cpu0->cpu0_L1I PREFETCH REQUESTED:          0 ISSUED:          0 USEFUL:          0 USELESS:          0 LATE:          0 TOO_EARLY:          0
cpu0->cpu0_L1I AVERAGE MISS LATENCY: 9.383 cycles
cpu0->cpu0_L1D TOTAL        ACCESS:   27516969 HIT:   20512685 MISS:    7004284 MSHR_MERGE:    1791750
cpu0->cpu0_L1D LOAD         ACCESS:   20282503 HIT:   13862705 MISS:    6419798 MSHR_MERGE:    1483292
cpu0->cpu0_L1D RFO          ACCESS:          0 HIT:          0 MISS:          0 MSHR_MERGE:          0
cpu0->cpu0_L1D PREFETCH     ACCESS:          0 HIT:          0 MISS:          0 MSHR_MERGE:          0
cpu0->cpu0_L1D WRITE        ACCESS:    6882917 HIT:    6465633 MISS:     417284 MSHR_MERGE:     308018
cpu0->cpu0_L1D TRANSLATION  ACCESS:     351549 HIT:     184347 MISS:     167202 MSHR_MERGE:        440
cpu0->cpu0_L1D PREFETCH REQUESTED:          0 ISSUED:          0 USEFUL:          0 USELESS:          0 LATE:          0 TOO_EARLY:          0
cpu0->cpu0_L1D AVERAGE MISS LATENCY: 12.21 cycles
cpu0->cpu0_ITLB TOTAL        ACCESS:   16943880 HIT:   16853392 MISS:      90488 MSHR_MERGE:      52203
cpu0->cpu0_ITLB LOAD         ACCESS:   16943880 HIT:   16853392 MISS:      90488 MSHR_MERGE:      52203
cpu0->cpu0_ITLB RFO          ACCESS:          0 HIT:          0 MISS:          0 MSHR_MERGE:          0
cpu0->cpu0_ITLB PREFETCH     ACCESS:          0 HIT:          0 MISS:          0 MSHR_MERGE:          0
cpu0->cpu0_ITLB WRITE        ACCESS:          0 HIT:          0 MISS:          0 MSHR_MERGE:          0
cpu0->cpu0_ITLB TRANSLATION  ACCESS:          0 HIT:          0 MISS:          0 MSHR_MERGE:          0
cpu0->cpu0_ITLB PREFETCH REQUESTED:          0 ISSUED:          0 USEFUL:          0 USELESS:          0 LATE:          0 TOO_EARLY:          0
cpu0->cpu0_ITLB AVERAGE MISS LATENCY: 6.402 cycles
cpu0->cpu0_DTLB TOTAL        ACCESS:   26391077 HIT:   21827250 MISS:    4563827 MSHR_MERGE:    1546916
cpu0->cpu0_DTLB LOAD         ACCESS:   26391077 HIT:   21827250 MISS:    4563827 MSHR_MERGE:    1546916
cpu0->cpu0_DTLB RFO          ACCESS:          0 HIT:          0 MISS:          0 MSHR_MERGE:          0
cpu0->cpu0_DTLB PREFETCH     ACCESS:          0 HIT:          0 MISS:          0 MSHR_MERGE:          0
cpu0->cpu0_DTLB WRITE        ACCESS:          0 HIT:          0 MISS:          0 MSHR_MERGE:          0
cpu0->cpu0_DTLB TRANSLATION  ACCESS:          0 HIT:          0 MISS:          0 MSHR_MERGE:          0
cpu0->cpu0_DTLB PREFETCH REQUESTED:          0 ISSUED:          0 USEFUL:          0 USELESS:          0 LATE:          0 TOO_EARLY:          0
cpu0->cpu0_DTLB AVERAGE MISS LATENCY: 6.321 cycles
cpu0->LLC TOTAL        ACCESS:     458618 HIT:     354973 MISS:     103645 MSHR_MERGE:          1
cpu0->LLC LOAD         ACCESS:     227222 HIT:     204623 MISS:      22599 MSHR_MERGE:          0
cpu0->LLC RFO          ACCESS:      86012 HIT:      22530 MISS:      63482 MSHR_MERGE:          0
cpu0->LLC PREFETCH     ACCESS:      12924 HIT:       9056 MISS:       3868 MSHR_MERGE:          1
cpu0->LLC WRITE        ACCESS:     116749 HIT:     104429 MISS:      12320 MSHR_MERGE:          0
cpu0->LLC TRANSLATION  ACCESS:      15711 HIT:      14335 MISS:       1376 MSHR_MERGE:          0
cpu0->LLC PREFETCH REQUESTED:          0 ISSUED:          0 USEFUL:          0 USELESS:          0 LATE:          0 TOO_EARLY:          0
cpu0->LLC AVERAGE MISS LATENCY: 164.2 cycles

DRAM Statistics

Channel 0 RQ ROW_BUFFER_HIT:       1725
  ROW_BUFFER_MISS:      89599
  AVG DBUS CONGESTED CYCLE: 10.02
Channel 0 WQ ROW_BUFFER_HIT:       8470
  ROW_BUFFER_MISS:      72903
  FULL:          0
Channel 0 REFRESHES ISSUED:       8053

[ROI Statistics]
[System Configuration]
num_cpus 1
cpu_freq 4000
fetch_width 6
decode_width 6
dispatch_width 6
execute_width 6
lq_width 2
sq_width 2
retire_width 6
scheduler_size 128
branch_mispredict_penalty 15
rob_size 352
lq_size 128
sq_size 72
ifetch_buffer_size 64
decode_buffer_size 32
dispatch_buffer_size 32
register_file_size 288
decode_latency 1
dispatch_latency 1
schedule_latency 1
execute_latency 1
page_size 4096
block_size 64
core_0_itlb_set 16
core_0_itlb_way 4
core_0_itlb_rq_size 16
core_0_itlb_wq_size 16
core_0_itlb_pq_size 0
core_0_itlb_mshr_size 8
core_0_itlb_hit_latency 1
core_0_itlb_fill_latency 1
core_0_itlb_max_tag_check 2
core_0_itlb_max_fill 2
core_0_dtlb_set 16
core_0_dtlb_way 4
core_0_dtlb_rq_size 16
core_0_dtlb_wq_size 16
core_0_dtlb_pq_size 0
core_0_dtlb_mshr_size 8
core_0_dtlb_hit_latency 1
core_0_dtlb_fill_latency 1
core_0_dtlb_max_tag_check 2
core_0_dtlb_max_fill 2
core_0_stlb_set 128
core_0_stlb_way 12
core_0_stlb_rq_size 32
core_0_stlb_wq_size 32
core_0_stlb_pq_size 0
core_0_stlb_mshr_size 16
core_0_stlb_hit_latency 4
core_0_stlb_fill_latency 4
core_0_stlb_max_tag_check 1
core_0_stlb_max_fill 1
core_0_l1i_set 64
core_0_l1i_way 8
core_0_l1i_rq_size 64
core_0_l1i_wq_size 64
core_0_l1i_pq_size 32
core_0_l1i_mshr_size 8
core_0_l1i_hit_latency 2
core_0_l1i_fill_latency 2
core_0_l1i_max_tag_check 2
core_0_l1i_max_fill 2
core_0_l1d_set 64
core_0_l1d_way 12
core_0_l1d_rq_size 64
core_0_l1d_wq_size 64
core_0_l1d_pq_size 8
core_0_l1d_mshr_size 16
core_0_l1d_hit_latency 2
core_0_l1d_fill_latency 3
core_0_l1d_max_tag_check 2
core_0_l1d_max_fill 2
core_0_l2c_set 1024
core_0_l2c_way 8
core_0_l2c_rq_size 32
core_0_l2c_wq_size 32
core_0_l2c_pq_size 16
core_0_l2c_mshr_size 32
core_0_l2c_hit_latency 5
core_0_l2c_fill_latency 5
core_0_l2c_max_tag_check 1
core_0_l2c_max_fill 1
llc_set 2048
llc_way 16
llc_rq_size 32
llc_wq_size 32
llc_pq_size 32
llc_mshr_size 64
llc_hit_latency 10
llc_fill_latency 10
llc_max_tag_check 1
llc_max_fill 1
dram_channels 1
dram_ranks 1
dram_bankgroups 8
dram_banks 4
dram_rows 65536
dram_columns 1024
dram_channel_width 8
dram_rq_size 64
dram_wq_size 64
dram_size 17179869184
core_0_itlb_prefetcher no
core_0_dtlb_prefetcher no
core_0_stlb_prefetcher no
core_0_l1i_prefetcher next_line
core_0_l1d_prefetcher no
core_0_l2c_prefetcher ip_stride
llc_prefetcher no
llc_replacement drrip

Core_0_instructions 100000000
Core_0_cycles 96631629
Core_0_IPC 1.03486
Core_0_branch_prediction_accuracy 98.0138
Core_0_branch_MPKI 5.59818
Core_0_average_ROB_occupancy_at_mispredict 50.8876

Core_0_ITLB_total_access 16943880
Core_0_ITLB_total_hit 16853392
Core_0_ITLB_total_miss 90488
Core_0_ITLB_total_MPKI 0.90488
Core_0_ITLB_total_miss_rate 0.00534045
Core_0_ITLB_demand_access 16943880
Core_0_ITLB_demand_hit 16853392
Core_0_ITLB_demand_miss 90488
Core_0_ITLB_demand_MPKI 0.90488
Core_0_ITLB_demand_miss_rate 0.00534045
Core_0_ITLB_load_access 16943880
Core_0_ITLB_load_hit 16853392
Core_0_ITLB_load_miss 90488
Core_0_ITLB_load_MPKI 0.90488
Core_0_ITLB_load_miss_rate 0.00534045
Core_0_ITLB_rfo_access 0
Core_0_ITLB_rfo_hit 0
Core_0_ITLB_rfo_miss 0
Core_0_ITLB_rfo_MPKI 0
Core_0_ITLB_rfo_miss_rate 0
Core_0_ITLB_prefetch_access 0
Core_0_ITLB_prefetch_hit 0
Core_0_ITLB_prefetch_miss 0
Core_0_ITLB_prefetch_MPKI 0
Core_0_ITLB_prefetch_miss_rate 0
Core_0_ITLB_writeback_access 0
Core_0_ITLB_writeback_hit 0
Core_0_ITLB_writeback_miss 0
Core_0_ITLB_writeback_MPKI 0
Core_0_ITLB_writeback_miss_rate 0
Core_0_ITLB_prefetch_requested 0
Core_0_ITLB_prefetch_issued 0
Core_0_ITLB_prefetch_useful 0
Core_0_ITLB_prefetch_useless 0
Core_0_ITLB_prefetch_late 0
Core_0_ITLB_prefetch_fill 0
Core_0_ITLB_prefetch_too_early 0
Core_0_ITLB_prefetch_too_early_among_fill 0
Core_0_ITLB_prefetch_too_early_among_useless 0
Core_0_ITLB_prefetch_pollution_evict 0
Core_0_ITLB_prefetch_pollution_demand 0
Core_0_ITLB_prefetch_pollution_among_prefetch_fill 0
Core_0_ITLB_prefetch_accuracy 0
Core_0_ITLB_prefetch_coverage 0

Core_0_DTLB_total_access 26391077
Core_0_DTLB_total_hit 21827250
Core_0_DTLB_total_miss 4563827
Core_0_DTLB_total_MPKI 45.6383
Core_0_DTLB_total_miss_rate 0.172931
Core_0_DTLB_demand_access 26391077
Core_0_DTLB_demand_hit 21827250
Core_0_DTLB_demand_miss 4563827
Core_0_DTLB_demand_MPKI 45.6383
Core_0_DTLB_demand_miss_rate 0.172931
Core_0_DTLB_load_access 26391077
Core_0_DTLB_load_hit 21827250
Core_0_DTLB_load_miss 4563827
Core_0_DTLB_load_MPKI 45.6383
Core_0_DTLB_load_miss_rate 0.172931
Core_0_DTLB_rfo_access 0
Core_0_DTLB_rfo_hit 0
Core_0_DTLB_rfo_miss 0
Core_0_DTLB_rfo_MPKI 0
Core_0_DTLB_rfo_miss_rate 0
Core_0_DTLB_prefetch_access 0
Core_0_DTLB_prefetch_hit 0
Core_0_DTLB_prefetch_miss 0
Core_0_DTLB_prefetch_MPKI 0
Core_0_DTLB_prefetch_miss_rate 0
Core_0_DTLB_writeback_access 0
Core_0_DTLB_writeback_hit 0
Core_0_DTLB_writeback_miss 0
Core_0_DTLB_writeback_MPKI 0
Core_0_DTLB_writeback_miss_rate 0
Core_0_DTLB_prefetch_requested 0
Core_0_DTLB_prefetch_issued 0
Core_0_DTLB_prefetch_useful 0
Core_0_DTLB_prefetch_useless 0
Core_0_DTLB_prefetch_late 0
Core_0_DTLB_prefetch_fill 0
Core_0_DTLB_prefetch_too_early 0
Core_0_DTLB_prefetch_too_early_among_fill 0
Core_0_DTLB_prefetch_too_early_among_useless 0
Core_0_DTLB_prefetch_pollution_evict 0
Core_0_DTLB_prefetch_pollution_demand 0
Core_0_DTLB_prefetch_pollution_among_prefetch_fill 0
Core_0_DTLB_prefetch_accuracy 0
Core_0_DTLB_prefetch_coverage 0

Core_0_STLB_total_access 3055195
Core_0_STLB_total_hit 2879476
Core_0_STLB_total_miss 175719
Core_0_STLB_total_MPKI 1.75719
Core_0_STLB_total_miss_rate 0.0575148
Core_0_STLB_demand_access 3055195
Core_0_STLB_demand_hit 2879476
Core_0_STLB_demand_miss 175719
Core_0_STLB_demand_MPKI 1.75719
Core_0_STLB_demand_miss_rate 0.0575148
Core_0_STLB_load_access 3055195
Core_0_STLB_load_hit 2879476
Core_0_STLB_load_miss 175719
Core_0_STLB_load_MPKI 1.75719
Core_0_STLB_load_miss_rate 0.0575148
Core_0_STLB_rfo_access 0
Core_0_STLB_rfo_hit 0
Core_0_STLB_rfo_miss 0
Core_0_STLB_rfo_MPKI 0
Core_0_STLB_rfo_miss_rate 0
Core_0_STLB_prefetch_access 0
Core_0_STLB_prefetch_hit 0
Core_0_STLB_prefetch_miss 0
Core_0_STLB_prefetch_MPKI 0
Core_0_STLB_prefetch_miss_rate 0
Core_0_STLB_writeback_access 0
Core_0_STLB_writeback_hit 0
Core_0_STLB_writeback_miss 0
Core_0_STLB_writeback_MPKI 0
Core_0_STLB_writeback_miss_rate 0
Core_0_STLB_prefetch_requested 0
Core_0_STLB_prefetch_issued 0
Core_0_STLB_prefetch_useful 0
Core_0_STLB_prefetch_useless 0
Core_0_STLB_prefetch_late 0
Core_0_STLB_prefetch_fill 0
Core_0_STLB_prefetch_too_early 0
Core_0_STLB_prefetch_too_early_among_fill 0
Core_0_STLB_prefetch_too_early_among_useless 0
Core_0_STLB_prefetch_pollution_evict 0
Core_0_STLB_prefetch_pollution_demand 0
Core_0_STLB_prefetch_pollution_among_prefetch_fill 0
Core_0_STLB_prefetch_accuracy 0
Core_0_STLB_prefetch_coverage 0

Core_0_L1I_total_access 18112048
Core_0_L1I_total_hit 17770129
Core_0_L1I_total_miss 341919
Core_0_L1I_total_MPKI 3.41919
Core_0_L1I_total_miss_rate 0.018878
Core_0_L1I_demand_access 18112048
Core_0_L1I_demand_hit 17770129
Core_0_L1I_demand_miss 341919
Core_0_L1I_demand_MPKI 3.41919
Core_0_L1I_demand_miss_rate 0.018878
Core_0_L1I_load_access 18112048
Core_0_L1I_load_hit 17770129
Core_0_L1I_load_miss 341919
Core_0_L1I_load_MPKI 3.41919
Core_0_L1I_load_miss_rate 0.018878
Core_0_L1I_rfo_access 0
Core_0_L1I_rfo_hit 0
Core_0_L1I_rfo_miss 0
Core_0_L1I_rfo_MPKI 0
Core_0_L1I_rfo_miss_rate 0
Core_0_L1I_prefetch_access 0
Core_0_L1I_prefetch_hit 0
Core_0_L1I_prefetch_miss 0
Core_0_L1I_prefetch_MPKI 0
Core_0_L1I_prefetch_miss_rate 0
Core_0_L1I_writeback_access 0
Core_0_L1I_writeback_hit 0
Core_0_L1I_writeback_miss 0
Core_0_L1I_writeback_MPKI 0
Core_0_L1I_writeback_miss_rate 0
Core_0_L1I_prefetch_requested 0
Core_0_L1I_prefetch_issued 0
Core_0_L1I_prefetch_useful 0
Core_0_L1I_prefetch_useless 0
Core_0_L1I_prefetch_late 0
Core_0_L1I_prefetch_fill 0
Core_0_L1I_prefetch_too_early 0
Core_0_L1I_prefetch_too_early_among_fill 0
Core_0_L1I_prefetch_too_early_among_useless 0
Core_0_L1I_prefetch_pollution_evict 0
Core_0_L1I_prefetch_pollution_demand 0
Core_0_L1I_prefetch_pollution_among_prefetch_fill 0
Core_0_L1I_prefetch_accuracy 0
Core_0_L1I_prefetch_coverage 0

Core_0_L1D_total_access 27165420
Core_0_L1D_total_hit 20328338
Core_0_L1D_total_miss 6837082
Core_0_L1D_total_MPKI 68.3708
Core_0_L1D_total_miss_rate 0.251683
Core_0_L1D_demand_access 20282503
Core_0_L1D_demand_hit 13862705
Core_0_L1D_demand_miss 6419798
Core_0_L1D_demand_MPKI 64.198
Core_0_L1D_demand_miss_rate 0.316519
Core_0_L1D_load_access 20282503
Core_0_L1D_load_hit 13862705
Core_0_L1D_load_miss 6419798
Core_0_L1D_load_MPKI 64.198
Core_0_L1D_load_miss_rate 0.316519
Core_0_L1D_rfo_access 0
Core_0_L1D_rfo_hit 0
Core_0_L1D_rfo_miss 0
Core_0_L1D_rfo_MPKI 0
Core_0_L1D_rfo_miss_rate 0
Core_0_L1D_prefetch_access 0
Core_0_L1D_prefetch_hit 0
Core_0_L1D_prefetch_miss 0
Core_0_L1D_prefetch_MPKI 0
Core_0_L1D_prefetch_miss_rate 0
Core_0_L1D_writeback_access 6882917
Core_0_L1D_writeback_hit 6465633
Core_0_L1D_writeback_miss 417284
Core_0_L1D_writeback_MPKI 4.17284
Core_0_L1D_writeback_miss_rate 0.060626
Core_0_L1D_prefetch_requested 0
Core_0_L1D_prefetch_issued 0
Core_0_L1D_prefetch_useful 0
Core_0_L1D_prefetch_useless 0
Core_0_L1D_prefetch_late 0
Core_0_L1D_prefetch_fill 0
Core_0_L1D_prefetch_too_early 0
Core_0_L1D_prefetch_too_early_among_fill 0
Core_0_L1D_prefetch_too_early_among_useless 0
Core_0_L1D_prefetch_pollution_evict 0
Core_0_L1D_prefetch_pollution_demand 0
Core_0_L1D_prefetch_pollution_among_prefetch_fill 0
Core_0_L1D_prefetch_accuracy 0
Core_0_L1D_prefetch_coverage 0

Core_0_L2C_total_access 5928361
Core_0_L2C_total_hit 5596613
Core_0_L2C_total_miss 331748
Core_0_L2C_total_MPKI 3.31748
Core_0_L2C_total_miss_rate 0.0559595
Core_0_L2C_demand_access 5287121
Core_0_L2C_demand_hit 4973625
Core_0_L2C_demand_miss 313496
Core_0_L2C_demand_MPKI 3.13496
Core_0_L2C_demand_miss_rate 0.0592943
Core_0_L2C_load_access 5177857
Core_0_L2C_load_hit 4950448
Core_0_L2C_load_miss 227409
Core_0_L2C_load_MPKI 2.27409
Core_0_L2C_load_miss_rate 0.0439195
Core_0_L2C_rfo_access 109264
Core_0_L2C_rfo_hit 23177
Core_0_L2C_rfo_miss 86087
Core_0_L2C_rfo_MPKI 0.86087
Core_0_L2C_rfo_miss_rate 0.787881
Core_0_L2C_prefetch_access 446395
Core_0_L2C_prefetch_hit 428152
Core_0_L2C_prefetch_miss 18243
Core_0_L2C_prefetch_MPKI 0.18243
Core_0_L2C_prefetch_miss_rate 0.0408674
Core_0_L2C_writeback_access 194845
Core_0_L2C_writeback_hit 194836
Core_0_L2C_writeback_miss 9
Core_0_L2C_writeback_MPKI 9e-05
Core_0_L2C_writeback_miss_rate 4.61906e-05
Core_0_L2C_prefetch_requested 446601
Core_0_L2C_prefetch_issued 446395
Core_0_L2C_prefetch_useful 11327
Core_0_L2C_prefetch_useless 1576
Core_0_L2C_prefetch_late 262
Core_0_L2C_prefetch_fill 12651
Core_0_L2C_prefetch_too_early 198
Core_0_L2C_prefetch_too_early_among_fill 0.0156509
Core_0_L2C_prefetch_too_early_among_useless 0.125635
Core_0_L2C_prefetch_pollution_evict 8771
Core_0_L2C_prefetch_pollution_demand 8765
Core_0_L2C_prefetch_pollution_among_prefetch_fill 0.693305
Core_0_L2C_prefetch_accuracy 0.0253744
Core_0_L2C_prefetch_coverage 0.0348713

Core_0_LLC_total_access 442907
Core_0_LLC_total_hit 340638
Core_0_LLC_total_miss 102269
Core_0_LLC_total_MPKI 1.02269
Core_0_LLC_total_miss_rate 0.230904
Core_0_LLC_demand_access 313234
Core_0_LLC_demand_hit 227153
Core_0_LLC_demand_miss 86081
Core_0_LLC_demand_MPKI 0.86081
Core_0_LLC_demand_miss_rate 0.274814
Core_0_LLC_load_access 227222
Core_0_LLC_load_hit 204623
Core_0_LLC_load_miss 22599
Core_0_LLC_load_MPKI 0.22599
Core_0_LLC_load_miss_rate 0.0994578
Core_0_LLC_rfo_access 86012
Core_0_LLC_rfo_hit 22530
Core_0_LLC_rfo_miss 63482
Core_0_LLC_rfo_MPKI 0.63482
Core_0_LLC_rfo_miss_rate 0.73806
Core_0_LLC_prefetch_access 12924
Core_0_LLC_prefetch_hit 9056
Core_0_LLC_prefetch_miss 3868
Core_0_LLC_prefetch_MPKI 0.03868
Core_0_LLC_prefetch_miss_rate 0.299288
Core_0_LLC_writeback_access 116749
Core_0_LLC_writeback_hit 104429
Core_0_LLC_writeback_miss 12320
Core_0_LLC_writeback_MPKI 0.1232
Core_0_LLC_writeback_miss_rate 0.105526
Core_0_LLC_prefetch_requested 0
Core_0_LLC_prefetch_issued 0
Core_0_LLC_prefetch_useful 0
Core_0_LLC_prefetch_useless 0
Core_0_LLC_prefetch_late 0
Core_0_LLC_prefetch_fill 3867
Core_0_LLC_prefetch_too_early 0
Core_0_LLC_prefetch_too_early_among_fill 0
Core_0_LLC_prefetch_too_early_among_useless 0
Core_0_LLC_prefetch_pollution_evict 1671
Core_0_LLC_prefetch_pollution_demand 1671
Core_0_LLC_prefetch_pollution_among_prefetch_fill 0.432118
Core_0_LLC_prefetch_accuracy 0
Core_0_LLC_prefetch_coverage 0

[DRAM Statistics]
Channel_0_RQ_row_buffer_hit 1725
Channel_0_RQ_row_buffer_miss 89599
Channel_0_WQ_row_buffer_hit 8470
Channel_0_WQ_row_buffer_miss 72903
Channel_0_WQ_full 0
Channel_0_dbus_congested 444656
DRAM_total_RQ_row_buffer_hit 1725
DRAM_total_RQ_row_buffer_miss 89599
DRAM_total_WQ_row_buffer_hit 8470
DRAM_total_WQ_row_buffer_miss 72903
DRAM_total_WQ_full 0
DRAM_total_dbus_congested 444656
DRAM_avg_congested_cycle 10.0218

====== DRAM_RQ_TRAFFIC ========
DRAM_RQ_READ_TRAFFIC_BREAKDOWN:
data_demand_read.count = 83856
data_demand_read.share = 91.82%

inst_demand_read.count = 2225
inst_demand_read.share = 2.44%

cache_inst_prefetch.count = 0
cache_inst_prefetch.share = 0.00%

cache_data_prefetch.count = 3867
cache_data_prefetch.share = 4.23%

stlb_data_demand.count = 1325
stlb_data_demand.share = 1.45%

stlb_inst_demand.count = 51
stlb_inst_demand.share = 0.06%

stlb_l1i_pref.count = 0
stlb_l1i_pref.share = 0.00%

stlb_l1d_pref.count = 0
stlb_l1d_pref.share = 0.00%

DRAM_RQ_READ_TRAFFIC_SUMMARY:
cache_demand.count = 86081
cache_demand.share = 94.26%

cache_prefetch.count = 3867
cache_prefetch.share = 4.23%

stlb_demand.count = 1376
stlb_demand.share = 1.51%

stlb_prefetch.count = 0
stlb_prefetch.share = 0.00%

DRAM_RQ_READ_TRAFFIC_DEBUG:
total_classified_read.count = 91324
unclassified_read.count = 0
total_read_with_other.count = 91324

classified_plus_unclassified_check.count = 91324
dram_rq_read_total_observed.count = 91324
dram_rq_read_total_observed.per_1K_instructions = 0.91324

STLB_MISS_PTW_DRAM_TOUCH_BREAKDOWN:
stlb_miss_total.count = 175719

stlb_miss_touch_dram.count = 1373
stlb_miss_touch_dram.share = 0.78%

stlb_miss_no_dram_touch.count = 174346
stlb_miss_no_dram_touch.share = 99.22%

STLB_MISS_PTW_DRAM_TOUCH_DEBUG:
stlb_miss_touch_plus_no_touch.count = 175719
stlb_miss_total_check.count = 175719

======STLB miss causes ========
Core_0_STLB_miss_cause_breakdown
Core_0_STLB_cause_Demand_Data_miss 174057
Core_0_STLB_cause_Demand_Data_miss_rate 0.0569708
Core_0_STLB_cause_Demand_Instruction_miss 1662
Core_0_STLB_cause_Demand_Instruction_miss_rate 0.000543991
Core_0_STLB_cause_L1D_Prefetch_miss 0
Core_0_STLB_cause_L1D_Prefetch_miss_rate 0
Core_0_STLB_cause_L1D_Prefetch_Same_Page_miss 0
Core_0_STLB_cause_L1D_Prefetch_Same_Page_miss_rate 0
Core_0_STLB_cause_L1D_Prefetch_Cross_Page_miss 0
Core_0_STLB_cause_L1D_Prefetch_Cross_Page_miss_rate 0
Core_0_STLB_cause_L1I_Prefetch_miss 0
Core_0_STLB_cause_L1I_Prefetch_miss_rate 0
Core_0_STLB_cause_Other_miss 0
Core_0_STLB_cause_Other_miss_rate 0
Core_0_STLB_Demand_miss 175719
Core_0_STLB_Demand_miss_rate 0.0575148
Core_0_STLB_L1D_Prefetch_miss 0
Core_0_STLB_L1D_Prefetch_miss_rate 0
Core_0_STLB_Other_miss 0
Core_0_STLB_Other_miss_rate 0

========== vBerti-TLB Cross-page Flow Stats ==========

Core_0_vBerti_Requested 0
Core_0_vBerti_Cross_page_prefetch_in_Requested 0
Core_0_vBerti_Same_page_prefetch_in_Requested 0
Core_0_vBerti_Cross_page_prefetch_of_Requested 0
Core_0_vBerti_Issued 0
Core_0_vBerti_PQ_Drop_Rate 0
Core_0_vBerti_InPQ_Cross_page_prefetch_of_Requested 0
Core_0_vBerti_Cross_page_PQ_Drop_rate 0
Core_0_vBerti_Cross_page_prefetch_of_Issued 0

========= DTLB_vBerti Prefetch Stats =========
Core_0_DTLB_demand_access 26391077
Core_0_DTLB_demand_hit 21827250
Core_0_DTLB_demand_miss 4563827
Core_0_DTLB_demand_mshr_merge 1546916
Core_0_DTLB_demand_fill 3016910
Core_0_DTLB_demand_miss_rate 0.172931
Core_0_DTLB_demand_mpki 45.6383
Core_0_DTLB_vberti_prefetch_access 0
Core_0_DTLB_vberti_prefetch_hit 0
Core_0_DTLB_vberti_prefetch_miss 0
Core_0_DTLB_vberti_prefetch_mshr_merge 0
Core_0_DTLB_vberti_prefetch_fill 0
Core_0_DTLB_vberti_prefetch_miss_rate 0
Core_0_DTLB_vberti_prefetch_mpki 0

=== DTLB_vBerti Same/Cross-page Prefetch Stats ===
Core_0_DTLB_vberti_same_page_prefetch 0
Core_0_DTLB_vberti_same_page_prefetch_hit 0
Core_0_DTLB_vberti_same_page_prefetch_miss 0
Core_0_DTLB_vberti_same_page_prefetch_mshr_merge 0
Core_0_DTLB_vberti_same_page_prefetch_fill 0
Core_0_DTLB_vberti_same_page_prefetch_miss_rate 0
Core_0_DTLB_vberti_same_page_prefetch_mpki 0
Core_0_DTLB_vberti_cross_page_prefetch 0
Core_0_DTLB_vberti_cross_page_prefetch_hit 0
Core_0_DTLB_vberti_cross_page_prefetch_miss 0
Core_0_DTLB_vberti_cross_page_prefetch_mshr_merge 0
Core_0_DTLB_vberti_cross_page_prefetch_fill 0
Core_0_DTLB_vberti_cross_page_prefetch_miss_rate 0
Core_0_DTLB_vberti_cross_page_prefetch_mpki 0
Core_0_DTLB_same_page_prefetch_miss_rate 0
Core_0_DTLB_same_page_prefetch_mpki 0
Core_0_DTLB_cross_page_prefetch_miss_rate 0
Core_0_DTLB_cross_page_prefetch_mpki 0
Core_0_DTLB_cross_page_prefetch_issued 0
Core_0_DTLB_cross_page_prefetch_lookups 0
Core_0_DTLB_cross_page_prefetch_useful 0
Core_0_DTLB_cross_page_prefetch_useless 0
Core_0_DTLB_cross_page_prefetch_late 0
Core_0_DTLB_cross_page_prefetch_too_early 0
Core_0_DTLB_cross_page_prefetch_too_early_among_fill 0
Core_0_DTLB_cross_page_prefetch_too_early_among_useless 0
Core_0_DTLB_cross_page_prefetch_pollution_evict 0
Core_0_DTLB_cross_page_prefetch_pollution_demand 0
Core_0_DTLB_cross_page_prefetch_pollution_among_prefetch_fill 0
Core_0_DTLB_cross_page_prefetch_accuracy 0
Core_0_DTLB_cross_page_prefetch_coverage 0

========= STLB_vBerti Prefetch Stats =========
Core_0_STLB_demand_access 3055195
Core_0_STLB_demand_hit 2879476
Core_0_STLB_demand_miss 175719
Core_0_STLB_demand_mshr_merge 0
Core_0_STLB_demand_fill 175719
Core_0_STLB_demand_miss_rate 0.0575148
Core_0_STLB_demand_mpki 1.75719
Core_0_STLB_vberti_prefetch_access 0
Core_0_STLB_vberti_prefetch_hit 0
Core_0_STLB_vberti_prefetch_miss 0
Core_0_STLB_vberti_prefetch_mshr_merge 0
Core_0_STLB_vberti_prefetch_fill 0
Core_0_STLB_vberti_prefetch_miss_rate 0
Core_0_STLB_vberti_prefetch_mpki 0

=== STLB_vBerti Same/Cross-page Prefetch Stats ===
Core_0_STLB_vberti_same_page_prefetch 0
Core_0_STLB_vberti_same_page_prefetch_hit 0
Core_0_STLB_vberti_same_page_prefetch_miss 0
Core_0_STLB_vberti_same_page_prefetch_mshr_merge 0
Core_0_STLB_vberti_same_page_prefetch_fill 0
Core_0_STLB_vberti_same_page_prefetch_miss_rate 0
Core_0_STLB_vberti_same_page_prefetch_mpki 0
Core_0_STLB_vberti_cross_page_prefetch 0
Core_0_STLB_vberti_cross_page_prefetch_hit 0
Core_0_STLB_vberti_cross_page_prefetch_miss 0
Core_0_STLB_vberti_cross_page_prefetch_mshr_merge 0
Core_0_STLB_vberti_cross_page_prefetch_fill 0
Core_0_STLB_vberti_cross_page_prefetch_miss_rate 0
Core_0_STLB_vberti_cross_page_prefetch_mpki 0
Core_0_STLB_same_page_prefetch_miss_rate 0
Core_0_STLB_same_page_prefetch_mpki 0
Core_0_STLB_cross_page_prefetch_miss_rate 0
Core_0_STLB_cross_page_prefetch_mpki 0
Core_0_STLB_cross_page_prefetch_issued 0
Core_0_STLB_cross_page_prefetch_lookups 0
Core_0_STLB_cross_page_prefetch_useful 0
Core_0_STLB_cross_page_prefetch_useless 0
Core_0_STLB_cross_page_prefetch_late 0
Core_0_STLB_cross_page_prefetch_too_early 0
Core_0_STLB_cross_page_prefetch_too_early_among_fill 0
Core_0_STLB_cross_page_prefetch_too_early_among_useless 0
Core_0_STLB_cross_page_prefetch_pollution_evict 0
Core_0_STLB_cross_page_prefetch_pollution_demand 0
Core_0_STLB_cross_page_prefetch_pollution_among_prefetch_fill 0
Core_0_STLB_cross_page_prefetch_accuracy 0
Core_0_STLB_cross_page_prefetch_coverage 0

========= STLB Cross-page Prefetch Buffer Stats =========
Core_0_STLB_raw_demand_miss 174057
Core_0_CP_PB_insert 0
Core_0_CP_PB_demand_hit 0
Core_0_STLB_PB_demand_miss 174057
Core_0_CP_PB_coverage 0
Core_0_STLB_raw_demand_mpki 1.74057
Core_0_STLB_PB_demand_mpki 1.74057
Core_0_CP_PB_demand_hit_mpki 0

Core_0_TLB_demand_miss_rate 0.00665827
Core_0_TLB_demand_mpki 1.75719
Core_0_TLB_same_page_prefetch_miss_rate 0
Core_0_TLB_same_page_prefetch_mpki 0
Core_0_TLB_cross_page_prefetch_miss_rate 0
Core_0_TLB_cross_page_prefetch_mpki 0
Core_0_TLB_cross_page_prefetch_issued 0
Core_0_TLB_cross_page_prefetch_lookups 0
Core_0_TLB_cross_page_prefetch_useful 0
Core_0_TLB_cross_page_prefetch_useless 0
Core_0_TLB_cross_page_prefetch_late 0
Core_0_TLB_cross_page_prefetch_too_early 0
Core_0_TLB_cross_page_prefetch_too_early_among_fill 0
Core_0_TLB_cross_page_prefetch_too_early_among_useless 0
Core_0_TLB_cross_page_prefetch_accuracy 0
Core_0_TLB_cross_page_prefetch_coverage 0
