[VMEM] WARNING: physical memory size is smaller than virtual memory size.

*** ChampSim Multicore Out-of-Order Simulator ***
Warmup Instructions: 50000000
Simulation Instructions: 100000000
Number of CPUs: 1
Page size: 4096
Core 0: /data0/tzh/champsim_traces/PARSEC/parsec_2.1.canneal.simlarge.prebuilt.drop_4750M.length_250M.champsimtrace.xz
Off-chip DRAM Size: 16 GiB Channels: 1 Width: 64-bit Data Rate: 3205 MT/s
Warmup halting CPU 0 at instruction 50000003 cycle 13847331 for remainder of phase
Warmup finished CPU 0 instructions: 50000003 cycles: 13847331 cumulative IPC: 3.611 (Simulation time: 00 hr 02 min 53 sec)
Warmup complete CPU 0 instructions: 50000003 cycles: 13847331 cumulative IPC: 3.611 (Simulation time: 00 hr 02 min 53 sec)
Simulation finished CPU 0 instructions: 100000002 cycles: 335019677 cumulative IPC: 0.2985 (Simulation time: 00 hr 33 min 04 sec)
Simulation complete CPU 0 instructions: 100000002 cycles: 335019677 cumulative IPC: 0.2985 (Simulation time: 00 hr 33 min 04 sec)

ChampSim completed all CPUs

=== Simulation ===
CPU 0 runs /data0/tzh/champsim_traces/PARSEC/parsec_2.1.canneal.simlarge.prebuilt.drop_4750M.length_250M.champsimtrace.xz

Region of Interest Statistics

CPU 0 cumulative IPC: 0.2985 instructions: 100000002 cycles: 335019677
CPU 0 Branch Prediction Accuracy: 96.81% MPKI: 2.754 Average ROB Occupancy at Mispredict: 189.6
Branch type MPKI
BRANCH_DIRECT_JUMP: 0.00038
BRANCH_INDIRECT: 2e-05
BRANCH_CONDITIONAL: 2.751
BRANCH_DIRECT_CALL: 0.00046
BRANCH_INDIRECT_CALL: 0
BRANCH_RETURN: 0.00159

cpu0->cpu0_STLB TOTAL        ACCESS:    2500562 HIT:    1273543 MISS:    1227019 MSHR_MERGE:          0
cpu0->cpu0_STLB LOAD         ACCESS:    2500562 HIT:    1273543 MISS:    1227019 MSHR_MERGE:          0
cpu0->cpu0_STLB RFO          ACCESS:          0 HIT:          0 MISS:          0 MSHR_MERGE:          0
cpu0->cpu0_STLB PREFETCH     ACCESS:          0 HIT:          0 MISS:          0 MSHR_MERGE:          0
cpu0->cpu0_STLB WRITE        ACCESS:          0 HIT:          0 MISS:          0 MSHR_MERGE:          0
cpu0->cpu0_STLB TRANSLATION  ACCESS:          0 HIT:          0 MISS:          0 MSHR_MERGE:          0
cpu0->cpu0_STLB PREFETCH REQUESTED:          0 ISSUED:          0 USEFUL:          0 USELESS:          0 LATE:          0 TOO_EARLY:          0
cpu0->cpu0_STLB AVERAGE MISS LATENCY: 32.13 cycles
cpu0->cpu0_L2C TOTAL        ACCESS:    4473876 HIT:    2083467 MISS:    2390409 MSHR_MERGE:       7105
cpu0->cpu0_L2C LOAD         ACCESS:    2338571 HIT:     218488 MISS:    2120083 MSHR_MERGE:       1989
cpu0->cpu0_L2C RFO          ACCESS:       2757 HIT:       2365 MISS:        392 MSHR_MERGE:          0
cpu0->cpu0_L2C PREFETCH     ACCESS:     155972 HIT:     121094 MISS:      34878 MSHR_MERGE:       5116
cpu0->cpu0_L2C WRITE        ACCESS:     977285 HIT:     977284 MISS:          1 MSHR_MERGE:          0
cpu0->cpu0_L2C TRANSLATION  ACCESS:     999291 HIT:     764236 MISS:     235055 MSHR_MERGE:          0
cpu0->cpu0_L2C PREFETCH REQUESTED:     155972 ISSUED:     155972 USEFUL:       9864 USELESS:      19903 LATE:       1989 TOO_EARLY:       9289
cpu0->cpu0_L2C AVERAGE MISS LATENCY: 181 cycles
cpu0->cpu0_L1I TOTAL        ACCESS:    7721542 HIT:    7721428 MISS:        114 MSHR_MERGE:         11
cpu0->cpu0_L1I LOAD         ACCESS:    7721542 HIT:    7721428 MISS:        114 MSHR_MERGE:         11
cpu0->cpu0_L1I RFO          ACCESS:          0 HIT:          0 MISS:          0 MSHR_MERGE:          0
cpu0->cpu0_L1I PREFETCH     ACCESS:          0 HIT:          0 MISS:          0 MSHR_MERGE:          0
cpu0->cpu0_L1I WRITE        ACCESS:          0 HIT:          0 MISS:          0 MSHR_MERGE:          0
cpu0->cpu0_L1I TRANSLATION  ACCESS:          0 HIT:          0 MISS:          0 MSHR_MERGE:          0
cpu0->cpu0_L1I PREFETCH REQUESTED:          0 ISSUED:          0 USEFUL:          0 USELESS:          0 LATE:          0 TOO_EARLY:          0
cpu0->cpu0_L1I AVERAGE MISS LATENCY: 211.7 cycles
cpu0->cpu0_L1D TOTAL        ACCESS:   27286717 HIT:   22755789 MISS:    4530928 MSHR_MERGE:    1190412
cpu0->cpu0_L1D LOAD         ACCESS:   18647750 HIT:   15120708 MISS:    3527042 MSHR_MERGE:    1188574
cpu0->cpu0_L1D RFO          ACCESS:          0 HIT:          0 MISS:          0 MSHR_MERGE:          0
cpu0->cpu0_L1D PREFETCH     ACCESS:          0 HIT:          0 MISS:          0 MSHR_MERGE:          0
cpu0->cpu0_L1D WRITE        ACCESS:    6041622 HIT:    6037756 MISS:       3866 MSHR_MERGE:       1109
cpu0->cpu0_L1D TRANSLATION  ACCESS:    2597345 HIT:    1597325 MISS:    1000020 MSHR_MERGE:        729
cpu0->cpu0_L1D PREFETCH REQUESTED:          0 ISSUED:          0 USEFUL:          0 USELESS:          0 LATE:          0 TOO_EARLY:          0
cpu0->cpu0_L1D AVERAGE MISS LATENCY: 136.4 cycles
cpu0->cpu0_ITLB TOTAL        ACCESS:    7022526 HIT:    7022518 MISS:          8 MSHR_MERGE:          1
cpu0->cpu0_ITLB LOAD         ACCESS:    7022526 HIT:    7022518 MISS:          8 MSHR_MERGE:          1
cpu0->cpu0_ITLB RFO          ACCESS:          0 HIT:          0 MISS:          0 MSHR_MERGE:          0
cpu0->cpu0_ITLB PREFETCH     ACCESS:          0 HIT:          0 MISS:          0 MSHR_MERGE:          0
cpu0->cpu0_ITLB WRITE        ACCESS:          0 HIT:          0 MISS:          0 MSHR_MERGE:          0
cpu0->cpu0_ITLB TRANSLATION  ACCESS:          0 HIT:          0 MISS:          0 MSHR_MERGE:          0
cpu0->cpu0_ITLB PREFETCH REQUESTED:          0 ISSUED:          0 USEFUL:          0 USELESS:          0 LATE:          0 TOO_EARLY:          0
cpu0->cpu0_ITLB AVERAGE MISS LATENCY: 304.9 cycles
cpu0->cpu0_DTLB TOTAL        ACCESS:   24341400 HIT:   20942028 MISS:    3399372 MSHR_MERGE:     898817
cpu0->cpu0_DTLB LOAD         ACCESS:   24341400 HIT:   20942028 MISS:    3399372 MSHR_MERGE:     898817
cpu0->cpu0_DTLB RFO          ACCESS:          0 HIT:          0 MISS:          0 MSHR_MERGE:          0
cpu0->cpu0_DTLB PREFETCH     ACCESS:          0 HIT:          0 MISS:          0 MSHR_MERGE:          0
cpu0->cpu0_DTLB WRITE        ACCESS:          0 HIT:          0 MISS:          0 MSHR_MERGE:          0
cpu0->cpu0_DTLB TRANSLATION  ACCESS:          0 HIT:          0 MISS:          0 MSHR_MERGE:          0
cpu0->cpu0_DTLB PREFETCH REQUESTED:          0 ISSUED:          0 USEFUL:          0 USELESS:          0 LATE:          0 TOO_EARLY:          0
cpu0->cpu0_DTLB AVERAGE MISS LATENCY: 21.26 cycles
cpu0->LLC TOTAL        ACCESS:    3316991 HIT:    1193500 MISS:    2123491 MSHR_MERGE:          0
cpu0->LLC LOAD         ACCESS:    2118094 HIT:     189951 MISS:    1928143 MSHR_MERGE:          0
cpu0->LLC RFO          ACCESS:        392 HIT:        110 MISS:        282 MSHR_MERGE:          0
cpu0->LLC PREFETCH     ACCESS:      29762 HIT:       4290 MISS:      25472 MSHR_MERGE:          0
cpu0->LLC WRITE        ACCESS:     933688 HIT:     828523 MISS:     105165 MSHR_MERGE:          0
cpu0->LLC TRANSLATION  ACCESS:     235055 HIT:     170626 MISS:      64429 MSHR_MERGE:          0
cpu0->LLC PREFETCH REQUESTED:          0 ISSUED:          0 USEFUL:          0 USELESS:          0 LATE:          0 TOO_EARLY:          0
cpu0->LLC AVERAGE MISS LATENCY: 185.8 cycles

DRAM Statistics

Channel 0 RQ ROW_BUFFER_HIT:        140
  ROW_BUFFER_MISS:    2018161
  AVG DBUS CONGESTED CYCLE: 15.75
Channel 0 WQ ROW_BUFFER_HIT:     336778
  ROW_BUFFER_MISS:     564726
  FULL:          0
Channel 0 REFRESHES ISSUED:      27919

[ROI Statistics]
[System Configuration]
num_cpus 1
cpu_freq 4000
fetch_width 6
decode_width 6
dispatch_width 6
execute_width 6
lq_width 2
sq_width 2
retire_width 6
scheduler_size 128
branch_mispredict_penalty 15
rob_size 352
lq_size 128
sq_size 72
ifetch_buffer_size 64
decode_buffer_size 32
dispatch_buffer_size 32
register_file_size 288
decode_latency 1
dispatch_latency 1
schedule_latency 1
execute_latency 1
page_size 4096
block_size 64
core_0_itlb_set 16
core_0_itlb_way 4
core_0_itlb_rq_size 16
core_0_itlb_wq_size 16
core_0_itlb_pq_size 0
core_0_itlb_mshr_size 8
core_0_itlb_hit_latency 1
core_0_itlb_fill_latency 1
core_0_itlb_max_tag_check 2
core_0_itlb_max_fill 2
core_0_dtlb_set 16
core_0_dtlb_way 4
core_0_dtlb_rq_size 16
core_0_dtlb_wq_size 16
core_0_dtlb_pq_size 0
core_0_dtlb_mshr_size 8
core_0_dtlb_hit_latency 1
core_0_dtlb_fill_latency 1
core_0_dtlb_max_tag_check 2
core_0_dtlb_max_fill 2
core_0_stlb_set 128
core_0_stlb_way 12
core_0_stlb_rq_size 32
core_0_stlb_wq_size 32
core_0_stlb_pq_size 0
core_0_stlb_mshr_size 16
core_0_stlb_hit_latency 4
core_0_stlb_fill_latency 4
core_0_stlb_max_tag_check 1
core_0_stlb_max_fill 1
core_0_l1i_set 64
core_0_l1i_way 8
core_0_l1i_rq_size 64
core_0_l1i_wq_size 64
core_0_l1i_pq_size 32
core_0_l1i_mshr_size 8
core_0_l1i_hit_latency 2
core_0_l1i_fill_latency 2
core_0_l1i_max_tag_check 2
core_0_l1i_max_fill 2
core_0_l1d_set 64
core_0_l1d_way 12
core_0_l1d_rq_size 64
core_0_l1d_wq_size 64
core_0_l1d_pq_size 8
core_0_l1d_mshr_size 16
core_0_l1d_hit_latency 2
core_0_l1d_fill_latency 3
core_0_l1d_max_tag_check 2
core_0_l1d_max_fill 2
core_0_l2c_set 1024
core_0_l2c_way 8
core_0_l2c_rq_size 32
core_0_l2c_wq_size 32
core_0_l2c_pq_size 16
core_0_l2c_mshr_size 32
core_0_l2c_hit_latency 5
core_0_l2c_fill_latency 5
core_0_l2c_max_tag_check 1
core_0_l2c_max_fill 1
llc_set 2048
llc_way 16
llc_rq_size 32
llc_wq_size 32
llc_pq_size 32
llc_mshr_size 64
llc_hit_latency 10
llc_fill_latency 10
llc_max_tag_check 1
llc_max_fill 1
dram_channels 1
dram_ranks 1
dram_bankgroups 8
dram_banks 4
dram_rows 65536
dram_columns 1024
dram_channel_width 8
dram_rq_size 64
dram_wq_size 64
dram_size 17179869184
core_0_itlb_prefetcher no
core_0_dtlb_prefetcher no
core_0_stlb_prefetcher no
core_0_l1i_prefetcher next_line
core_0_l1d_prefetcher no
core_0_l2c_prefetcher ip_stride
llc_prefetcher no
llc_replacement drrip

Core_0_instructions 100000002
Core_0_cycles 335019677
Core_0_IPC 0.29849
Core_0_branch_prediction_accuracy 96.8101
Core_0_branch_MPKI 2.75384
Core_0_average_ROB_occupancy_at_mispredict 189.65

Core_0_ITLB_total_access 7022526
Core_0_ITLB_total_hit 7022518
Core_0_ITLB_total_miss 8
Core_0_ITLB_total_MPKI 8e-05
Core_0_ITLB_total_miss_rate 1.13919e-06
Core_0_ITLB_demand_access 7022526
Core_0_ITLB_demand_hit 7022518
Core_0_ITLB_demand_miss 8
Core_0_ITLB_demand_MPKI 8e-05
Core_0_ITLB_demand_miss_rate 1.13919e-06
Core_0_ITLB_load_access 7022526
Core_0_ITLB_load_hit 7022518
Core_0_ITLB_load_miss 8
Core_0_ITLB_load_MPKI 8e-05
Core_0_ITLB_load_miss_rate 1.13919e-06
Core_0_ITLB_rfo_access 0
Core_0_ITLB_rfo_hit 0
Core_0_ITLB_rfo_miss 0
Core_0_ITLB_rfo_MPKI 0
Core_0_ITLB_rfo_miss_rate 0
Core_0_ITLB_prefetch_access 0
Core_0_ITLB_prefetch_hit 0
Core_0_ITLB_prefetch_miss 0
Core_0_ITLB_prefetch_MPKI 0
Core_0_ITLB_prefetch_miss_rate 0
Core_0_ITLB_writeback_access 0
Core_0_ITLB_writeback_hit 0
Core_0_ITLB_writeback_miss 0
Core_0_ITLB_writeback_MPKI 0
Core_0_ITLB_writeback_miss_rate 0
Core_0_ITLB_prefetch_requested 0
Core_0_ITLB_prefetch_issued 0
Core_0_ITLB_prefetch_useful 0
Core_0_ITLB_prefetch_useless 0
Core_0_ITLB_prefetch_late 0
Core_0_ITLB_prefetch_fill 0
Core_0_ITLB_prefetch_too_early 0
Core_0_ITLB_prefetch_too_early_among_fill 0
Core_0_ITLB_prefetch_too_early_among_useless 0
Core_0_ITLB_prefetch_pollution_evict 0
Core_0_ITLB_prefetch_pollution_demand 0
Core_0_ITLB_prefetch_pollution_among_prefetch_fill 0
Core_0_ITLB_prefetch_accuracy 0
Core_0_ITLB_prefetch_coverage 0

Core_0_DTLB_total_access 24341400
Core_0_DTLB_total_hit 20942028
Core_0_DTLB_total_miss 3399372
Core_0_DTLB_total_MPKI 33.9937
Core_0_DTLB_total_miss_rate 0.139654
Core_0_DTLB_demand_access 24341400
Core_0_DTLB_demand_hit 20942028
Core_0_DTLB_demand_miss 3399372
Core_0_DTLB_demand_MPKI 33.9937
Core_0_DTLB_demand_miss_rate 0.139654
Core_0_DTLB_load_access 24341400
Core_0_DTLB_load_hit 20942028
Core_0_DTLB_load_miss 3399372
Core_0_DTLB_load_MPKI 33.9937
Core_0_DTLB_load_miss_rate 0.139654
Core_0_DTLB_rfo_access 0
Core_0_DTLB_rfo_hit 0
Core_0_DTLB_rfo_miss 0
Core_0_DTLB_rfo_MPKI 0
Core_0_DTLB_rfo_miss_rate 0
Core_0_DTLB_prefetch_access 0
Core_0_DTLB_prefetch_hit 0
Core_0_DTLB_prefetch_miss 0
Core_0_DTLB_prefetch_MPKI 0
Core_0_DTLB_prefetch_miss_rate 0
Core_0_DTLB_writeback_access 0
Core_0_DTLB_writeback_hit 0
Core_0_DTLB_writeback_miss 0
Core_0_DTLB_writeback_MPKI 0
Core_0_DTLB_writeback_miss_rate 0
Core_0_DTLB_prefetch_requested 0
Core_0_DTLB_prefetch_issued 0
Core_0_DTLB_prefetch_useful 0
Core_0_DTLB_prefetch_useless 0
Core_0_DTLB_prefetch_late 0
Core_0_DTLB_prefetch_fill 0
Core_0_DTLB_prefetch_too_early 0
Core_0_DTLB_prefetch_too_early_among_fill 0
Core_0_DTLB_prefetch_too_early_among_useless 0
Core_0_DTLB_prefetch_pollution_evict 0
Core_0_DTLB_prefetch_pollution_demand 0
Core_0_DTLB_prefetch_pollution_among_prefetch_fill 0
Core_0_DTLB_prefetch_accuracy 0
Core_0_DTLB_prefetch_coverage 0

Core_0_STLB_total_access 2500562
Core_0_STLB_total_hit 1273543
Core_0_STLB_total_miss 1227019
Core_0_STLB_total_MPKI 12.2702
Core_0_STLB_total_miss_rate 0.490697
Core_0_STLB_demand_access 2500562
Core_0_STLB_demand_hit 1273543
Core_0_STLB_demand_miss 1227019
Core_0_STLB_demand_MPKI 12.2702
Core_0_STLB_demand_miss_rate 0.490697
Core_0_STLB_load_access 2500562
Core_0_STLB_load_hit 1273543
Core_0_STLB_load_miss 1227019
Core_0_STLB_load_MPKI 12.2702
Core_0_STLB_load_miss_rate 0.490697
Core_0_STLB_rfo_access 0
Core_0_STLB_rfo_hit 0
Core_0_STLB_rfo_miss 0
Core_0_STLB_rfo_MPKI 0
Core_0_STLB_rfo_miss_rate 0
Core_0_STLB_prefetch_access 0
Core_0_STLB_prefetch_hit 0
Core_0_STLB_prefetch_miss 0
Core_0_STLB_prefetch_MPKI 0
Core_0_STLB_prefetch_miss_rate 0
Core_0_STLB_writeback_access 0
Core_0_STLB_writeback_hit 0
Core_0_STLB_writeback_miss 0
Core_0_STLB_writeback_MPKI 0
Core_0_STLB_writeback_miss_rate 0
Core_0_STLB_prefetch_requested 0
Core_0_STLB_prefetch_issued 0
Core_0_STLB_prefetch_useful 0
Core_0_STLB_prefetch_useless 0
Core_0_STLB_prefetch_late 0
Core_0_STLB_prefetch_fill 0
Core_0_STLB_prefetch_too_early 0
Core_0_STLB_prefetch_too_early_among_fill 0
Core_0_STLB_prefetch_too_early_among_useless 0
Core_0_STLB_prefetch_pollution_evict 0
Core_0_STLB_prefetch_pollution_demand 0
Core_0_STLB_prefetch_pollution_among_prefetch_fill 0
Core_0_STLB_prefetch_accuracy 0
Core_0_STLB_prefetch_coverage 0

Core_0_L1I_total_access 7721542
Core_0_L1I_total_hit 7721428
Core_0_L1I_total_miss 114
Core_0_L1I_total_MPKI 0.00114
Core_0_L1I_total_miss_rate 1.47639e-05
Core_0_L1I_demand_access 7721542
Core_0_L1I_demand_hit 7721428
Core_0_L1I_demand_miss 114
Core_0_L1I_demand_MPKI 0.00114
Core_0_L1I_demand_miss_rate 1.47639e-05
Core_0_L1I_load_access 7721542
Core_0_L1I_load_hit 7721428
Core_0_L1I_load_miss 114
Core_0_L1I_load_MPKI 0.00114
Core_0_L1I_load_miss_rate 1.47639e-05
Core_0_L1I_rfo_access 0
Core_0_L1I_rfo_hit 0
Core_0_L1I_rfo_miss 0
Core_0_L1I_rfo_MPKI 0
Core_0_L1I_rfo_miss_rate 0
Core_0_L1I_prefetch_access 0
Core_0_L1I_prefetch_hit 0
Core_0_L1I_prefetch_miss 0
Core_0_L1I_prefetch_MPKI 0
Core_0_L1I_prefetch_miss_rate 0
Core_0_L1I_writeback_access 0
Core_0_L1I_writeback_hit 0
Core_0_L1I_writeback_miss 0
Core_0_L1I_writeback_MPKI 0
Core_0_L1I_writeback_miss_rate 0
Core_0_L1I_prefetch_requested 0
Core_0_L1I_prefetch_issued 0
Core_0_L1I_prefetch_useful 0
Core_0_L1I_prefetch_useless 0
Core_0_L1I_prefetch_late 0
Core_0_L1I_prefetch_fill 0
Core_0_L1I_prefetch_too_early 0
Core_0_L1I_prefetch_too_early_among_fill 0
Core_0_L1I_prefetch_too_early_among_useless 0
Core_0_L1I_prefetch_pollution_evict 0
Core_0_L1I_prefetch_pollution_demand 0
Core_0_L1I_prefetch_pollution_among_prefetch_fill 0
Core_0_L1I_prefetch_accuracy 0
Core_0_L1I_prefetch_coverage 0

Core_0_L1D_total_access 24689372
Core_0_L1D_total_hit 21158464
Core_0_L1D_total_miss 3530908
Core_0_L1D_total_MPKI 35.3091
Core_0_L1D_total_miss_rate 0.143013
Core_0_L1D_demand_access 18647750
Core_0_L1D_demand_hit 15120708
Core_0_L1D_demand_miss 3527042
Core_0_L1D_demand_MPKI 35.2704
Core_0_L1D_demand_miss_rate 0.18914
Core_0_L1D_load_access 18647750
Core_0_L1D_load_hit 15120708
Core_0_L1D_load_miss 3527042
Core_0_L1D_load_MPKI 35.2704
Core_0_L1D_load_miss_rate 0.18914
Core_0_L1D_rfo_access 0
Core_0_L1D_rfo_hit 0
Core_0_L1D_rfo_miss 0
Core_0_L1D_rfo_MPKI 0
Core_0_L1D_rfo_miss_rate 0
Core_0_L1D_prefetch_access 0
Core_0_L1D_prefetch_hit 0
Core_0_L1D_prefetch_miss 0
Core_0_L1D_prefetch_MPKI 0
Core_0_L1D_prefetch_miss_rate 0
Core_0_L1D_writeback_access 6041622
Core_0_L1D_writeback_hit 6037756
Core_0_L1D_writeback_miss 3866
Core_0_L1D_writeback_MPKI 0.03866
Core_0_L1D_writeback_miss_rate 0.000639894
Core_0_L1D_prefetch_requested 0
Core_0_L1D_prefetch_issued 0
Core_0_L1D_prefetch_useful 0
Core_0_L1D_prefetch_useless 0
Core_0_L1D_prefetch_late 0
Core_0_L1D_prefetch_fill 0
Core_0_L1D_prefetch_too_early 0
Core_0_L1D_prefetch_too_early_among_fill 0
Core_0_L1D_prefetch_too_early_among_useless 0
Core_0_L1D_prefetch_pollution_evict 0
Core_0_L1D_prefetch_pollution_demand 0
Core_0_L1D_prefetch_pollution_among_prefetch_fill 0
Core_0_L1D_prefetch_accuracy 0
Core_0_L1D_prefetch_coverage 0

Core_0_L2C_total_access 3474585
Core_0_L2C_total_hit 1319231
Core_0_L2C_total_miss 2155354
Core_0_L2C_total_MPKI 21.5535
Core_0_L2C_total_miss_rate 0.62032
Core_0_L2C_demand_access 2341328
Core_0_L2C_demand_hit 220853
Core_0_L2C_demand_miss 2120475
Core_0_L2C_demand_MPKI 21.2047
Core_0_L2C_demand_miss_rate 0.905672
Core_0_L2C_load_access 2338571
Core_0_L2C_load_hit 218488
Core_0_L2C_load_miss 2120083
Core_0_L2C_load_MPKI 21.2008
Core_0_L2C_load_miss_rate 0.906572
Core_0_L2C_rfo_access 2757
Core_0_L2C_rfo_hit 2365
Core_0_L2C_rfo_miss 392
Core_0_L2C_rfo_MPKI 0.00392
Core_0_L2C_rfo_miss_rate 0.142184
Core_0_L2C_prefetch_access 155972
Core_0_L2C_prefetch_hit 121094
Core_0_L2C_prefetch_miss 34878
Core_0_L2C_prefetch_MPKI 0.34878
Core_0_L2C_prefetch_miss_rate 0.223617
Core_0_L2C_writeback_access 977285
Core_0_L2C_writeback_hit 977284
Core_0_L2C_writeback_miss 1
Core_0_L2C_writeback_MPKI 1e-05
Core_0_L2C_writeback_miss_rate 1.02324e-06
Core_0_L2C_prefetch_requested 155972
Core_0_L2C_prefetch_issued 155972
Core_0_L2C_prefetch_useful 9864
Core_0_L2C_prefetch_useless 19903
Core_0_L2C_prefetch_late 1989
Core_0_L2C_prefetch_fill 27773
Core_0_L2C_prefetch_too_early 9289
Core_0_L2C_prefetch_too_early_among_fill 0.334462
Core_0_L2C_prefetch_too_early_among_useless 0.466714
Core_0_L2C_prefetch_pollution_evict 14383
Core_0_L2C_prefetch_pollution_demand 14277
Core_0_L2C_prefetch_pollution_among_prefetch_fill 0.517877
Core_0_L2C_prefetch_accuracy 0.0632421
Core_0_L2C_prefetch_coverage 0.00463025

Core_0_LLC_total_access 3081936
Core_0_LLC_total_hit 1022874
Core_0_LLC_total_miss 2059062
Core_0_LLC_total_MPKI 20.5906
Core_0_LLC_total_miss_rate 0.668107
Core_0_LLC_demand_access 2118486
Core_0_LLC_demand_hit 190061
Core_0_LLC_demand_miss 1928425
Core_0_LLC_demand_MPKI 19.2842
Core_0_LLC_demand_miss_rate 0.910285
Core_0_LLC_load_access 2118094
Core_0_LLC_load_hit 189951
Core_0_LLC_load_miss 1928143
Core_0_LLC_load_MPKI 19.2814
Core_0_LLC_load_miss_rate 0.91032
Core_0_LLC_rfo_access 392
Core_0_LLC_rfo_hit 110
Core_0_LLC_rfo_miss 282
Core_0_LLC_rfo_MPKI 0.00282
Core_0_LLC_rfo_miss_rate 0.719388
Core_0_LLC_prefetch_access 29762
Core_0_LLC_prefetch_hit 4290
Core_0_LLC_prefetch_miss 25472
Core_0_LLC_prefetch_MPKI 0.25472
Core_0_LLC_prefetch_miss_rate 0.855856
Core_0_LLC_writeback_access 933688
Core_0_LLC_writeback_hit 828523
Core_0_LLC_writeback_miss 105165
Core_0_LLC_writeback_MPKI 1.05165
Core_0_LLC_writeback_miss_rate 0.112634
Core_0_LLC_prefetch_requested 0
Core_0_LLC_prefetch_issued 0
Core_0_LLC_prefetch_useful 0
Core_0_LLC_prefetch_useless 0
Core_0_LLC_prefetch_late 0
Core_0_LLC_prefetch_fill 25472
Core_0_LLC_prefetch_too_early 0
Core_0_LLC_prefetch_too_early_among_fill 0
Core_0_LLC_prefetch_too_early_among_useless 0
Core_0_LLC_prefetch_pollution_evict 15617
Core_0_LLC_prefetch_pollution_demand 15617
Core_0_LLC_prefetch_pollution_among_prefetch_fill 0.613105
Core_0_LLC_prefetch_accuracy 0
Core_0_LLC_prefetch_coverage 0

[DRAM Statistics]
Channel_0_RQ_row_buffer_hit 140
Channel_0_RQ_row_buffer_miss 2018161
Channel_0_WQ_row_buffer_hit 336778
Channel_0_WQ_row_buffer_miss 564726
Channel_0_WQ_full 0
Channel_0_dbus_congested 7856748
DRAM_total_RQ_row_buffer_hit 140
DRAM_total_RQ_row_buffer_miss 2018161
DRAM_total_WQ_row_buffer_hit 336778
DRAM_total_WQ_row_buffer_miss 564726
DRAM_total_WQ_full 0
DRAM_total_dbus_congested 7856748
DRAM_avg_congested_cycle 15.7525

====== DRAM_RQ_TRAFFIC ========
DRAM_RQ_READ_TRAFFIC_BREAKDOWN:
data_demand_read.count = 1928322
data_demand_read.share = 95.54%

inst_demand_read.count = 103
inst_demand_read.share = 0.01%

cache_inst_prefetch.count = 0
cache_inst_prefetch.share = 0.00%

cache_data_prefetch.count = 25472
cache_data_prefetch.share = 1.26%

stlb_data_demand.count = 64426
stlb_data_demand.share = 3.19%

stlb_inst_demand.count = 3
stlb_inst_demand.share = 0.00%

stlb_l1i_pref.count = 0
stlb_l1i_pref.share = 0.00%

stlb_l1d_pref.count = 0
stlb_l1d_pref.share = 0.00%

DRAM_RQ_READ_TRAFFIC_SUMMARY:
cache_demand.count = 1928425
cache_demand.share = 95.55%

cache_prefetch.count = 25472
cache_prefetch.share = 1.26%

stlb_demand.count = 64429
stlb_demand.share = 3.19%

stlb_prefetch.count = 0
stlb_prefetch.share = 0.00%

DRAM_RQ_READ_TRAFFIC_DEBUG:
total_classified_read.count = 2018326
unclassified_read.count = 0
total_read_with_other.count = 2018326

classified_plus_unclassified_check.count = 2018326
dram_rq_read_total_observed.count = 2018326
dram_rq_read_total_observed.per_1K_instructions = 20.1833

STLB_MISS_PTW_DRAM_TOUCH_BREAKDOWN:
stlb_miss_total.count = 1227019

stlb_miss_touch_dram.count = 64481
stlb_miss_touch_dram.share = 5.26%

stlb_miss_no_dram_touch.count = 1162538
stlb_miss_no_dram_touch.share = 94.74%

STLB_MISS_PTW_DRAM_TOUCH_DEBUG:
stlb_miss_touch_plus_no_touch.count = 1227019
stlb_miss_total_check.count = 1227019

======STLB miss causes ========
Core_0_STLB_miss_cause_breakdown
Core_0_STLB_cause_Demand_Data_miss 1227012
Core_0_STLB_cause_Demand_Data_miss_rate 0.490694
Core_0_STLB_cause_Demand_Instruction_miss 7
Core_0_STLB_cause_Demand_Instruction_miss_rate 2.79937e-06
Core_0_STLB_cause_L1D_Prefetch_miss 0
Core_0_STLB_cause_L1D_Prefetch_miss_rate 0
Core_0_STLB_cause_L1D_Prefetch_Same_Page_miss 0
Core_0_STLB_cause_L1D_Prefetch_Same_Page_miss_rate 0
Core_0_STLB_cause_L1D_Prefetch_Cross_Page_miss 0
Core_0_STLB_cause_L1D_Prefetch_Cross_Page_miss_rate 0
Core_0_STLB_cause_L1I_Prefetch_miss 0
Core_0_STLB_cause_L1I_Prefetch_miss_rate 0
Core_0_STLB_cause_Other_miss 0
Core_0_STLB_cause_Other_miss_rate 0
Core_0_STLB_Demand_miss 1227019
Core_0_STLB_Demand_miss_rate 0.490697
Core_0_STLB_L1D_Prefetch_miss 0
Core_0_STLB_L1D_Prefetch_miss_rate 0
Core_0_STLB_Other_miss 0
Core_0_STLB_Other_miss_rate 0

========== vBerti-TLB Cross-page Flow Stats ==========

Core_0_vBerti_Requested 0
Core_0_vBerti_Cross_page_prefetch_in_Requested 0
Core_0_vBerti_Same_page_prefetch_in_Requested 0
Core_0_vBerti_Cross_page_prefetch_of_Requested 0
Core_0_vBerti_Issued 0
Core_0_vBerti_PQ_Drop_Rate 0
Core_0_vBerti_InPQ_Cross_page_prefetch_of_Requested 0
Core_0_vBerti_Cross_page_PQ_Drop_rate 0
Core_0_vBerti_Cross_page_prefetch_of_Issued 0

========= DTLB_vBerti Prefetch Stats =========
Core_0_DTLB_demand_access 24341400
Core_0_DTLB_demand_hit 20942028
Core_0_DTLB_demand_miss 3399372
Core_0_DTLB_demand_mshr_merge 898817
Core_0_DTLB_demand_fill 2500556
Core_0_DTLB_demand_miss_rate 0.139654
Core_0_DTLB_demand_mpki 33.9937
Core_0_DTLB_vberti_prefetch_access 0
Core_0_DTLB_vberti_prefetch_hit 0
Core_0_DTLB_vberti_prefetch_miss 0
Core_0_DTLB_vberti_prefetch_mshr_merge 0
Core_0_DTLB_vberti_prefetch_fill 0
Core_0_DTLB_vberti_prefetch_miss_rate 0
Core_0_DTLB_vberti_prefetch_mpki 0

=== DTLB_vBerti Same/Cross-page Prefetch Stats ===
Core_0_DTLB_vberti_same_page_prefetch 0
Core_0_DTLB_vberti_same_page_prefetch_hit 0
Core_0_DTLB_vberti_same_page_prefetch_miss 0
Core_0_DTLB_vberti_same_page_prefetch_mshr_merge 0
Core_0_DTLB_vberti_same_page_prefetch_fill 0
Core_0_DTLB_vberti_same_page_prefetch_miss_rate 0
Core_0_DTLB_vberti_same_page_prefetch_mpki 0
Core_0_DTLB_vberti_cross_page_prefetch 0
Core_0_DTLB_vberti_cross_page_prefetch_hit 0
Core_0_DTLB_vberti_cross_page_prefetch_miss 0
Core_0_DTLB_vberti_cross_page_prefetch_mshr_merge 0
Core_0_DTLB_vberti_cross_page_prefetch_fill 0
Core_0_DTLB_vberti_cross_page_prefetch_miss_rate 0
Core_0_DTLB_vberti_cross_page_prefetch_mpki 0
Core_0_DTLB_same_page_prefetch_miss_rate 0
Core_0_DTLB_same_page_prefetch_mpki 0
Core_0_DTLB_cross_page_prefetch_miss_rate 0
Core_0_DTLB_cross_page_prefetch_mpki 0
Core_0_DTLB_cross_page_prefetch_issued 0
Core_0_DTLB_cross_page_prefetch_lookups 0
Core_0_DTLB_cross_page_prefetch_useful 0
Core_0_DTLB_cross_page_prefetch_useless 0
Core_0_DTLB_cross_page_prefetch_late 0
Core_0_DTLB_cross_page_prefetch_too_early 0
Core_0_DTLB_cross_page_prefetch_too_early_among_fill 0
Core_0_DTLB_cross_page_prefetch_too_early_among_useless 0
Core_0_DTLB_cross_page_prefetch_pollution_evict 0
Core_0_DTLB_cross_page_prefetch_pollution_demand 0
Core_0_DTLB_cross_page_prefetch_pollution_among_prefetch_fill 0
Core_0_DTLB_cross_page_prefetch_accuracy 0
Core_0_DTLB_cross_page_prefetch_coverage 0

========= STLB_vBerti Prefetch Stats =========
Core_0_STLB_demand_access 2500562
Core_0_STLB_demand_hit 1273543
Core_0_STLB_demand_miss 1227019
Core_0_STLB_demand_mshr_merge 0
Core_0_STLB_demand_fill 1227020
Core_0_STLB_demand_miss_rate 0.490697
Core_0_STLB_demand_mpki 12.2702
Core_0_STLB_vberti_prefetch_access 0
Core_0_STLB_vberti_prefetch_hit 0
Core_0_STLB_vberti_prefetch_miss 0
Core_0_STLB_vberti_prefetch_mshr_merge 0
Core_0_STLB_vberti_prefetch_fill 0
Core_0_STLB_vberti_prefetch_miss_rate 0
Core_0_STLB_vberti_prefetch_mpki 0

=== STLB_vBerti Same/Cross-page Prefetch Stats ===
Core_0_STLB_vberti_same_page_prefetch 0
Core_0_STLB_vberti_same_page_prefetch_hit 0
Core_0_STLB_vberti_same_page_prefetch_miss 0
Core_0_STLB_vberti_same_page_prefetch_mshr_merge 0
Core_0_STLB_vberti_same_page_prefetch_fill 0
Core_0_STLB_vberti_same_page_prefetch_miss_rate 0
Core_0_STLB_vberti_same_page_prefetch_mpki 0
Core_0_STLB_vberti_cross_page_prefetch 0
Core_0_STLB_vberti_cross_page_prefetch_hit 0
Core_0_STLB_vberti_cross_page_prefetch_miss 0
Core_0_STLB_vberti_cross_page_prefetch_mshr_merge 0
Core_0_STLB_vberti_cross_page_prefetch_fill 0
Core_0_STLB_vberti_cross_page_prefetch_miss_rate 0
Core_0_STLB_vberti_cross_page_prefetch_mpki 0
Core_0_STLB_same_page_prefetch_miss_rate 0
Core_0_STLB_same_page_prefetch_mpki 0
Core_0_STLB_cross_page_prefetch_miss_rate 0
Core_0_STLB_cross_page_prefetch_mpki 0
Core_0_STLB_cross_page_prefetch_issued 0
Core_0_STLB_cross_page_prefetch_lookups 0
Core_0_STLB_cross_page_prefetch_useful 0
Core_0_STLB_cross_page_prefetch_useless 0
Core_0_STLB_cross_page_prefetch_late 0
Core_0_STLB_cross_page_prefetch_too_early 0
Core_0_STLB_cross_page_prefetch_too_early_among_fill 0
Core_0_STLB_cross_page_prefetch_too_early_among_useless 0
Core_0_STLB_cross_page_prefetch_pollution_evict 0
Core_0_STLB_cross_page_prefetch_pollution_demand 0
Core_0_STLB_cross_page_prefetch_pollution_among_prefetch_fill 0
Core_0_STLB_cross_page_prefetch_accuracy 0
Core_0_STLB_cross_page_prefetch_coverage 0

========= STLB Cross-page Prefetch Buffer Stats =========
Core_0_STLB_raw_demand_miss 1227012
Core_0_CP_PB_insert 0
Core_0_CP_PB_demand_hit 0
Core_0_STLB_PB_demand_miss 1227012
Core_0_CP_PB_coverage 0
Core_0_STLB_raw_demand_mpki 12.2701
Core_0_STLB_PB_demand_mpki 12.2701
Core_0_CP_PB_demand_hit_mpki 0

Core_0_TLB_demand_miss_rate 0.0504087
Core_0_TLB_demand_mpki 12.2702
Core_0_TLB_same_page_prefetch_miss_rate 0
Core_0_TLB_same_page_prefetch_mpki 0
Core_0_TLB_cross_page_prefetch_miss_rate 0
Core_0_TLB_cross_page_prefetch_mpki 0
Core_0_TLB_cross_page_prefetch_issued 0
Core_0_TLB_cross_page_prefetch_lookups 0
Core_0_TLB_cross_page_prefetch_useful 0
Core_0_TLB_cross_page_prefetch_useless 0
Core_0_TLB_cross_page_prefetch_late 0
Core_0_TLB_cross_page_prefetch_too_early 0
Core_0_TLB_cross_page_prefetch_too_early_among_fill 0
Core_0_TLB_cross_page_prefetch_too_early_among_useless 0
Core_0_TLB_cross_page_prefetch_accuracy 0
Core_0_TLB_cross_page_prefetch_coverage 0
