[VMEM] WARNING: physical memory size is smaller than virtual memory size.

*** ChampSim Multicore Out-of-Order Simulator ***
Warmup Instructions: 50000000
Simulation Instructions: 100000000
Number of CPUs: 1
Page size: 4096
Core 0: /data2/zcq/champsim_traces_gap/pr.kron-90B.champsimtrace.xz
Off-chip DRAM Size: 16 GiB Channels: 1 Width: 64-bit Data Rate: 3205 MT/s
Warmup halting CPU 0 at instruction 50000002 cycle 29179791 for remainder of phase
Warmup finished CPU 0 instructions: 50000002 cycles: 29179791 cumulative IPC: 1.714 (Simulation time: 00 hr 09 min 12 sec)
Warmup complete CPU 0 instructions: 50000002 cycles: 29179791 cumulative IPC: 1.714 (Simulation time: 00 hr 09 min 12 sec)
Simulation CPU 0 warning: IPC 0.023057 < 0.05
Simulation CPU 0 warning: IPC 0.025083 < 0.05
Simulation CPU 0 warning: IPC 0.026271 < 0.05
Simulation CPU 0 warning: IPC 0.022541 < 0.05
Simulation CPU 0 warning: IPC 0.022167 < 0.05
Simulation CPU 0 warning: IPC 0.022639 < 0.05
Simulation CPU 0 warning: IPC 0.023323 < 0.05
Simulation CPU 0 warning: IPC 0.023922 < 0.05
Simulation CPU 0 warning: IPC 0.023479 < 0.05
Simulation CPU 0 warning: IPC 0.022852 < 0.05
Simulation CPU 0 warning: IPC 0.02373 < 0.05
Simulation CPU 0 warning: IPC 0.023809 < 0.05
Simulation CPU 0 warning: IPC 0.023263 < 0.05
Simulation CPU 0 warning: IPC 0.022852 < 0.05
Simulation CPU 0 warning: IPC 0.022836 < 0.05
Simulation CPU 0 warning: IPC 0.022877 < 0.05
Simulation CPU 0 warning: IPC 0.022785 < 0.05
Simulation CPU 0 warning: IPC 0.023414 < 0.05
Simulation CPU 0 warning: IPC 0.02446 < 0.05
Simulation CPU 0 warning: IPC 0.024135 < 0.05
Simulation CPU 0 warning: IPC 0.023757 < 0.05
Simulation CPU 0 warning: IPC 0.023787 < 0.05
Simulation CPU 0 warning: IPC 0.023046 < 0.05
Simulation CPU 0 warning: IPC 0.024116 < 0.05
Simulation CPU 0 warning: IPC 0.024382 < 0.05
Simulation CPU 0 warning: IPC 0.025248 < 0.05
Simulation CPU 0 warning: IPC 0.023776 < 0.05
Simulation CPU 0 warning: IPC 0.023437 < 0.05
Simulation CPU 0 warning: IPC 0.022895 < 0.05
Simulation CPU 0 warning: IPC 0.022093 < 0.05
Simulation CPU 0 warning: IPC 0.02347 < 0.05
Simulation CPU 0 warning: IPC 0.025539 < 0.05
Simulation CPU 0 warning: IPC 0.024583 < 0.05
Simulation CPU 0 warning: IPC 0.023075 < 0.05
Simulation CPU 0 warning: IPC 0.023318 < 0.05
Simulation CPU 0 warning: IPC 0.023271 < 0.05
Simulation CPU 0 warning: IPC 0.023642 < 0.05
Simulation CPU 0 warning: IPC 0.024346 < 0.05
Simulation CPU 0 warning: IPC 0.023935 < 0.05
Simulation CPU 0 warning: IPC 0.025126 < 0.05
Simulation CPU 0 warning: IPC 0.024583 < 0.05
Simulation CPU 0 warning: IPC 0.024542 < 0.05
Simulation CPU 0 warning: IPC 0.022806 < 0.05
Simulation CPU 0 warning: IPC 0.024808 < 0.05
Simulation CPU 0 warning: IPC 0.022987 < 0.05
Simulation CPU 0 warning: IPC 0.023862 < 0.05
Simulation CPU 0 warning: IPC 0.022754 < 0.05
Simulation CPU 0 warning: IPC 0.022227 < 0.05
Simulation CPU 0 warning: IPC 0.024472 < 0.05
Simulation CPU 0 warning: IPC 0.022845 < 0.05
Simulation CPU 0 warning: IPC 0.023763 < 0.05
Simulation CPU 0 warning: IPC 0.023064 < 0.05
Simulation CPU 0 warning: IPC 0.024226 < 0.05
Simulation CPU 0 warning: IPC 0.023066 < 0.05
Simulation CPU 0 warning: IPC 0.023455 < 0.05
Simulation CPU 0 warning: IPC 0.023286 < 0.05
Simulation CPU 0 warning: IPC 0.022803 < 0.05
Simulation CPU 0 warning: IPC 0.023687 < 0.05
Simulation CPU 0 warning: IPC 0.022507 < 0.05
Simulation CPU 0 warning: IPC 0.024471 < 0.05
Simulation CPU 0 warning: IPC 0.023175 < 0.05
Simulation CPU 0 warning: IPC 0.022846 < 0.05
Simulation CPU 0 warning: IPC 0.023329 < 0.05
Simulation CPU 0 warning: IPC 0.022116 < 0.05
Simulation CPU 0 warning: IPC 0.02339 < 0.05
Simulation CPU 0 warning: IPC 0.022475 < 0.05
Simulation CPU 0 warning: IPC 0.024023 < 0.05
Simulation CPU 0 warning: IPC 0.024574 < 0.05
Simulation CPU 0 warning: IPC 0.024855 < 0.05
Simulation CPU 0 warning: IPC 0.024403 < 0.05
Simulation CPU 0 warning: IPC 0.023911 < 0.05
Simulation CPU 0 warning: IPC 0.023605 < 0.05
Simulation CPU 0 warning: IPC 0.022342 < 0.05
Simulation CPU 0 warning: IPC 0.022314 < 0.05
Simulation CPU 0 warning: IPC 0.02214 < 0.05
Simulation CPU 0 warning: IPC 0.023985 < 0.05
Simulation CPU 0 warning: IPC 0.023096 < 0.05
Simulation CPU 0 warning: IPC 0.022577 < 0.05
Simulation CPU 0 warning: IPC 0.023128 < 0.05
Simulation CPU 0 warning: IPC 0.023252 < 0.05
Simulation CPU 0 warning: IPC 0.024471 < 0.05
Simulation CPU 0 warning: IPC 0.022496 < 0.05
Simulation CPU 0 warning: IPC 0.024321 < 0.05
Simulation CPU 0 warning: IPC 0.023543 < 0.05
Simulation CPU 0 warning: IPC 0.024139 < 0.05
Simulation CPU 0 warning: IPC 0.0244 < 0.05
Simulation CPU 0 warning: IPC 0.024321 < 0.05
Simulation CPU 0 warning: IPC 0.023417 < 0.05
Simulation CPU 0 warning: IPC 0.02492 < 0.05
Simulation CPU 0 warning: IPC 0.023303 < 0.05
Simulation CPU 0 warning: IPC 0.022155 < 0.05
Simulation CPU 0 warning: IPC 0.024446 < 0.05
Simulation CPU 0 warning: IPC 0.022463 < 0.05
Simulation CPU 0 warning: IPC 0.022697 < 0.05
Simulation CPU 0 warning: IPC 0.024191 < 0.05
Simulation CPU 0 warning: IPC 0.022786 < 0.05
Simulation CPU 0 warning: IPC 0.022156 < 0.05
Simulation CPU 0 warning: IPC 0.023158 < 0.05
Simulation CPU 0 warning: IPC 0.023444 < 0.05
Simulation CPU 0 warning: IPC 0.023719 < 0.05
Simulation CPU 0 warning: IPC 0.023267 < 0.05
Simulation CPU 0 warning: IPC 0.023588 < 0.05
Simulation CPU 0 warning: IPC 0.02345 < 0.05
Simulation CPU 0 warning: IPC 0.023433 < 0.05
Simulation CPU 0 warning: IPC 0.024957 < 0.05
Simulation CPU 0 warning: IPC 0.022742 < 0.05
Simulation CPU 0 warning: IPC 0.024025 < 0.05
Simulation CPU 0 warning: IPC 0.023399 < 0.05
Simulation CPU 0 warning: IPC 0.022996 < 0.05
Simulation CPU 0 warning: IPC 0.022979 < 0.05
Simulation CPU 0 warning: IPC 0.022387 < 0.05
Simulation CPU 0 warning: IPC 0.022671 < 0.05
Simulation CPU 0 warning: IPC 0.023595 < 0.05
Simulation CPU 0 warning: IPC 0.024621 < 0.05
Simulation CPU 0 warning: IPC 0.023868 < 0.05
Simulation CPU 0 warning: IPC 0.024047 < 0.05
Simulation CPU 0 warning: IPC 0.023542 < 0.05
Simulation CPU 0 warning: IPC 0.023636 < 0.05
Simulation CPU 0 warning: IPC 0.02576 < 0.05
Simulation CPU 0 warning: IPC 0.024232 < 0.05
Simulation CPU 0 warning: IPC 0.023722 < 0.05
Simulation CPU 0 warning: IPC 0.023932 < 0.05
Simulation CPU 0 warning: IPC 0.024112 < 0.05
Simulation CPU 0 warning: IPC 0.024762 < 0.05
Simulation CPU 0 warning: IPC 0.023954 < 0.05
Simulation CPU 0 warning: IPC 0.022897 < 0.05
Simulation CPU 0 warning: IPC 0.023797 < 0.05
Simulation CPU 0 warning: IPC 0.024706 < 0.05
Simulation CPU 0 warning: IPC 0.024188 < 0.05
Simulation CPU 0 warning: IPC 0.024591 < 0.05
Simulation CPU 0 warning: IPC 0.022697 < 0.05
Simulation CPU 0 warning: IPC 0.022128 < 0.05
Simulation CPU 0 warning: IPC 0.023149 < 0.05
Simulation CPU 0 warning: IPC 0.02454 < 0.05
Simulation CPU 0 warning: IPC 0.023954 < 0.05
Simulation CPU 0 warning: IPC 0.022801 < 0.05
Simulation CPU 0 warning: IPC 0.022724 < 0.05
Simulation CPU 0 warning: IPC 0.024509 < 0.05
Simulation CPU 0 warning: IPC 0.02222 < 0.05
Simulation CPU 0 warning: IPC 0.023092 < 0.05
Simulation CPU 0 warning: IPC 0.024698 < 0.05
Simulation CPU 0 warning: IPC 0.02383 < 0.05
Simulation CPU 0 warning: IPC 0.023227 < 0.05
Simulation CPU 0 warning: IPC 0.024473 < 0.05
Simulation CPU 0 warning: IPC 0.022649 < 0.05
Simulation CPU 0 warning: IPC 0.023055 < 0.05
Simulation CPU 0 warning: IPC 0.023169 < 0.05
Simulation CPU 0 warning: IPC 0.022733 < 0.05
Simulation CPU 0 warning: IPC 0.022811 < 0.05
Simulation CPU 0 warning: IPC 0.023604 < 0.05
Simulation CPU 0 warning: IPC 0.023643 < 0.05
Simulation CPU 0 warning: IPC 0.02354 < 0.05
Simulation CPU 0 warning: IPC 0.02352 < 0.05
Simulation CPU 0 warning: IPC 0.023513 < 0.05
Simulation CPU 0 warning: IPC 0.023676 < 0.05
Simulation CPU 0 warning: IPC 0.023613 < 0.05
Simulation CPU 0 warning: IPC 0.023219 < 0.05
Simulation CPU 0 warning: IPC 0.022278 < 0.05
Simulation CPU 0 warning: IPC 0.021178 < 0.05
Simulation CPU 0 warning: IPC 0.023083 < 0.05
Simulation CPU 0 warning: IPC 0.022524 < 0.05
Simulation CPU 0 warning: IPC 0.023242 < 0.05
Simulation CPU 0 warning: IPC 0.023285 < 0.05
Simulation CPU 0 warning: IPC 0.022834 < 0.05
Simulation CPU 0 warning: IPC 0.021778 < 0.05
Simulation CPU 0 warning: IPC 0.022806 < 0.05
Simulation CPU 0 warning: IPC 0.023095 < 0.05
Simulation CPU 0 warning: IPC 0.022695 < 0.05
Simulation CPU 0 warning: IPC 0.021308 < 0.05
Simulation CPU 0 warning: IPC 0.023521 < 0.05
Simulation CPU 0 warning: IPC 0.024281 < 0.05
Simulation CPU 0 warning: IPC 0.024289 < 0.05
Simulation CPU 0 warning: IPC 0.022407 < 0.05
Simulation CPU 0 warning: IPC 0.022104 < 0.05
Simulation CPU 0 warning: IPC 0.023529 < 0.05
Simulation CPU 0 warning: IPC 0.023148 < 0.05
Simulation CPU 0 warning: IPC 0.02209 < 0.05
Simulation CPU 0 warning: IPC 0.024267 < 0.05
Simulation CPU 0 warning: IPC 0.023142 < 0.05
Simulation CPU 0 warning: IPC 0.023268 < 0.05
Simulation CPU 0 warning: IPC 0.022919 < 0.05
Simulation CPU 0 warning: IPC 0.023166 < 0.05
Simulation CPU 0 warning: IPC 0.02289 < 0.05
Simulation CPU 0 warning: IPC 0.023365 < 0.05
Simulation CPU 0 warning: IPC 0.024119 < 0.05
Simulation CPU 0 warning: IPC 0.024963 < 0.05
Simulation CPU 0 warning: IPC 0.022503 < 0.05
Simulation CPU 0 warning: IPC 0.023769 < 0.05
Simulation CPU 0 warning: IPC 0.023528 < 0.05
Simulation CPU 0 warning: IPC 0.024029 < 0.05
Simulation CPU 0 warning: IPC 0.023408 < 0.05
Simulation CPU 0 warning: IPC 0.02371 < 0.05
Simulation CPU 0 warning: IPC 0.023654 < 0.05
Simulation CPU 0 warning: IPC 0.024717 < 0.05
Simulation CPU 0 warning: IPC 0.024073 < 0.05
Simulation CPU 0 warning: IPC 0.023503 < 0.05
Simulation CPU 0 warning: IPC 0.022905 < 0.05
Simulation CPU 0 warning: IPC 0.022619 < 0.05
Simulation CPU 0 warning: IPC 0.023394 < 0.05
Simulation CPU 0 warning: IPC 0.023904 < 0.05
Simulation CPU 0 warning: IPC 0.022979 < 0.05
Simulation CPU 0 warning: IPC 0.022524 < 0.05
Simulation CPU 0 warning: IPC 0.022072 < 0.05
Simulation CPU 0 warning: IPC 0.023001 < 0.05
Simulation CPU 0 warning: IPC 0.024521 < 0.05
Simulation CPU 0 warning: IPC 0.023268 < 0.05
Simulation CPU 0 warning: IPC 0.02409 < 0.05
Simulation CPU 0 warning: IPC 0.024996 < 0.05
Simulation CPU 0 warning: IPC 0.023305 < 0.05
Simulation CPU 0 warning: IPC 0.023529 < 0.05
Simulation CPU 0 warning: IPC 0.022654 < 0.05
Simulation CPU 0 warning: IPC 0.022459 < 0.05
Simulation CPU 0 warning: IPC 0.024491 < 0.05
Simulation CPU 0 warning: IPC 0.02415 < 0.05
Simulation CPU 0 warning: IPC 0.022837 < 0.05
Simulation CPU 0 warning: IPC 0.024523 < 0.05
Simulation CPU 0 warning: IPC 0.02478 < 0.05
Simulation CPU 0 warning: IPC 0.022982 < 0.05
Simulation CPU 0 warning: IPC 0.023753 < 0.05
Simulation CPU 0 warning: IPC 0.023109 < 0.05
Simulation CPU 0 warning: IPC 0.023465 < 0.05
Simulation CPU 0 warning: IPC 0.023639 < 0.05
Simulation CPU 0 warning: IPC 0.024792 < 0.05
Simulation CPU 0 warning: IPC 0.023045 < 0.05
Simulation CPU 0 warning: IPC 0.023177 < 0.05
Simulation CPU 0 warning: IPC 0.024717 < 0.05
Simulation CPU 0 warning: IPC 0.023142 < 0.05
Simulation CPU 0 warning: IPC 0.024356 < 0.05
Simulation CPU 0 warning: IPC 0.025785 < 0.05
Simulation CPU 0 warning: IPC 0.022306 < 0.05
Simulation CPU 0 warning: IPC 0.023457 < 0.05
Simulation CPU 0 warning: IPC 0.023512 < 0.05
Simulation CPU 0 warning: IPC 0.023861 < 0.05
Simulation CPU 0 warning: IPC 0.023284 < 0.05
Simulation CPU 0 warning: IPC 0.022927 < 0.05
Simulation CPU 0 warning: IPC 0.024088 < 0.05
Simulation CPU 0 warning: IPC 0.024223 < 0.05
Simulation CPU 0 warning: IPC 0.02293 < 0.05
Simulation CPU 0 warning: IPC 0.02367 < 0.05
Simulation CPU 0 warning: IPC 0.022748 < 0.05
Simulation CPU 0 warning: IPC 0.02374 < 0.05
Simulation CPU 0 warning: IPC 0.024491 < 0.05
Simulation CPU 0 warning: IPC 0.024016 < 0.05
Simulation CPU 0 warning: IPC 0.022318 < 0.05
Simulation CPU 0 warning: IPC 0.021637 < 0.05
Simulation CPU 0 warning: IPC 0.02369 < 0.05
Simulation CPU 0 warning: IPC 0.023532 < 0.05
Simulation CPU 0 warning: IPC 0.022108 < 0.05
Simulation CPU 0 warning: IPC 0.022167 < 0.05
Simulation CPU 0 warning: IPC 0.023469 < 0.05
Simulation CPU 0 warning: IPC 0.022141 < 0.05
Simulation CPU 0 warning: IPC 0.023293 < 0.05
Simulation CPU 0 warning: IPC 0.024287 < 0.05
Simulation CPU 0 warning: IPC 0.024946 < 0.05
Simulation CPU 0 warning: IPC 0.023783 < 0.05
Simulation CPU 0 warning: IPC 0.023533 < 0.05
Simulation CPU 0 warning: IPC 0.023401 < 0.05
Simulation CPU 0 warning: IPC 0.022994 < 0.05
Simulation CPU 0 warning: IPC 0.02407 < 0.05
Simulation CPU 0 warning: IPC 0.023293 < 0.05
Simulation CPU 0 warning: IPC 0.023028 < 0.05
Simulation CPU 0 warning: IPC 0.024057 < 0.05
Simulation CPU 0 warning: IPC 0.024552 < 0.05
Simulation CPU 0 warning: IPC 0.024053 < 0.05
Simulation CPU 0 warning: IPC 0.022704 < 0.05
Simulation CPU 0 warning: IPC 0.023417 < 0.05
Simulation CPU 0 warning: IPC 0.022333 < 0.05
Simulation CPU 0 warning: IPC 0.024463 < 0.05
Simulation CPU 0 warning: IPC 0.023181 < 0.05
Simulation CPU 0 warning: IPC 0.024317 < 0.05
Simulation CPU 0 warning: IPC 0.022242 < 0.05
Simulation CPU 0 warning: IPC 0.022994 < 0.05
Simulation CPU 0 warning: IPC 0.024823 < 0.05
Simulation CPU 0 warning: IPC 0.023225 < 0.05
Simulation CPU 0 warning: IPC 0.023664 < 0.05
Simulation CPU 0 warning: IPC 0.023203 < 0.05
Simulation CPU 0 warning: IPC 0.023525 < 0.05
Simulation CPU 0 warning: IPC 0.024082 < 0.05
Simulation CPU 0 warning: IPC 0.022309 < 0.05
Simulation CPU 0 warning: IPC 0.023651 < 0.05
Simulation CPU 0 warning: IPC 0.024226 < 0.05
Simulation CPU 0 warning: IPC 0.022774 < 0.05
Simulation CPU 0 warning: IPC 0.023936 < 0.05
Simulation CPU 0 warning: IPC 0.02369 < 0.05
Simulation CPU 0 warning: IPC 0.022189 < 0.05
Simulation CPU 0 warning: IPC 0.022202 < 0.05
Simulation CPU 0 warning: IPC 0.024425 < 0.05
Simulation CPU 0 warning: IPC 0.024125 < 0.05
Simulation CPU 0 warning: IPC 0.023884 < 0.05
Simulation CPU 0 warning: IPC 0.022809 < 0.05
Simulation CPU 0 warning: IPC 0.024665 < 0.05
Simulation CPU 0 warning: IPC 0.023848 < 0.05
Simulation CPU 0 warning: IPC 0.024547 < 0.05
Simulation CPU 0 warning: IPC 0.023249 < 0.05
Simulation CPU 0 warning: IPC 0.022489 < 0.05
Simulation CPU 0 warning: IPC 0.024792 < 0.05
Simulation CPU 0 warning: IPC 0.023454 < 0.05
Simulation CPU 0 warning: IPC 0.024348 < 0.05
Simulation CPU 0 warning: IPC 0.02265 < 0.05
Simulation CPU 0 warning: IPC 0.023632 < 0.05
Simulation CPU 0 warning: IPC 0.023961 < 0.05
Simulation CPU 0 warning: IPC 0.023911 < 0.05
Simulation CPU 0 warning: IPC 0.025388 < 0.05
Simulation CPU 0 warning: IPC 0.02392 < 0.05
Simulation CPU 0 warning: IPC 0.022693 < 0.05
Simulation CPU 0 warning: IPC 0.022598 < 0.05
Simulation CPU 0 warning: IPC 0.023502 < 0.05
Simulation CPU 0 warning: IPC 0.023719 < 0.05
Simulation CPU 0 warning: IPC 0.024055 < 0.05
Simulation CPU 0 warning: IPC 0.024027 < 0.05
Simulation CPU 0 warning: IPC 0.023747 < 0.05
Simulation CPU 0 warning: IPC 0.025245 < 0.05
Simulation CPU 0 warning: IPC 0.024177 < 0.05
Simulation CPU 0 warning: IPC 0.023217 < 0.05
Simulation CPU 0 warning: IPC 0.024389 < 0.05
Simulation CPU 0 warning: IPC 0.024903 < 0.05
Simulation CPU 0 warning: IPC 0.023688 < 0.05
Simulation CPU 0 warning: IPC 0.02297 < 0.05
Simulation CPU 0 warning: IPC 0.02434 < 0.05
Simulation CPU 0 warning: IPC 0.024547 < 0.05
Simulation CPU 0 warning: IPC 0.025544 < 0.05
Simulation CPU 0 warning: IPC 0.02466 < 0.05
Simulation CPU 0 warning: IPC 0.02456 < 0.05
Simulation CPU 0 warning: IPC 0.025272 < 0.05
Simulation CPU 0 warning: IPC 0.02395 < 0.05
Simulation CPU 0 warning: IPC 0.022884 < 0.05
Simulation CPU 0 warning: IPC 0.022606 < 0.05
Simulation CPU 0 warning: IPC 0.022512 < 0.05
Simulation CPU 0 warning: IPC 0.024259 < 0.05
Simulation CPU 0 warning: IPC 0.023015 < 0.05
Simulation CPU 0 warning: IPC 0.023377 < 0.05
Simulation CPU 0 warning: IPC 0.024275 < 0.05
Simulation CPU 0 warning: IPC 0.023138 < 0.05
Simulation CPU 0 warning: IPC 0.023942 < 0.05
Simulation CPU 0 warning: IPC 0.023043 < 0.05
Simulation CPU 0 warning: IPC 0.022589 < 0.05
Simulation CPU 0 warning: IPC 0.021648 < 0.05
Simulation CPU 0 warning: IPC 0.023007 < 0.05
Simulation CPU 0 warning: IPC 0.023338 < 0.05
Simulation CPU 0 warning: IPC 0.024842 < 0.05
Simulation CPU 0 warning: IPC 0.023462 < 0.05
Simulation CPU 0 warning: IPC 0.024128 < 0.05
Simulation CPU 0 warning: IPC 0.025302 < 0.05
Simulation CPU 0 warning: IPC 0.024542 < 0.05
Simulation CPU 0 warning: IPC 0.024521 < 0.05
Simulation CPU 0 warning: IPC 0.023849 < 0.05
Simulation CPU 0 warning: IPC 0.022903 < 0.05
Simulation CPU 0 warning: IPC 0.023608 < 0.05
Simulation CPU 0 warning: IPC 0.023667 < 0.05
Simulation CPU 0 warning: IPC 0.022471 < 0.05
Simulation CPU 0 warning: IPC 0.025174 < 0.05
Simulation CPU 0 warning: IPC 0.022797 < 0.05
Simulation CPU 0 warning: IPC 0.023724 < 0.05
Simulation CPU 0 warning: IPC 0.023799 < 0.05
Simulation CPU 0 warning: IPC 0.024365 < 0.05
Simulation CPU 0 warning: IPC 0.024164 < 0.05
Simulation CPU 0 warning: IPC 0.024439 < 0.05
Simulation CPU 0 warning: IPC 0.024966 < 0.05
Simulation CPU 0 warning: IPC 0.024923 < 0.05
Simulation CPU 0 warning: IPC 0.024573 < 0.05
Simulation CPU 0 warning: IPC 0.023809 < 0.05
Simulation CPU 0 warning: IPC 0.024445 < 0.05
Simulation CPU 0 warning: IPC 0.023366 < 0.05
Simulation CPU 0 warning: IPC 0.024776 < 0.05
Simulation CPU 0 warning: IPC 0.023679 < 0.05
Simulation CPU 0 warning: IPC 0.022778 < 0.05
Simulation CPU 0 warning: IPC 0.023247 < 0.05
Simulation CPU 0 warning: IPC 0.024376 < 0.05
Simulation CPU 0 warning: IPC 0.02392 < 0.05
Simulation CPU 0 warning: IPC 0.023953 < 0.05
Simulation CPU 0 warning: IPC 0.023612 < 0.05
Simulation CPU 0 warning: IPC 0.023268 < 0.05
Simulation CPU 0 warning: IPC 0.022141 < 0.05
Simulation CPU 0 warning: IPC 0.02216 < 0.05
Simulation CPU 0 warning: IPC 0.022559 < 0.05
Simulation CPU 0 warning: IPC 0.023814 < 0.05
Simulation CPU 0 warning: IPC 0.024086 < 0.05
Simulation CPU 0 warning: IPC 0.024698 < 0.05
Simulation CPU 0 warning: IPC 0.023218 < 0.05
Simulation CPU 0 warning: IPC 0.024884 < 0.05
Simulation CPU 0 warning: IPC 0.023133 < 0.05
Simulation CPU 0 warning: IPC 0.022392 < 0.05
Simulation CPU 0 warning: IPC 0.024734 < 0.05
Simulation CPU 0 warning: IPC 0.023449 < 0.05
Simulation CPU 0 warning: IPC 0.023567 < 0.05
Simulation CPU 0 warning: IPC 0.02385 < 0.05
Simulation CPU 0 warning: IPC 0.021882 < 0.05
Simulation CPU 0 warning: IPC 0.023297 < 0.05
Simulation CPU 0 warning: IPC 0.024656 < 0.05
Simulation CPU 0 warning: IPC 0.023419 < 0.05
Simulation CPU 0 warning: IPC 0.023132 < 0.05
Simulation CPU 0 warning: IPC 0.023393 < 0.05
Simulation CPU 0 warning: IPC 0.024593 < 0.05
Simulation CPU 0 warning: IPC 0.024038 < 0.05
Simulation CPU 0 warning: IPC 0.024639 < 0.05
Simulation CPU 0 warning: IPC 0.024249 < 0.05
Simulation CPU 0 warning: IPC 0.024082 < 0.05
Simulation CPU 0 warning: IPC 0.023094 < 0.05
Simulation CPU 0 warning: IPC 0.024171 < 0.05
Simulation CPU 0 warning: IPC 0.023472 < 0.05
Simulation CPU 0 warning: IPC 0.024559 < 0.05
Simulation CPU 0 warning: IPC 0.023937 < 0.05
Simulation CPU 0 warning: IPC 0.023037 < 0.05
Simulation CPU 0 warning: IPC 0.023865 < 0.05
Simulation CPU 0 warning: IPC 0.023272 < 0.05
Simulation CPU 0 warning: IPC 0.023148 < 0.05
Simulation CPU 0 warning: IPC 0.02406 < 0.05
Simulation CPU 0 warning: IPC 0.022449 < 0.05
Simulation CPU 0 warning: IPC 0.023068 < 0.05
Simulation CPU 0 warning: IPC 0.023037 < 0.05
Simulation CPU 0 warning: IPC 0.024055 < 0.05
Simulation CPU 0 warning: IPC 0.024379 < 0.05
Simulation CPU 0 warning: IPC 0.022742 < 0.05
Simulation CPU 0 warning: IPC 0.022897 < 0.05
Simulation CPU 0 warning: IPC 0.024653 < 0.05
Simulation CPU 0 warning: IPC 0.022861 < 0.05
Simulation CPU 0 warning: IPC 0.024354 < 0.05
Simulation CPU 0 warning: IPC 0.024181 < 0.05
Simulation CPU 0 warning: IPC 0.023447 < 0.05
Simulation CPU 0 warning: IPC 0.024196 < 0.05
Simulation CPU 0 warning: IPC 0.024297 < 0.05
Simulation CPU 0 warning: IPC 0.023776 < 0.05
Simulation CPU 0 warning: IPC 0.023887 < 0.05
Simulation CPU 0 warning: IPC 0.02505 < 0.05
Simulation finished CPU 0 instructions: 100000003 cycles: 4242354768 cumulative IPC: 0.02357 (Simulation time: 07 hr 24 min 34 sec)
Simulation complete CPU 0 instructions: 100000003 cycles: 4242354768 cumulative IPC: 0.02357 (Simulation time: 07 hr 24 min 34 sec)

ChampSim completed all CPUs

=== Simulation ===
CPU 0 runs /data2/zcq/champsim_traces_gap/pr.kron-90B.champsimtrace.xz

Region of Interest Statistics

CPU 0 cumulative IPC: 0.02357 instructions: 100000003 cycles: 4242354768
CPU 0 Branch Prediction Accuracy: 97.3% MPKI: 5.276 Average ROB Occupancy at Mispredict: 240.2
Branch type MPKI
BRANCH_DIRECT_JUMP: 0
BRANCH_INDIRECT: 0
BRANCH_CONDITIONAL: 5.276
BRANCH_DIRECT_CALL: 0
BRANCH_INDIRECT_CALL: 0
BRANCH_RETURN: 0

cpu0->cpu0_STLB TOTAL        ACCESS:   17059131 HIT:     262251 MISS:   16796880 MSHR_MERGE:          0
cpu0->cpu0_STLB LOAD         ACCESS:   17059131 HIT:     262251 MISS:   16796880 MSHR_MERGE:          0
cpu0->cpu0_STLB RFO          ACCESS:          0 HIT:          0 MISS:          0 MSHR_MERGE:          0
cpu0->cpu0_STLB PREFETCH     ACCESS:          0 HIT:          0 MISS:          0 MSHR_MERGE:          0
cpu0->cpu0_STLB WRITE        ACCESS:          0 HIT:          0 MISS:          0 MSHR_MERGE:          0
cpu0->cpu0_STLB TRANSLATION  ACCESS:          0 HIT:          0 MISS:          0 MSHR_MERGE:          0
cpu0->cpu0_STLB PREFETCH REQUESTED:          0 ISSUED:          0 USEFUL:          0 USELESS:          0 LATE:          0 TOO_EARLY:          0
cpu0->cpu0_STLB AVERAGE MISS LATENCY: 35.37 cycles
cpu0->cpu0_L2C TOTAL        ACCESS:   37583334 HIT:    6269151 MISS:   31314183 MSHR_MERGE:      12650
cpu0->cpu0_L2C LOAD         ACCESS:   19324390 HIT:    1431011 MISS:   17893379 MSHR_MERGE:       1091
cpu0->cpu0_L2C RFO          ACCESS:      15638 HIT:      13519 MISS:       2119 MSHR_MERGE:          0
cpu0->cpu0_L2C PREFETCH     ACCESS:    3469398 HIT:    2242450 MISS:    1226948 MSHR_MERGE:      11559
cpu0->cpu0_L2C WRITE        ACCESS:      63986 HIT:      63985 MISS:          1 MSHR_MERGE:          0
cpu0->cpu0_L2C TRANSLATION  ACCESS:   14709922 HIT:    2518186 MISS:   12191736 MSHR_MERGE:          0
cpu0->cpu0_L2C PREFETCH REQUESTED:    3469389 ISSUED:    3469382 USEFUL:    1173377 USELESS:      42008 LATE:       1091 TOO_EARLY:       6273
cpu0->cpu0_L2C AVERAGE MISS LATENCY: 115.7 cycles
cpu0->cpu0_L1I TOTAL        ACCESS:   14892840 HIT:   14892840 MISS:          0 MSHR_MERGE:          0
cpu0->cpu0_L1I LOAD         ACCESS:   14892840 HIT:   14892840 MISS:          0 MSHR_MERGE:          0
cpu0->cpu0_L1I RFO          ACCESS:          0 HIT:          0 MISS:          0 MSHR_MERGE:          0
cpu0->cpu0_L1I PREFETCH     ACCESS:          0 HIT:          0 MISS:          0 MSHR_MERGE:          0
cpu0->cpu0_L1I WRITE        ACCESS:          0 HIT:          0 MISS:          0 MSHR_MERGE:          0
cpu0->cpu0_L1I TRANSLATION  ACCESS:          0 HIT:          0 MISS:          0 MSHR_MERGE:          0
cpu0->cpu0_L1I PREFETCH REQUESTED:          0 ISSUED:          0 USEFUL:          0 USELESS:          0 LATE:          0 TOO_EARLY:          0
cpu0->cpu0_L1I AVERAGE MISS LATENCY: - cycles
cpu0->cpu0_L1D TOTAL        ACCESS:   77376963 HIT:   42974401 MISS:   34402562 MSHR_MERGE:     352615
cpu0->cpu0_L1D LOAD         ACCESS:   37652961 HIT:   18007187 MISS:   19645774 MSHR_MERGE:     321385
cpu0->cpu0_L1D RFO          ACCESS:          0 HIT:          0 MISS:          0 MSHR_MERGE:          0
cpu0->cpu0_L1D PREFETCH     ACCESS:          0 HIT:          0 MISS:          0 MSHR_MERGE:          0
cpu0->cpu0_L1D WRITE        ACCESS:     628321 HIT:     581455 MISS:      46866 MSHR_MERGE:      31228
cpu0->cpu0_L1D TRANSLATION  ACCESS:   39095681 HIT:   24385759 MISS:   14709922 MSHR_MERGE:          2
cpu0->cpu0_L1D PREFETCH REQUESTED:          0 ISSUED:          0 USEFUL:          0 USELESS:          0 LATE:          0 TOO_EARLY:          0
cpu0->cpu0_L1D AVERAGE MISS LATENCY: 111.1 cycles
cpu0->cpu0_ITLB TOTAL        ACCESS:   14892839 HIT:   14892839 MISS:          0 MSHR_MERGE:          0
cpu0->cpu0_ITLB LOAD         ACCESS:   14892839 HIT:   14892839 MISS:          0 MSHR_MERGE:          0
cpu0->cpu0_ITLB RFO          ACCESS:          0 HIT:          0 MISS:          0 MSHR_MERGE:          0
cpu0->cpu0_ITLB PREFETCH     ACCESS:          0 HIT:          0 MISS:          0 MSHR_MERGE:          0
cpu0->cpu0_ITLB WRITE        ACCESS:          0 HIT:          0 MISS:          0 MSHR_MERGE:          0
cpu0->cpu0_ITLB TRANSLATION  ACCESS:          0 HIT:          0 MISS:          0 MSHR_MERGE:          0
cpu0->cpu0_ITLB PREFETCH REQUESTED:          0 ISSUED:          0 USEFUL:          0 USELESS:          0 LATE:          0 TOO_EARLY:          0
cpu0->cpu0_ITLB AVERAGE MISS LATENCY: - cycles
cpu0->cpu0_DTLB TOTAL        ACCESS:   38259341 HIT:   21162335 MISS:   17097006 MSHR_MERGE:      37876
cpu0->cpu0_DTLB LOAD         ACCESS:   38259341 HIT:   21162335 MISS:   17097006 MSHR_MERGE:      37876
cpu0->cpu0_DTLB RFO          ACCESS:          0 HIT:          0 MISS:          0 MSHR_MERGE:          0
cpu0->cpu0_DTLB PREFETCH     ACCESS:          0 HIT:          0 MISS:          0 MSHR_MERGE:          0
cpu0->cpu0_DTLB WRITE        ACCESS:          0 HIT:          0 MISS:          0 MSHR_MERGE:          0
cpu0->cpu0_DTLB TRANSLATION  ACCESS:          0 HIT:          0 MISS:          0 MSHR_MERGE:          0
cpu0->cpu0_DTLB PREFETCH REQUESTED:          0 ISSUED:          0 USEFUL:          0 USELESS:          0 LATE:          0 TOO_EARLY:          0
cpu0->cpu0_DTLB AVERAGE MISS LATENCY: 40.81 cycles
cpu0->LLC TOTAL        ACCESS:   31339659 HIT:   13345186 MISS:   17994473 MSHR_MERGE:          1
cpu0->LLC LOAD         ACCESS:   17892288 HIT:    1563035 MISS:   16329253 MSHR_MERGE:          0
cpu0->LLC RFO          ACCESS:       2119 HIT:       2113 MISS:          6 MSHR_MERGE:          0
cpu0->LLC PREFETCH     ACCESS:    1215389 HIT:        186 MISS:    1215203 MSHR_MERGE:          1
cpu0->LLC WRITE        ACCESS:      38127 HIT:      11044 MISS:      27083 MSHR_MERGE:          0
cpu0->LLC TRANSLATION  ACCESS:   12191736 HIT:   11768808 MISS:     422928 MSHR_MERGE:          0
cpu0->LLC PREFETCH REQUESTED:          0 ISSUED:          0 USEFUL:          0 USELESS:          0 LATE:          0 TOO_EARLY:          0
cpu0->LLC AVERAGE MISS LATENCY: 179.5 cycles

DRAM Statistics

Channel 0 RQ ROW_BUFFER_HIT:      25987
  ROW_BUFFER_MISS:   17941402
  AVG DBUS CONGESTED CYCLE: 15.27
Channel 0 WQ ROW_BUFFER_HIT:       5168
  ROW_BUFFER_MISS:      29290
  FULL:          0
Channel 0 REFRESHES ISSUED:     353530

[ROI Statistics]
[System Configuration]
num_cpus 1
cpu_freq 4000
fetch_width 6
decode_width 6
dispatch_width 6
execute_width 6
lq_width 2
sq_width 2
retire_width 6
scheduler_size 128
branch_mispredict_penalty 15
rob_size 352
lq_size 128
sq_size 72
ifetch_buffer_size 64
decode_buffer_size 32
dispatch_buffer_size 32
register_file_size 288
decode_latency 1
dispatch_latency 1
schedule_latency 1
execute_latency 1
page_size 4096
block_size 64
core_0_itlb_set 16
core_0_itlb_way 4
core_0_itlb_rq_size 16
core_0_itlb_wq_size 16
core_0_itlb_pq_size 0
core_0_itlb_mshr_size 8
core_0_itlb_hit_latency 1
core_0_itlb_fill_latency 1
core_0_itlb_max_tag_check 2
core_0_itlb_max_fill 2
core_0_dtlb_set 16
core_0_dtlb_way 4
core_0_dtlb_rq_size 16
core_0_dtlb_wq_size 16
core_0_dtlb_pq_size 0
core_0_dtlb_mshr_size 8
core_0_dtlb_hit_latency 1
core_0_dtlb_fill_latency 1
core_0_dtlb_max_tag_check 2
core_0_dtlb_max_fill 2
core_0_stlb_set 128
core_0_stlb_way 12
core_0_stlb_rq_size 32
core_0_stlb_wq_size 32
core_0_stlb_pq_size 0
core_0_stlb_mshr_size 16
core_0_stlb_hit_latency 4
core_0_stlb_fill_latency 4
core_0_stlb_max_tag_check 1
core_0_stlb_max_fill 1
core_0_l1i_set 64
core_0_l1i_way 8
core_0_l1i_rq_size 64
core_0_l1i_wq_size 64
core_0_l1i_pq_size 32
core_0_l1i_mshr_size 8
core_0_l1i_hit_latency 2
core_0_l1i_fill_latency 2
core_0_l1i_max_tag_check 2
core_0_l1i_max_fill 2
core_0_l1d_set 64
core_0_l1d_way 12
core_0_l1d_rq_size 64
core_0_l1d_wq_size 64
core_0_l1d_pq_size 8
core_0_l1d_mshr_size 16
core_0_l1d_hit_latency 2
core_0_l1d_fill_latency 3
core_0_l1d_max_tag_check 2
core_0_l1d_max_fill 2
core_0_l2c_set 1024
core_0_l2c_way 8
core_0_l2c_rq_size 32
core_0_l2c_wq_size 32
core_0_l2c_pq_size 16
core_0_l2c_mshr_size 32
core_0_l2c_hit_latency 5
core_0_l2c_fill_latency 5
core_0_l2c_max_tag_check 1
core_0_l2c_max_fill 1
llc_set 2048
llc_way 16
llc_rq_size 32
llc_wq_size 32
llc_pq_size 32
llc_mshr_size 64
llc_hit_latency 10
llc_fill_latency 10
llc_max_tag_check 1
llc_max_fill 1
dram_channels 1
dram_ranks 1
dram_bankgroups 8
dram_banks 4
dram_rows 65536
dram_columns 1024
dram_channel_width 8
dram_rq_size 64
dram_wq_size 64
dram_size 17179869184
core_0_itlb_prefetcher no
core_0_dtlb_prefetcher no
core_0_stlb_prefetcher no
core_0_l1i_prefetcher next_line
core_0_l1d_prefetcher no
core_0_l2c_prefetcher ip_stride
llc_prefetcher no
llc_replacement drrip

Core_0_instructions 100000003
Core_0_cycles 4242354768
Core_0_IPC 0.0235718
Core_0_branch_prediction_accuracy 97.2966
Core_0_branch_MPKI 5.2756
Core_0_average_ROB_occupancy_at_mispredict 240.217

Core_0_ITLB_total_access 14892839
Core_0_ITLB_total_hit 14892839
Core_0_ITLB_total_miss 0
Core_0_ITLB_total_MPKI 0
Core_0_ITLB_total_miss_rate 0
Core_0_ITLB_demand_access 14892839
Core_0_ITLB_demand_hit 14892839
Core_0_ITLB_demand_miss 0
Core_0_ITLB_demand_MPKI 0
Core_0_ITLB_demand_miss_rate 0
Core_0_ITLB_load_access 14892839
Core_0_ITLB_load_hit 14892839
Core_0_ITLB_load_miss 0
Core_0_ITLB_load_MPKI 0
Core_0_ITLB_load_miss_rate 0
Core_0_ITLB_rfo_access 0
Core_0_ITLB_rfo_hit 0
Core_0_ITLB_rfo_miss 0
Core_0_ITLB_rfo_MPKI 0
Core_0_ITLB_rfo_miss_rate 0
Core_0_ITLB_prefetch_access 0
Core_0_ITLB_prefetch_hit 0
Core_0_ITLB_prefetch_miss 0
Core_0_ITLB_prefetch_MPKI 0
Core_0_ITLB_prefetch_miss_rate 0
Core_0_ITLB_writeback_access 0
Core_0_ITLB_writeback_hit 0
Core_0_ITLB_writeback_miss 0
Core_0_ITLB_writeback_MPKI 0
Core_0_ITLB_writeback_miss_rate 0
Core_0_ITLB_prefetch_requested 0
Core_0_ITLB_prefetch_issued 0
Core_0_ITLB_prefetch_useful 0
Core_0_ITLB_prefetch_useless 0
Core_0_ITLB_prefetch_late 0
Core_0_ITLB_prefetch_fill 0
Core_0_ITLB_prefetch_too_early 0
Core_0_ITLB_prefetch_too_early_among_fill 0
Core_0_ITLB_prefetch_too_early_among_useless 0
Core_0_ITLB_prefetch_pollution_evict 0
Core_0_ITLB_prefetch_pollution_demand 0
Core_0_ITLB_prefetch_pollution_among_prefetch_fill 0
Core_0_ITLB_prefetch_accuracy 0
Core_0_ITLB_prefetch_coverage 0

Core_0_DTLB_total_access 38259341
Core_0_DTLB_total_hit 21162335
Core_0_DTLB_total_miss 17097006
Core_0_DTLB_total_MPKI 170.97
Core_0_DTLB_total_miss_rate 0.446871
Core_0_DTLB_demand_access 38259341
Core_0_DTLB_demand_hit 21162335
Core_0_DTLB_demand_miss 17097006
Core_0_DTLB_demand_MPKI 170.97
Core_0_DTLB_demand_miss_rate 0.446871
Core_0_DTLB_load_access 38259341
Core_0_DTLB_load_hit 21162335
Core_0_DTLB_load_miss 17097006
Core_0_DTLB_load_MPKI 170.97
Core_0_DTLB_load_miss_rate 0.446871
Core_0_DTLB_rfo_access 0
Core_0_DTLB_rfo_hit 0
Core_0_DTLB_rfo_miss 0
Core_0_DTLB_rfo_MPKI 0
Core_0_DTLB_rfo_miss_rate 0
Core_0_DTLB_prefetch_access 0
Core_0_DTLB_prefetch_hit 0
Core_0_DTLB_prefetch_miss 0
Core_0_DTLB_prefetch_MPKI 0
Core_0_DTLB_prefetch_miss_rate 0
Core_0_DTLB_writeback_access 0
Core_0_DTLB_writeback_hit 0
Core_0_DTLB_writeback_miss 0
Core_0_DTLB_writeback_MPKI 0
Core_0_DTLB_writeback_miss_rate 0
Core_0_DTLB_prefetch_requested 0
Core_0_DTLB_prefetch_issued 0
Core_0_DTLB_prefetch_useful 0
Core_0_DTLB_prefetch_useless 0
Core_0_DTLB_prefetch_late 0
Core_0_DTLB_prefetch_fill 0
Core_0_DTLB_prefetch_too_early 0
Core_0_DTLB_prefetch_too_early_among_fill 0
Core_0_DTLB_prefetch_too_early_among_useless 0
Core_0_DTLB_prefetch_pollution_evict 0
Core_0_DTLB_prefetch_pollution_demand 0
Core_0_DTLB_prefetch_pollution_among_prefetch_fill 0
Core_0_DTLB_prefetch_accuracy 0
Core_0_DTLB_prefetch_coverage 0

Core_0_STLB_total_access 17059131
Core_0_STLB_total_hit 262251
Core_0_STLB_total_miss 16796880
Core_0_STLB_total_MPKI 167.969
Core_0_STLB_total_miss_rate 0.984627
Core_0_STLB_demand_access 17059131
Core_0_STLB_demand_hit 262251
Core_0_STLB_demand_miss 16796880
Core_0_STLB_demand_MPKI 167.969
Core_0_STLB_demand_miss_rate 0.984627
Core_0_STLB_load_access 17059131
Core_0_STLB_load_hit 262251
Core_0_STLB_load_miss 16796880
Core_0_STLB_load_MPKI 167.969
Core_0_STLB_load_miss_rate 0.984627
Core_0_STLB_rfo_access 0
Core_0_STLB_rfo_hit 0
Core_0_STLB_rfo_miss 0
Core_0_STLB_rfo_MPKI 0
Core_0_STLB_rfo_miss_rate 0
Core_0_STLB_prefetch_access 0
Core_0_STLB_prefetch_hit 0
Core_0_STLB_prefetch_miss 0
Core_0_STLB_prefetch_MPKI 0
Core_0_STLB_prefetch_miss_rate 0
Core_0_STLB_writeback_access 0
Core_0_STLB_writeback_hit 0
Core_0_STLB_writeback_miss 0
Core_0_STLB_writeback_MPKI 0
Core_0_STLB_writeback_miss_rate 0
Core_0_STLB_prefetch_requested 0
Core_0_STLB_prefetch_issued 0
Core_0_STLB_prefetch_useful 0
Core_0_STLB_prefetch_useless 0
Core_0_STLB_prefetch_late 0
Core_0_STLB_prefetch_fill 0
Core_0_STLB_prefetch_too_early 0
Core_0_STLB_prefetch_too_early_among_fill 0
Core_0_STLB_prefetch_too_early_among_useless 0
Core_0_STLB_prefetch_pollution_evict 0
Core_0_STLB_prefetch_pollution_demand 0
Core_0_STLB_prefetch_pollution_among_prefetch_fill 0
Core_0_STLB_prefetch_accuracy 0
Core_0_STLB_prefetch_coverage 0

Core_0_L1I_total_access 14892840
Core_0_L1I_total_hit 14892840
Core_0_L1I_total_miss 0
Core_0_L1I_total_MPKI 0
Core_0_L1I_total_miss_rate 0
Core_0_L1I_demand_access 14892840
Core_0_L1I_demand_hit 14892840
Core_0_L1I_demand_miss 0
Core_0_L1I_demand_MPKI 0
Core_0_L1I_demand_miss_rate 0
Core_0_L1I_load_access 14892840
Core_0_L1I_load_hit 14892840
Core_0_L1I_load_miss 0
Core_0_L1I_load_MPKI 0
Core_0_L1I_load_miss_rate 0
Core_0_L1I_rfo_access 0
Core_0_L1I_rfo_hit 0
Core_0_L1I_rfo_miss 0
Core_0_L1I_rfo_MPKI 0
Core_0_L1I_rfo_miss_rate 0
Core_0_L1I_prefetch_access 0
Core_0_L1I_prefetch_hit 0
Core_0_L1I_prefetch_miss 0
Core_0_L1I_prefetch_MPKI 0
Core_0_L1I_prefetch_miss_rate 0
Core_0_L1I_writeback_access 0
Core_0_L1I_writeback_hit 0
Core_0_L1I_writeback_miss 0
Core_0_L1I_writeback_MPKI 0
Core_0_L1I_writeback_miss_rate 0
Core_0_L1I_prefetch_requested 0
Core_0_L1I_prefetch_issued 0
Core_0_L1I_prefetch_useful 0
Core_0_L1I_prefetch_useless 0
Core_0_L1I_prefetch_late 0
Core_0_L1I_prefetch_fill 0
Core_0_L1I_prefetch_too_early 0
Core_0_L1I_prefetch_too_early_among_fill 0
Core_0_L1I_prefetch_too_early_among_useless 0
Core_0_L1I_prefetch_pollution_evict 0
Core_0_L1I_prefetch_pollution_demand 0
Core_0_L1I_prefetch_pollution_among_prefetch_fill 0
Core_0_L1I_prefetch_accuracy 0
Core_0_L1I_prefetch_coverage 0

Core_0_L1D_total_access 38281282
Core_0_L1D_total_hit 18588642
Core_0_L1D_total_miss 19692640
Core_0_L1D_total_MPKI 196.926
Core_0_L1D_total_miss_rate 0.51442
Core_0_L1D_demand_access 37652961
Core_0_L1D_demand_hit 18007187
Core_0_L1D_demand_miss 19645774
Core_0_L1D_demand_MPKI 196.458
Core_0_L1D_demand_miss_rate 0.521759
Core_0_L1D_load_access 37652961
Core_0_L1D_load_hit 18007187
Core_0_L1D_load_miss 19645774
Core_0_L1D_load_MPKI 196.458
Core_0_L1D_load_miss_rate 0.521759
Core_0_L1D_rfo_access 0
Core_0_L1D_rfo_hit 0
Core_0_L1D_rfo_miss 0
Core_0_L1D_rfo_MPKI 0
Core_0_L1D_rfo_miss_rate 0
Core_0_L1D_prefetch_access 0
Core_0_L1D_prefetch_hit 0
Core_0_L1D_prefetch_miss 0
Core_0_L1D_prefetch_MPKI 0
Core_0_L1D_prefetch_miss_rate 0
Core_0_L1D_writeback_access 628321
Core_0_L1D_writeback_hit 581455
Core_0_L1D_writeback_miss 46866
Core_0_L1D_writeback_MPKI 0.46866
Core_0_L1D_writeback_miss_rate 0.0745893
Core_0_L1D_prefetch_requested 0
Core_0_L1D_prefetch_issued 0
Core_0_L1D_prefetch_useful 0
Core_0_L1D_prefetch_useless 0
Core_0_L1D_prefetch_late 0
Core_0_L1D_prefetch_fill 0
Core_0_L1D_prefetch_too_early 0
Core_0_L1D_prefetch_too_early_among_fill 0
Core_0_L1D_prefetch_too_early_among_useless 0
Core_0_L1D_prefetch_pollution_evict 0
Core_0_L1D_prefetch_pollution_demand 0
Core_0_L1D_prefetch_pollution_among_prefetch_fill 0
Core_0_L1D_prefetch_accuracy 0
Core_0_L1D_prefetch_coverage 0

Core_0_L2C_total_access 22873412
Core_0_L2C_total_hit 3750965
Core_0_L2C_total_miss 19122447
Core_0_L2C_total_MPKI 191.224
Core_0_L2C_total_miss_rate 0.836012
Core_0_L2C_demand_access 19340028
Core_0_L2C_demand_hit 1444530
Core_0_L2C_demand_miss 17895498
Core_0_L2C_demand_MPKI 178.955
Core_0_L2C_demand_miss_rate 0.925309
Core_0_L2C_load_access 19324390
Core_0_L2C_load_hit 1431011
Core_0_L2C_load_miss 17893379
Core_0_L2C_load_MPKI 178.934
Core_0_L2C_load_miss_rate 0.925948
Core_0_L2C_rfo_access 15638
Core_0_L2C_rfo_hit 13519
Core_0_L2C_rfo_miss 2119
Core_0_L2C_rfo_MPKI 0.02119
Core_0_L2C_rfo_miss_rate 0.135503
Core_0_L2C_prefetch_access 3469398
Core_0_L2C_prefetch_hit 2242450
Core_0_L2C_prefetch_miss 1226948
Core_0_L2C_prefetch_MPKI 12.2695
Core_0_L2C_prefetch_miss_rate 0.353649
Core_0_L2C_writeback_access 63986
Core_0_L2C_writeback_hit 63985
Core_0_L2C_writeback_miss 1
Core_0_L2C_writeback_MPKI 1e-05
Core_0_L2C_writeback_miss_rate 1.56284e-05
Core_0_L2C_prefetch_requested 3469389
Core_0_L2C_prefetch_issued 3469382
Core_0_L2C_prefetch_useful 1173377
Core_0_L2C_prefetch_useless 42008
Core_0_L2C_prefetch_late 1091
Core_0_L2C_prefetch_fill 1214293
Core_0_L2C_prefetch_too_early 6273
Core_0_L2C_prefetch_too_early_among_fill 0.00516597
Core_0_L2C_prefetch_too_early_among_useless 0.149329
Core_0_L2C_prefetch_pollution_evict 113504
Core_0_L2C_prefetch_pollution_demand 113405
Core_0_L2C_prefetch_pollution_among_prefetch_fill 0.0934733
Core_0_L2C_prefetch_accuracy 0.338209
Core_0_L2C_prefetch_coverage 0.0615336

Core_0_LLC_total_access 19147923
Core_0_LLC_total_hit 1576378
Core_0_LLC_total_miss 17571545
Core_0_LLC_total_MPKI 175.715
Core_0_LLC_total_miss_rate 0.917674
Core_0_LLC_demand_access 17894407
Core_0_LLC_demand_hit 1565148
Core_0_LLC_demand_miss 16329259
Core_0_LLC_demand_MPKI 163.293
Core_0_LLC_demand_miss_rate 0.912534
Core_0_LLC_load_access 17892288
Core_0_LLC_load_hit 1563035
Core_0_LLC_load_miss 16329253
Core_0_LLC_load_MPKI 163.293
Core_0_LLC_load_miss_rate 0.912642
Core_0_LLC_rfo_access 2119
Core_0_LLC_rfo_hit 2113
Core_0_LLC_rfo_miss 6
Core_0_LLC_rfo_MPKI 6e-05
Core_0_LLC_rfo_miss_rate 0.00283152
Core_0_LLC_prefetch_access 1215389
Core_0_LLC_prefetch_hit 186
Core_0_LLC_prefetch_miss 1215203
Core_0_LLC_prefetch_MPKI 12.152
Core_0_LLC_prefetch_miss_rate 0.999847
Core_0_LLC_writeback_access 38127
Core_0_LLC_writeback_hit 11044
Core_0_LLC_writeback_miss 27083
Core_0_LLC_writeback_MPKI 0.27083
Core_0_LLC_writeback_miss_rate 0.710337
Core_0_LLC_prefetch_requested 0
Core_0_LLC_prefetch_issued 0
Core_0_LLC_prefetch_useful 0
Core_0_LLC_prefetch_useless 0
Core_0_LLC_prefetch_late 0
Core_0_LLC_prefetch_fill 1215202
Core_0_LLC_prefetch_too_early 0
Core_0_LLC_prefetch_too_early_among_fill 0
Core_0_LLC_prefetch_too_early_among_useless 0
Core_0_LLC_prefetch_pollution_evict 308933
Core_0_LLC_prefetch_pollution_demand 308933
Core_0_LLC_prefetch_pollution_among_prefetch_fill 0.254224
Core_0_LLC_prefetch_accuracy 0
Core_0_LLC_prefetch_coverage 0

[DRAM Statistics]
Channel_0_RQ_row_buffer_hit 25987
Channel_0_RQ_row_buffer_miss 17941402
Channel_0_WQ_row_buffer_hit 5168
Channel_0_WQ_row_buffer_miss 29290
Channel_0_WQ_full 0
Channel_0_dbus_congested 4046974
DRAM_total_RQ_row_buffer_hit 25987
DRAM_total_RQ_row_buffer_miss 17941402
DRAM_total_WQ_row_buffer_hit 5168
DRAM_total_WQ_row_buffer_miss 29290
DRAM_total_WQ_full 0
DRAM_total_dbus_congested 4046974
DRAM_avg_congested_cycle 15.2745

====== DRAM_RQ_TRAFFIC ========
DRAM_RQ_READ_TRAFFIC_BREAKDOWN:
data_demand_read.count = 16329259
data_demand_read.share = 90.88%

inst_demand_read.count = 0
inst_demand_read.share = 0.00%

cache_inst_prefetch.count = 0
cache_inst_prefetch.share = 0.00%

cache_data_prefetch.count = 1215202
cache_data_prefetch.share = 6.76%

stlb_data_demand.count = 422928
stlb_data_demand.share = 2.35%

stlb_inst_demand.count = 0
stlb_inst_demand.share = 0.00%

stlb_l1i_pref.count = 0
stlb_l1i_pref.share = 0.00%

stlb_l1d_pref.count = 0
stlb_l1d_pref.share = 0.00%

DRAM_RQ_READ_TRAFFIC_SUMMARY:
cache_demand.count = 16329259
cache_demand.share = 90.88%

cache_prefetch.count = 1215202
cache_prefetch.share = 6.76%

stlb_demand.count = 422928
stlb_demand.share = 2.35%

stlb_prefetch.count = 0
stlb_prefetch.share = 0.00%

DRAM_RQ_READ_TRAFFIC_DEBUG:
total_classified_read.count = 17967389
unclassified_read.count = 0
total_read_with_other.count = 17967389

classified_plus_unclassified_check.count = 17967389
dram_rq_read_total_observed.count = 17967389
dram_rq_read_total_observed.per_1K_instructions = 179.674

STLB_MISS_PTW_DRAM_TOUCH_BREAKDOWN:
stlb_miss_total.count = 16796880

stlb_miss_touch_dram.count = 422883
stlb_miss_touch_dram.share = 2.52%

stlb_miss_no_dram_touch.count = 16373997
stlb_miss_no_dram_touch.share = 97.48%

STLB_MISS_PTW_DRAM_TOUCH_DEBUG:
stlb_miss_touch_plus_no_touch.count = 16796880
stlb_miss_total_check.count = 16796880

======STLB miss causes ========
Core_0_STLB_miss_cause_breakdown
Core_0_STLB_cause_Demand_Data_miss 16796880
Core_0_STLB_cause_Demand_Data_miss_rate 0.984627
Core_0_STLB_cause_Demand_Instruction_miss 0
Core_0_STLB_cause_Demand_Instruction_miss_rate 0
Core_0_STLB_cause_L1D_Prefetch_miss 0
Core_0_STLB_cause_L1D_Prefetch_miss_rate 0
Core_0_STLB_cause_L1D_Prefetch_Same_Page_miss 0
Core_0_STLB_cause_L1D_Prefetch_Same_Page_miss_rate 0
Core_0_STLB_cause_L1D_Prefetch_Cross_Page_miss 0
Core_0_STLB_cause_L1D_Prefetch_Cross_Page_miss_rate 0
Core_0_STLB_cause_L1I_Prefetch_miss 0
Core_0_STLB_cause_L1I_Prefetch_miss_rate 0
Core_0_STLB_cause_Other_miss 0
Core_0_STLB_cause_Other_miss_rate 0
Core_0_STLB_Demand_miss 16796880
Core_0_STLB_Demand_miss_rate 0.984627
Core_0_STLB_L1D_Prefetch_miss 0
Core_0_STLB_L1D_Prefetch_miss_rate 0
Core_0_STLB_Other_miss 0
Core_0_STLB_Other_miss_rate 0

========== vBerti-TLB Cross-page Flow Stats ==========

Core_0_vBerti_Requested 0
Core_0_vBerti_Cross_page_prefetch_in_Requested 0
Core_0_vBerti_Same_page_prefetch_in_Requested 0
Core_0_vBerti_Cross_page_prefetch_of_Requested 0
Core_0_vBerti_Issued 0
Core_0_vBerti_PQ_Drop_Rate 0
Core_0_vBerti_InPQ_Cross_page_prefetch_of_Requested 0
Core_0_vBerti_Cross_page_PQ_Drop_rate 0
Core_0_vBerti_Cross_page_prefetch_of_Issued 0

========= DTLB_vBerti Prefetch Stats =========
Core_0_DTLB_demand_access 38259341
Core_0_DTLB_demand_hit 21162335
Core_0_DTLB_demand_miss 17097006
Core_0_DTLB_demand_mshr_merge 37876
Core_0_DTLB_demand_fill 17059138
Core_0_DTLB_demand_miss_rate 0.446871
Core_0_DTLB_demand_mpki 170.97
Core_0_DTLB_vberti_prefetch_access 0
Core_0_DTLB_vberti_prefetch_hit 0
Core_0_DTLB_vberti_prefetch_miss 0
Core_0_DTLB_vberti_prefetch_mshr_merge 0
Core_0_DTLB_vberti_prefetch_fill 0
Core_0_DTLB_vberti_prefetch_miss_rate 0
Core_0_DTLB_vberti_prefetch_mpki 0

=== DTLB_vBerti Same/Cross-page Prefetch Stats ===
Core_0_DTLB_vberti_same_page_prefetch 0
Core_0_DTLB_vberti_same_page_prefetch_hit 0
Core_0_DTLB_vberti_same_page_prefetch_miss 0
Core_0_DTLB_vberti_same_page_prefetch_mshr_merge 0
Core_0_DTLB_vberti_same_page_prefetch_fill 0
Core_0_DTLB_vberti_same_page_prefetch_miss_rate 0
Core_0_DTLB_vberti_same_page_prefetch_mpki 0
Core_0_DTLB_vberti_cross_page_prefetch 0
Core_0_DTLB_vberti_cross_page_prefetch_hit 0
Core_0_DTLB_vberti_cross_page_prefetch_miss 0
Core_0_DTLB_vberti_cross_page_prefetch_mshr_merge 0
Core_0_DTLB_vberti_cross_page_prefetch_fill 0
Core_0_DTLB_vberti_cross_page_prefetch_miss_rate 0
Core_0_DTLB_vberti_cross_page_prefetch_mpki 0
Core_0_DTLB_same_page_prefetch_miss_rate 0
Core_0_DTLB_same_page_prefetch_mpki 0
Core_0_DTLB_cross_page_prefetch_miss_rate 0
Core_0_DTLB_cross_page_prefetch_mpki 0
Core_0_DTLB_cross_page_prefetch_issued 0
Core_0_DTLB_cross_page_prefetch_lookups 0
Core_0_DTLB_cross_page_prefetch_useful 0
Core_0_DTLB_cross_page_prefetch_useless 0
Core_0_DTLB_cross_page_prefetch_late 0
Core_0_DTLB_cross_page_prefetch_too_early 0
Core_0_DTLB_cross_page_prefetch_too_early_among_fill 0
Core_0_DTLB_cross_page_prefetch_too_early_among_useless 0
Core_0_DTLB_cross_page_prefetch_pollution_evict 0
Core_0_DTLB_cross_page_prefetch_pollution_demand 0
Core_0_DTLB_cross_page_prefetch_pollution_among_prefetch_fill 0
Core_0_DTLB_cross_page_prefetch_accuracy 0
Core_0_DTLB_cross_page_prefetch_coverage 0

========= STLB_vBerti Prefetch Stats =========
Core_0_STLB_demand_access 17059131
Core_0_STLB_demand_hit 262251
Core_0_STLB_demand_miss 16796880
Core_0_STLB_demand_mshr_merge 0
Core_0_STLB_demand_fill 16796887
Core_0_STLB_demand_miss_rate 0.984627
Core_0_STLB_demand_mpki 167.969
Core_0_STLB_vberti_prefetch_access 0
Core_0_STLB_vberti_prefetch_hit 0
Core_0_STLB_vberti_prefetch_miss 0
Core_0_STLB_vberti_prefetch_mshr_merge 0
Core_0_STLB_vberti_prefetch_fill 0
Core_0_STLB_vberti_prefetch_miss_rate 0
Core_0_STLB_vberti_prefetch_mpki 0

=== STLB_vBerti Same/Cross-page Prefetch Stats ===
Core_0_STLB_vberti_same_page_prefetch 0
Core_0_STLB_vberti_same_page_prefetch_hit 0
Core_0_STLB_vberti_same_page_prefetch_miss 0
Core_0_STLB_vberti_same_page_prefetch_mshr_merge 0
Core_0_STLB_vberti_same_page_prefetch_fill 0
Core_0_STLB_vberti_same_page_prefetch_miss_rate 0
Core_0_STLB_vberti_same_page_prefetch_mpki 0
Core_0_STLB_vberti_cross_page_prefetch 0
Core_0_STLB_vberti_cross_page_prefetch_hit 0
Core_0_STLB_vberti_cross_page_prefetch_miss 0
Core_0_STLB_vberti_cross_page_prefetch_mshr_merge 0
Core_0_STLB_vberti_cross_page_prefetch_fill 0
Core_0_STLB_vberti_cross_page_prefetch_miss_rate 0
Core_0_STLB_vberti_cross_page_prefetch_mpki 0
Core_0_STLB_same_page_prefetch_miss_rate 0
Core_0_STLB_same_page_prefetch_mpki 0
Core_0_STLB_cross_page_prefetch_miss_rate 0
Core_0_STLB_cross_page_prefetch_mpki 0
Core_0_STLB_cross_page_prefetch_issued 0
Core_0_STLB_cross_page_prefetch_lookups 0
Core_0_STLB_cross_page_prefetch_useful 0
Core_0_STLB_cross_page_prefetch_useless 0
Core_0_STLB_cross_page_prefetch_late 0
Core_0_STLB_cross_page_prefetch_too_early 0
Core_0_STLB_cross_page_prefetch_too_early_among_fill 0
Core_0_STLB_cross_page_prefetch_too_early_among_useless 0
Core_0_STLB_cross_page_prefetch_pollution_evict 0
Core_0_STLB_cross_page_prefetch_pollution_demand 0
Core_0_STLB_cross_page_prefetch_pollution_among_prefetch_fill 0
Core_0_STLB_cross_page_prefetch_accuracy 0
Core_0_STLB_cross_page_prefetch_coverage 0

========= STLB Cross-page Prefetch Buffer Stats =========
Core_0_STLB_raw_demand_miss 16796880
Core_0_CP_PB_insert 0
Core_0_CP_PB_demand_hit 0
Core_0_STLB_PB_demand_miss 16796880
Core_0_CP_PB_coverage 0
Core_0_STLB_raw_demand_mpki 167.969
Core_0_STLB_PB_demand_mpki 167.969
Core_0_CP_PB_demand_hit_mpki 0

Core_0_TLB_demand_miss_rate 0.439027
Core_0_TLB_demand_mpki 167.969
Core_0_TLB_same_page_prefetch_miss_rate 0
Core_0_TLB_same_page_prefetch_mpki 0
Core_0_TLB_cross_page_prefetch_miss_rate 0
Core_0_TLB_cross_page_prefetch_mpki 0
Core_0_TLB_cross_page_prefetch_issued 0
Core_0_TLB_cross_page_prefetch_lookups 0
Core_0_TLB_cross_page_prefetch_useful 0
Core_0_TLB_cross_page_prefetch_useless 0
Core_0_TLB_cross_page_prefetch_late 0
Core_0_TLB_cross_page_prefetch_too_early 0
Core_0_TLB_cross_page_prefetch_too_early_among_fill 0
Core_0_TLB_cross_page_prefetch_too_early_among_useless 0
Core_0_TLB_cross_page_prefetch_accuracy 0
Core_0_TLB_cross_page_prefetch_coverage 0
