[VMEM] WARNING: physical memory size is smaller than virtual memory size.

*** ChampSim Multicore Out-of-Order Simulator ***
Warmup Instructions: 50000000
Simulation Instructions: 100000000
Number of CPUs: 1
Page size: 4096
Core 0: /data0/tzh/champsim_traces/QMM/srv_2_new.xz
Off-chip DRAM Size: 16 GiB Channels: 1 Width: 64-bit Data Rate: 3205 MT/s
[BTB] WARNING: target of return is a lower address than the corresponding call. This is usually a problem with your trace.
[BTB] WARNING: target of return is a lower address than the corresponding call. This is usually a problem with your trace.
[BTB] WARNING: target of return is a lower address than the corresponding call. This is usually a problem with your trace.
[BTB] WARNING: target of return is a lower address than the corresponding call. This is usually a problem with your trace.
[BTB] WARNING: target of return is a lower address than the corresponding call. This is usually a problem with your trace.
[BTB] WARNING: target of return is a lower address than the corresponding call. This is usually a problem with your trace.
[BTB] WARNING: target of return is a lower address than the corresponding call. This is usually a problem with your trace.
[BTB] WARNING: target of return is a lower address than the corresponding call. This is usually a problem with your trace.
[BTB] WARNING: target of return is a lower address than the corresponding call. This is usually a problem with your trace.
[BTB] WARNING: target of return is a lower address than the corresponding call. This is usually a problem with your trace.
*** Reached end of trace: (0, "/data0/tzh/champsim_traces/QMM/srv_2_new.xz")
Warmup halting CPU 0 at instruction 50000001 cycle 10840549 for remainder of phase
Warmup finished CPU 0 instructions: 50000001 cycles: 10840549 cumulative IPC: 4.612 (Simulation time: 00 hr 02 min 30 sec)
Warmup complete CPU 0 instructions: 50000001 cycles: 10840549 cumulative IPC: 4.612 (Simulation time: 00 hr 02 min 30 sec)
*** Reached end of trace: (0, "/data0/tzh/champsim_traces/QMM/srv_2_new.xz")
*** Reached end of trace: (0, "/data0/tzh/champsim_traces/QMM/srv_2_new.xz")
*** Reached end of trace: (0, "/data0/tzh/champsim_traces/QMM/srv_2_new.xz")
Simulation finished CPU 0 instructions: 100000000 cycles: 55164832 cumulative IPC: 1.813 (Simulation time: 00 hr 10 min 56 sec)
Simulation complete CPU 0 instructions: 100000000 cycles: 55164832 cumulative IPC: 1.813 (Simulation time: 00 hr 10 min 56 sec)

ChampSim completed all CPUs

=== Simulation ===
CPU 0 runs /data0/tzh/champsim_traces/QMM/srv_2_new.xz

Region of Interest Statistics

CPU 0 cumulative IPC: 1.813 instructions: 100000000 cycles: 55164832
CPU 0 Branch Prediction Accuracy: 98.57% MPKI: 2.548 Average ROB Occupancy at Mispredict: 141.1
Branch type MPKI
BRANCH_DIRECT_JUMP: 0.1664
BRANCH_INDIRECT: 0.1619
BRANCH_CONDITIONAL: 1.503
BRANCH_DIRECT_CALL: 0.328
BRANCH_INDIRECT_CALL: 0.08732
BRANCH_RETURN: 0.3019

cpu0->cpu0_STLB TOTAL        ACCESS:    1647018 HIT:    1480092 MISS:     166926 MSHR_MERGE:          0
cpu0->cpu0_STLB LOAD         ACCESS:    1647018 HIT:    1480092 MISS:     166926 MSHR_MERGE:          0
cpu0->cpu0_STLB RFO          ACCESS:          0 HIT:          0 MISS:          0 MSHR_MERGE:          0
cpu0->cpu0_STLB PREFETCH     ACCESS:          0 HIT:          0 MISS:          0 MSHR_MERGE:          0
cpu0->cpu0_STLB WRITE        ACCESS:          0 HIT:          0 MISS:          0 MSHR_MERGE:          0
cpu0->cpu0_STLB TRANSLATION  ACCESS:          0 HIT:          0 MISS:          0 MSHR_MERGE:          0
cpu0->cpu0_STLB PREFETCH REQUESTED:          0 ISSUED:          0 USEFUL:          0 USELESS:          0 LATE:          0 TOO_EARLY:          0
cpu0->cpu0_STLB AVERAGE MISS LATENCY: 37.01 cycles
cpu0->cpu0_L2C TOTAL        ACCESS:    4555286 HIT:    2900480 MISS:    1654806 MSHR_MERGE:        976
cpu0->cpu0_L2C LOAD         ACCESS:    3671352 HIT:    2215522 MISS:    1455830 MSHR_MERGE:        103
cpu0->cpu0_L2C RFO          ACCESS:     168518 HIT:      83279 MISS:      85239 MSHR_MERGE:          0
cpu0->cpu0_L2C PREFETCH     ACCESS:      36380 HIT:      17983 MISS:      18397 MSHR_MERGE:        873
cpu0->cpu0_L2C WRITE        ACCESS:     522931 HIT:     520670 MISS:       2261 MSHR_MERGE:          0
cpu0->cpu0_L2C TRANSLATION  ACCESS:     156105 HIT:      63026 MISS:      93079 MSHR_MERGE:          0
cpu0->cpu0_L2C PREFETCH REQUESTED:      36380 ISSUED:      36380 USEFUL:      10921 USELESS:       6614 LATE:        103 TOO_EARLY:        404
cpu0->cpu0_L2C AVERAGE MISS LATENCY: 32.63 cycles
cpu0->cpu0_L1I TOTAL        ACCESS:   15810234 HIT:   11624707 MISS:    4185527 MSHR_MERGE:    1611645
cpu0->cpu0_L1I LOAD         ACCESS:   15810234 HIT:   11624707 MISS:    4185527 MSHR_MERGE:    1611645
cpu0->cpu0_L1I RFO          ACCESS:          0 HIT:          0 MISS:          0 MSHR_MERGE:          0
cpu0->cpu0_L1I PREFETCH     ACCESS:          0 HIT:          0 MISS:          0 MSHR_MERGE:          0
cpu0->cpu0_L1I WRITE        ACCESS:          0 HIT:          0 MISS:          0 MSHR_MERGE:          0
cpu0->cpu0_L1I TRANSLATION  ACCESS:          0 HIT:          0 MISS:          0 MSHR_MERGE:          0
cpu0->cpu0_L1I PREFETCH REQUESTED:          0 ISSUED:          0 USEFUL:          0 USELESS:          0 LATE:          0 TOO_EARLY:          0
cpu0->cpu0_L1I AVERAGE MISS LATENCY: 14.08 cycles
cpu0->cpu0_L1D TOTAL        ACCESS:   23143803 HIT:   21044405 MISS:    2099398 MSHR_MERGE:     677284
cpu0->cpu0_L1D LOAD         ACCESS:   12834639 HIT:   11355490 MISS:    1479149 MSHR_MERGE:     381667
cpu0->cpu0_L1D RFO          ACCESS:          0 HIT:          0 MISS:          0 MSHR_MERGE:          0
cpu0->cpu0_L1D PREFETCH     ACCESS:          0 HIT:          0 MISS:          0 MSHR_MERGE:          0
cpu0->cpu0_L1D WRITE        ACCESS:    9929176 HIT:    9468143 MISS:     461033 MSHR_MERGE:     292506
cpu0->cpu0_L1D TRANSLATION  ACCESS:     379988 HIT:     220772 MISS:     159216 MSHR_MERGE:       3111
cpu0->cpu0_L1D PREFETCH REQUESTED:          0 ISSUED:          0 USEFUL:          0 USELESS:          0 LATE:          0 TOO_EARLY:          0
cpu0->cpu0_L1D AVERAGE MISS LATENCY: 34.6 cycles
cpu0->cpu0_ITLB TOTAL        ACCESS:   13417069 HIT:   12435825 MISS:     981244 MSHR_MERGE:     609472
cpu0->cpu0_ITLB LOAD         ACCESS:   13417069 HIT:   12435825 MISS:     981244 MSHR_MERGE:     609472
cpu0->cpu0_ITLB RFO          ACCESS:          0 HIT:          0 MISS:          0 MSHR_MERGE:          0
cpu0->cpu0_ITLB PREFETCH     ACCESS:          0 HIT:          0 MISS:          0 MSHR_MERGE:          0
cpu0->cpu0_ITLB WRITE        ACCESS:          0 HIT:          0 MISS:          0 MSHR_MERGE:          0
cpu0->cpu0_ITLB TRANSLATION  ACCESS:          0 HIT:          0 MISS:          0 MSHR_MERGE:          0
cpu0->cpu0_ITLB PREFETCH REQUESTED:          0 ISSUED:          0 USEFUL:          0 USELESS:          0 LATE:          0 TOO_EARLY:          0
cpu0->cpu0_ITLB AVERAGE MISS LATENCY: 8.984 cycles
cpu0->cpu0_DTLB TOTAL        ACCESS:   21415009 HIT:   19694247 MISS:    1720762 MSHR_MERGE:     445516
cpu0->cpu0_DTLB LOAD         ACCESS:   21415009 HIT:   19694247 MISS:    1720762 MSHR_MERGE:     445516
cpu0->cpu0_DTLB RFO          ACCESS:          0 HIT:          0 MISS:          0 MSHR_MERGE:          0
cpu0->cpu0_DTLB PREFETCH     ACCESS:          0 HIT:          0 MISS:          0 MSHR_MERGE:          0
cpu0->cpu0_DTLB WRITE        ACCESS:          0 HIT:          0 MISS:          0 MSHR_MERGE:          0
cpu0->cpu0_DTLB TRANSLATION  ACCESS:          0 HIT:          0 MISS:          0 MSHR_MERGE:          0
cpu0->cpu0_DTLB PREFETCH REQUESTED:          0 ISSUED:          0 USEFUL:          0 USELESS:          0 LATE:          0 TOO_EARLY:          0
cpu0->cpu0_DTLB AVERAGE MISS LATENCY: 8.829 cycles
cpu0->LLC TOTAL        ACCESS:    1922408 HIT:    1754816 MISS:     167592 MSHR_MERGE:          0
cpu0->LLC LOAD         ACCESS:    1455727 HIT:    1332839 MISS:     122888 MSHR_MERGE:          0
cpu0->LLC RFO          ACCESS:      85236 HIT:      62420 MISS:      22816 MSHR_MERGE:          0
cpu0->LLC PREFETCH     ACCESS:      17524 HIT:       7204 MISS:      10320 MSHR_MERGE:          0
cpu0->LLC WRITE        ACCESS:     270842 HIT:     265966 MISS:       4876 MSHR_MERGE:          0
cpu0->LLC TRANSLATION  ACCESS:      93079 HIT:      86387 MISS:       6692 MSHR_MERGE:          0
cpu0->LLC PREFETCH REQUESTED:          0 ISSUED:          0 USEFUL:          0 USELESS:          0 LATE:          0 TOO_EARLY:          0
cpu0->LLC AVERAGE MISS LATENCY: 182.8 cycles

DRAM Statistics

Channel 0 RQ ROW_BUFFER_HIT:       6496
  ROW_BUFFER_MISS:     156218
  AVG DBUS CONGESTED CYCLE: 15.66
Channel 0 WQ ROW_BUFFER_HIT:      24824
  ROW_BUFFER_MISS:      82835
  FULL:          0
Channel 0 REFRESHES ISSUED:       4597

[ROI Statistics]
[System Configuration]
num_cpus 1
cpu_freq 4000
fetch_width 6
decode_width 6
dispatch_width 6
execute_width 6
lq_width 2
sq_width 2
retire_width 6
scheduler_size 128
branch_mispredict_penalty 15
rob_size 352
lq_size 128
sq_size 72
ifetch_buffer_size 64
decode_buffer_size 32
dispatch_buffer_size 32
register_file_size 288
decode_latency 1
dispatch_latency 1
schedule_latency 1
execute_latency 1
page_size 4096
block_size 64
core_0_itlb_set 16
core_0_itlb_way 4
core_0_itlb_rq_size 16
core_0_itlb_wq_size 16
core_0_itlb_pq_size 0
core_0_itlb_mshr_size 8
core_0_itlb_hit_latency 1
core_0_itlb_fill_latency 1
core_0_itlb_max_tag_check 2
core_0_itlb_max_fill 2
core_0_dtlb_set 16
core_0_dtlb_way 4
core_0_dtlb_rq_size 16
core_0_dtlb_wq_size 16
core_0_dtlb_pq_size 0
core_0_dtlb_mshr_size 8
core_0_dtlb_hit_latency 1
core_0_dtlb_fill_latency 1
core_0_dtlb_max_tag_check 2
core_0_dtlb_max_fill 2
core_0_stlb_set 128
core_0_stlb_way 12
core_0_stlb_rq_size 32
core_0_stlb_wq_size 32
core_0_stlb_pq_size 0
core_0_stlb_mshr_size 16
core_0_stlb_hit_latency 4
core_0_stlb_fill_latency 4
core_0_stlb_max_tag_check 1
core_0_stlb_max_fill 1
core_0_l1i_set 64
core_0_l1i_way 8
core_0_l1i_rq_size 64
core_0_l1i_wq_size 64
core_0_l1i_pq_size 32
core_0_l1i_mshr_size 8
core_0_l1i_hit_latency 2
core_0_l1i_fill_latency 2
core_0_l1i_max_tag_check 2
core_0_l1i_max_fill 2
core_0_l1d_set 64
core_0_l1d_way 12
core_0_l1d_rq_size 64
core_0_l1d_wq_size 64
core_0_l1d_pq_size 8
core_0_l1d_mshr_size 16
core_0_l1d_hit_latency 2
core_0_l1d_fill_latency 3
core_0_l1d_max_tag_check 2
core_0_l1d_max_fill 2
core_0_l2c_set 1024
core_0_l2c_way 8
core_0_l2c_rq_size 32
core_0_l2c_wq_size 32
core_0_l2c_pq_size 16
core_0_l2c_mshr_size 32
core_0_l2c_hit_latency 5
core_0_l2c_fill_latency 5
core_0_l2c_max_tag_check 1
core_0_l2c_max_fill 1
llc_set 2048
llc_way 16
llc_rq_size 32
llc_wq_size 32
llc_pq_size 32
llc_mshr_size 64
llc_hit_latency 10
llc_fill_latency 10
llc_max_tag_check 1
llc_max_fill 1
dram_channels 1
dram_ranks 1
dram_bankgroups 8
dram_banks 4
dram_rows 65536
dram_columns 1024
dram_channel_width 8
dram_rq_size 64
dram_wq_size 64
dram_size 17179869184
core_0_itlb_prefetcher no
core_0_dtlb_prefetcher no
core_0_stlb_prefetcher no
core_0_l1i_prefetcher next_line
core_0_l1d_prefetcher no
core_0_l2c_prefetcher ip_stride
llc_prefetcher no
llc_replacement drrip

Core_0_instructions 100000000
Core_0_cycles 55164832
Core_0_IPC 1.81275
Core_0_branch_prediction_accuracy 98.5727
Core_0_branch_MPKI 2.54795
Core_0_average_ROB_occupancy_at_mispredict 141.11

Core_0_ITLB_total_access 13417069
Core_0_ITLB_total_hit 12435825
Core_0_ITLB_total_miss 981244
Core_0_ITLB_total_MPKI 9.81244
Core_0_ITLB_total_miss_rate 0.073134
Core_0_ITLB_demand_access 13417069
Core_0_ITLB_demand_hit 12435825
Core_0_ITLB_demand_miss 981244
Core_0_ITLB_demand_MPKI 9.81244
Core_0_ITLB_demand_miss_rate 0.073134
Core_0_ITLB_load_access 13417069
Core_0_ITLB_load_hit 12435825
Core_0_ITLB_load_miss 981244
Core_0_ITLB_load_MPKI 9.81244
Core_0_ITLB_load_miss_rate 0.073134
Core_0_ITLB_rfo_access 0
Core_0_ITLB_rfo_hit 0
Core_0_ITLB_rfo_miss 0
Core_0_ITLB_rfo_MPKI 0
Core_0_ITLB_rfo_miss_rate 0
Core_0_ITLB_prefetch_access 0
Core_0_ITLB_prefetch_hit 0
Core_0_ITLB_prefetch_miss 0
Core_0_ITLB_prefetch_MPKI 0
Core_0_ITLB_prefetch_miss_rate 0
Core_0_ITLB_writeback_access 0
Core_0_ITLB_writeback_hit 0
Core_0_ITLB_writeback_miss 0
Core_0_ITLB_writeback_MPKI 0
Core_0_ITLB_writeback_miss_rate 0
Core_0_ITLB_prefetch_requested 0
Core_0_ITLB_prefetch_issued 0
Core_0_ITLB_prefetch_useful 0
Core_0_ITLB_prefetch_useless 0
Core_0_ITLB_prefetch_late 0
Core_0_ITLB_prefetch_fill 0
Core_0_ITLB_prefetch_too_early 0
Core_0_ITLB_prefetch_too_early_among_fill 0
Core_0_ITLB_prefetch_too_early_among_useless 0
Core_0_ITLB_prefetch_pollution_evict 0
Core_0_ITLB_prefetch_pollution_demand 0
Core_0_ITLB_prefetch_pollution_among_prefetch_fill 0
Core_0_ITLB_prefetch_accuracy 0
Core_0_ITLB_prefetch_coverage 0

Core_0_DTLB_total_access 21415009
Core_0_DTLB_total_hit 19694247
Core_0_DTLB_total_miss 1720762
Core_0_DTLB_total_MPKI 17.2076
Core_0_DTLB_total_miss_rate 0.0803531
Core_0_DTLB_demand_access 21415009
Core_0_DTLB_demand_hit 19694247
Core_0_DTLB_demand_miss 1720762
Core_0_DTLB_demand_MPKI 17.2076
Core_0_DTLB_demand_miss_rate 0.0803531
Core_0_DTLB_load_access 21415009
Core_0_DTLB_load_hit 19694247
Core_0_DTLB_load_miss 1720762
Core_0_DTLB_load_MPKI 17.2076
Core_0_DTLB_load_miss_rate 0.0803531
Core_0_DTLB_rfo_access 0
Core_0_DTLB_rfo_hit 0
Core_0_DTLB_rfo_miss 0
Core_0_DTLB_rfo_MPKI 0
Core_0_DTLB_rfo_miss_rate 0
Core_0_DTLB_prefetch_access 0
Core_0_DTLB_prefetch_hit 0
Core_0_DTLB_prefetch_miss 0
Core_0_DTLB_prefetch_MPKI 0
Core_0_DTLB_prefetch_miss_rate 0
Core_0_DTLB_writeback_access 0
Core_0_DTLB_writeback_hit 0
Core_0_DTLB_writeback_miss 0
Core_0_DTLB_writeback_MPKI 0
Core_0_DTLB_writeback_miss_rate 0
Core_0_DTLB_prefetch_requested 0
Core_0_DTLB_prefetch_issued 0
Core_0_DTLB_prefetch_useful 0
Core_0_DTLB_prefetch_useless 0
Core_0_DTLB_prefetch_late 0
Core_0_DTLB_prefetch_fill 0
Core_0_DTLB_prefetch_too_early 0
Core_0_DTLB_prefetch_too_early_among_fill 0
Core_0_DTLB_prefetch_too_early_among_useless 0
Core_0_DTLB_prefetch_pollution_evict 0
Core_0_DTLB_prefetch_pollution_demand 0
Core_0_DTLB_prefetch_pollution_among_prefetch_fill 0
Core_0_DTLB_prefetch_accuracy 0
Core_0_DTLB_prefetch_coverage 0

Core_0_STLB_total_access 1647018
Core_0_STLB_total_hit 1480092
Core_0_STLB_total_miss 166926
Core_0_STLB_total_MPKI 1.66926
Core_0_STLB_total_miss_rate 0.10135
Core_0_STLB_demand_access 1647018
Core_0_STLB_demand_hit 1480092
Core_0_STLB_demand_miss 166926
Core_0_STLB_demand_MPKI 1.66926
Core_0_STLB_demand_miss_rate 0.10135
Core_0_STLB_load_access 1647018
Core_0_STLB_load_hit 1480092
Core_0_STLB_load_miss 166926
Core_0_STLB_load_MPKI 1.66926
Core_0_STLB_load_miss_rate 0.10135
Core_0_STLB_rfo_access 0
Core_0_STLB_rfo_hit 0
Core_0_STLB_rfo_miss 0
Core_0_STLB_rfo_MPKI 0
Core_0_STLB_rfo_miss_rate 0
Core_0_STLB_prefetch_access 0
Core_0_STLB_prefetch_hit 0
Core_0_STLB_prefetch_miss 0
Core_0_STLB_prefetch_MPKI 0
Core_0_STLB_prefetch_miss_rate 0
Core_0_STLB_writeback_access 0
Core_0_STLB_writeback_hit 0
Core_0_STLB_writeback_miss 0
Core_0_STLB_writeback_MPKI 0
Core_0_STLB_writeback_miss_rate 0
Core_0_STLB_prefetch_requested 0
Core_0_STLB_prefetch_issued 0
Core_0_STLB_prefetch_useful 0
Core_0_STLB_prefetch_useless 0
Core_0_STLB_prefetch_late 0
Core_0_STLB_prefetch_fill 0
Core_0_STLB_prefetch_too_early 0
Core_0_STLB_prefetch_too_early_among_fill 0
Core_0_STLB_prefetch_too_early_among_useless 0
Core_0_STLB_prefetch_pollution_evict 0
Core_0_STLB_prefetch_pollution_demand 0
Core_0_STLB_prefetch_pollution_among_prefetch_fill 0
Core_0_STLB_prefetch_accuracy 0
Core_0_STLB_prefetch_coverage 0

Core_0_L1I_total_access 15810234
Core_0_L1I_total_hit 11624707
Core_0_L1I_total_miss 4185527
Core_0_L1I_total_MPKI 41.8553
Core_0_L1I_total_miss_rate 0.264735
Core_0_L1I_demand_access 15810234
Core_0_L1I_demand_hit 11624707
Core_0_L1I_demand_miss 4185527
Core_0_L1I_demand_MPKI 41.8553
Core_0_L1I_demand_miss_rate 0.264735
Core_0_L1I_load_access 15810234
Core_0_L1I_load_hit 11624707
Core_0_L1I_load_miss 4185527
Core_0_L1I_load_MPKI 41.8553
Core_0_L1I_load_miss_rate 0.264735
Core_0_L1I_rfo_access 0
Core_0_L1I_rfo_hit 0
Core_0_L1I_rfo_miss 0
Core_0_L1I_rfo_MPKI 0
Core_0_L1I_rfo_miss_rate 0
Core_0_L1I_prefetch_access 0
Core_0_L1I_prefetch_hit 0
Core_0_L1I_prefetch_miss 0
Core_0_L1I_prefetch_MPKI 0
Core_0_L1I_prefetch_miss_rate 0
Core_0_L1I_writeback_access 0
Core_0_L1I_writeback_hit 0
Core_0_L1I_writeback_miss 0
Core_0_L1I_writeback_MPKI 0
Core_0_L1I_writeback_miss_rate 0
Core_0_L1I_prefetch_requested 0
Core_0_L1I_prefetch_issued 0
Core_0_L1I_prefetch_useful 0
Core_0_L1I_prefetch_useless 0
Core_0_L1I_prefetch_late 0
Core_0_L1I_prefetch_fill 0
Core_0_L1I_prefetch_too_early 0
Core_0_L1I_prefetch_too_early_among_fill 0
Core_0_L1I_prefetch_too_early_among_useless 0
Core_0_L1I_prefetch_pollution_evict 0
Core_0_L1I_prefetch_pollution_demand 0
Core_0_L1I_prefetch_pollution_among_prefetch_fill 0
Core_0_L1I_prefetch_accuracy 0
Core_0_L1I_prefetch_coverage 0

Core_0_L1D_total_access 22763815
Core_0_L1D_total_hit 20823633
Core_0_L1D_total_miss 1940182
Core_0_L1D_total_MPKI 19.4018
Core_0_L1D_total_miss_rate 0.085231
Core_0_L1D_demand_access 12834639
Core_0_L1D_demand_hit 11355490
Core_0_L1D_demand_miss 1479149
Core_0_L1D_demand_MPKI 14.7915
Core_0_L1D_demand_miss_rate 0.115247
Core_0_L1D_load_access 12834639
Core_0_L1D_load_hit 11355490
Core_0_L1D_load_miss 1479149
Core_0_L1D_load_MPKI 14.7915
Core_0_L1D_load_miss_rate 0.115247
Core_0_L1D_rfo_access 0
Core_0_L1D_rfo_hit 0
Core_0_L1D_rfo_miss 0
Core_0_L1D_rfo_MPKI 0
Core_0_L1D_rfo_miss_rate 0
Core_0_L1D_prefetch_access 0
Core_0_L1D_prefetch_hit 0
Core_0_L1D_prefetch_miss 0
Core_0_L1D_prefetch_MPKI 0
Core_0_L1D_prefetch_miss_rate 0
Core_0_L1D_writeback_access 9929176
Core_0_L1D_writeback_hit 9468143
Core_0_L1D_writeback_miss 461033
Core_0_L1D_writeback_MPKI 4.61033
Core_0_L1D_writeback_miss_rate 0.0464322
Core_0_L1D_prefetch_requested 0
Core_0_L1D_prefetch_issued 0
Core_0_L1D_prefetch_useful 0
Core_0_L1D_prefetch_useless 0
Core_0_L1D_prefetch_late 0
Core_0_L1D_prefetch_fill 0
Core_0_L1D_prefetch_too_early 0
Core_0_L1D_prefetch_too_early_among_fill 0
Core_0_L1D_prefetch_too_early_among_useless 0
Core_0_L1D_prefetch_pollution_evict 0
Core_0_L1D_prefetch_pollution_demand 0
Core_0_L1D_prefetch_pollution_among_prefetch_fill 0
Core_0_L1D_prefetch_accuracy 0
Core_0_L1D_prefetch_coverage 0

Core_0_L2C_total_access 4399181
Core_0_L2C_total_hit 2837454
Core_0_L2C_total_miss 1561727
Core_0_L2C_total_MPKI 15.6173
Core_0_L2C_total_miss_rate 0.355004
Core_0_L2C_demand_access 3839870
Core_0_L2C_demand_hit 2298801
Core_0_L2C_demand_miss 1541069
Core_0_L2C_demand_MPKI 15.4107
Core_0_L2C_demand_miss_rate 0.401334
Core_0_L2C_load_access 3671352
Core_0_L2C_load_hit 2215522
Core_0_L2C_load_miss 1455830
Core_0_L2C_load_MPKI 14.5583
Core_0_L2C_load_miss_rate 0.396538
Core_0_L2C_rfo_access 168518
Core_0_L2C_rfo_hit 83279
Core_0_L2C_rfo_miss 85239
Core_0_L2C_rfo_MPKI 0.85239
Core_0_L2C_rfo_miss_rate 0.505815
Core_0_L2C_prefetch_access 36380
Core_0_L2C_prefetch_hit 17983
Core_0_L2C_prefetch_miss 18397
Core_0_L2C_prefetch_MPKI 0.18397
Core_0_L2C_prefetch_miss_rate 0.50569
Core_0_L2C_writeback_access 522931
Core_0_L2C_writeback_hit 520670
Core_0_L2C_writeback_miss 2261
Core_0_L2C_writeback_MPKI 0.02261
Core_0_L2C_writeback_miss_rate 0.00432371
Core_0_L2C_prefetch_requested 36380
Core_0_L2C_prefetch_issued 36380
Core_0_L2C_prefetch_useful 10921
Core_0_L2C_prefetch_useless 6614
Core_0_L2C_prefetch_late 103
Core_0_L2C_prefetch_fill 17421
Core_0_L2C_prefetch_too_early 404
Core_0_L2C_prefetch_too_early_among_fill 0.0231904
Core_0_L2C_prefetch_too_early_among_useless 0.0610826
Core_0_L2C_prefetch_pollution_evict 15375
Core_0_L2C_prefetch_pollution_demand 15375
Core_0_L2C_prefetch_pollution_among_prefetch_fill 0.882556
Core_0_L2C_prefetch_accuracy 0.300192
Core_0_L2C_prefetch_coverage 0.00703677

Core_0_LLC_total_access 1829329
Core_0_LLC_total_hit 1668429
Core_0_LLC_total_miss 160900
Core_0_LLC_total_MPKI 1.609
Core_0_LLC_total_miss_rate 0.0879557
Core_0_LLC_demand_access 1540963
Core_0_LLC_demand_hit 1395259
Core_0_LLC_demand_miss 145704
Core_0_LLC_demand_MPKI 1.45704
Core_0_LLC_demand_miss_rate 0.0945539
Core_0_LLC_load_access 1455727
Core_0_LLC_load_hit 1332839
Core_0_LLC_load_miss 122888
Core_0_LLC_load_MPKI 1.22888
Core_0_LLC_load_miss_rate 0.0844169
Core_0_LLC_rfo_access 85236
Core_0_LLC_rfo_hit 62420
Core_0_LLC_rfo_miss 22816
Core_0_LLC_rfo_MPKI 0.22816
Core_0_LLC_rfo_miss_rate 0.26768
Core_0_LLC_prefetch_access 17524
Core_0_LLC_prefetch_hit 7204
Core_0_LLC_prefetch_miss 10320
Core_0_LLC_prefetch_MPKI 0.1032
Core_0_LLC_prefetch_miss_rate 0.588907
Core_0_LLC_writeback_access 270842
Core_0_LLC_writeback_hit 265966
Core_0_LLC_writeback_miss 4876
Core_0_LLC_writeback_MPKI 0.04876
Core_0_LLC_writeback_miss_rate 0.0180031
Core_0_LLC_prefetch_requested 0
Core_0_LLC_prefetch_issued 0
Core_0_LLC_prefetch_useful 0
Core_0_LLC_prefetch_useless 0
Core_0_LLC_prefetch_late 0
Core_0_LLC_prefetch_fill 10320
Core_0_LLC_prefetch_too_early 0
Core_0_LLC_prefetch_too_early_among_fill 0
Core_0_LLC_prefetch_too_early_among_useless 0
Core_0_LLC_prefetch_pollution_evict 7289
Core_0_LLC_prefetch_pollution_demand 7289
Core_0_LLC_prefetch_pollution_among_prefetch_fill 0.706298
Core_0_LLC_prefetch_accuracy 0
Core_0_LLC_prefetch_coverage 0

[DRAM Statistics]
Channel_0_RQ_row_buffer_hit 6496
Channel_0_RQ_row_buffer_miss 156218
Channel_0_WQ_row_buffer_hit 24824
Channel_0_WQ_row_buffer_miss 82835
Channel_0_WQ_full 0
Channel_0_dbus_congested 846540
DRAM_total_RQ_row_buffer_hit 6496
DRAM_total_RQ_row_buffer_miss 156218
DRAM_total_WQ_row_buffer_hit 24824
DRAM_total_WQ_row_buffer_miss 82835
DRAM_total_WQ_full 0
DRAM_total_dbus_congested 846540
DRAM_avg_congested_cycle 15.6573

====== DRAM_RQ_TRAFFIC ========
DRAM_RQ_READ_TRAFFIC_BREAKDOWN:
data_demand_read.count = 133912
data_demand_read.share = 82.30%

inst_demand_read.count = 11792
inst_demand_read.share = 7.25%

cache_inst_prefetch.count = 0
cache_inst_prefetch.share = 0.00%

cache_data_prefetch.count = 10320
cache_data_prefetch.share = 6.34%

stlb_data_demand.count = 6516
stlb_data_demand.share = 4.00%

stlb_inst_demand.count = 176
stlb_inst_demand.share = 0.11%

stlb_l1i_pref.count = 0
stlb_l1i_pref.share = 0.00%

stlb_l1d_pref.count = 0
stlb_l1d_pref.share = 0.00%

DRAM_RQ_READ_TRAFFIC_SUMMARY:
cache_demand.count = 145704
cache_demand.share = 89.54%

cache_prefetch.count = 10320
cache_prefetch.share = 6.34%

stlb_demand.count = 6692
stlb_demand.share = 4.11%

stlb_prefetch.count = 0
stlb_prefetch.share = 0.00%

DRAM_RQ_READ_TRAFFIC_DEBUG:
total_classified_read.count = 162716
unclassified_read.count = 0
total_read_with_other.count = 162716

classified_plus_unclassified_check.count = 162716
dram_rq_read_total_observed.count = 162716
dram_rq_read_total_observed.per_1K_instructions = 1.62716

STLB_MISS_PTW_DRAM_TOUCH_BREAKDOWN:
stlb_miss_total.count = 166926

stlb_miss_touch_dram.count = 6693
stlb_miss_touch_dram.share = 4.01%

stlb_miss_no_dram_touch.count = 160233
stlb_miss_no_dram_touch.share = 95.99%

STLB_MISS_PTW_DRAM_TOUCH_DEBUG:
stlb_miss_touch_plus_no_touch.count = 166926
stlb_miss_total_check.count = 166926

======STLB miss causes ========
Core_0_STLB_miss_cause_breakdown
Core_0_STLB_cause_Demand_Data_miss 109138
Core_0_STLB_cause_Demand_Data_miss_rate 0.066264
Core_0_STLB_cause_Demand_Instruction_miss 57788
Core_0_STLB_cause_Demand_Instruction_miss_rate 0.0350864
Core_0_STLB_cause_L1D_Prefetch_miss 0
Core_0_STLB_cause_L1D_Prefetch_miss_rate 0
Core_0_STLB_cause_L1D_Prefetch_Same_Page_miss 0
Core_0_STLB_cause_L1D_Prefetch_Same_Page_miss_rate 0
Core_0_STLB_cause_L1D_Prefetch_Cross_Page_miss 0
Core_0_STLB_cause_L1D_Prefetch_Cross_Page_miss_rate 0
Core_0_STLB_cause_L1I_Prefetch_miss 0
Core_0_STLB_cause_L1I_Prefetch_miss_rate 0
Core_0_STLB_cause_Other_miss 0
Core_0_STLB_cause_Other_miss_rate 0
Core_0_STLB_Demand_miss 166926
Core_0_STLB_Demand_miss_rate 0.10135
Core_0_STLB_L1D_Prefetch_miss 0
Core_0_STLB_L1D_Prefetch_miss_rate 0
Core_0_STLB_Other_miss 0
Core_0_STLB_Other_miss_rate 0

========== vBerti-TLB Cross-page Flow Stats ==========

Core_0_vBerti_Requested 0
Core_0_vBerti_Cross_page_prefetch_in_Requested 0
Core_0_vBerti_Same_page_prefetch_in_Requested 0
Core_0_vBerti_Cross_page_prefetch_of_Requested 0
Core_0_vBerti_Issued 0
Core_0_vBerti_PQ_Drop_Rate 0
Core_0_vBerti_InPQ_Cross_page_prefetch_of_Requested 0
Core_0_vBerti_Cross_page_PQ_Drop_rate 0
Core_0_vBerti_Cross_page_prefetch_of_Issued 0

========= DTLB_vBerti Prefetch Stats =========
Core_0_DTLB_demand_access 21415009
Core_0_DTLB_demand_hit 19694247
Core_0_DTLB_demand_miss 1720762
Core_0_DTLB_demand_mshr_merge 445516
Core_0_DTLB_demand_fill 1275246
Core_0_DTLB_demand_miss_rate 0.0803531
Core_0_DTLB_demand_mpki 17.2076
Core_0_DTLB_vberti_prefetch_access 0
Core_0_DTLB_vberti_prefetch_hit 0
Core_0_DTLB_vberti_prefetch_miss 0
Core_0_DTLB_vberti_prefetch_mshr_merge 0
Core_0_DTLB_vberti_prefetch_fill 0
Core_0_DTLB_vberti_prefetch_miss_rate 0
Core_0_DTLB_vberti_prefetch_mpki 0

=== DTLB_vBerti Same/Cross-page Prefetch Stats ===
Core_0_DTLB_vberti_same_page_prefetch 0
Core_0_DTLB_vberti_same_page_prefetch_hit 0
Core_0_DTLB_vberti_same_page_prefetch_miss 0
Core_0_DTLB_vberti_same_page_prefetch_mshr_merge 0
Core_0_DTLB_vberti_same_page_prefetch_fill 0
Core_0_DTLB_vberti_same_page_prefetch_miss_rate 0
Core_0_DTLB_vberti_same_page_prefetch_mpki 0
Core_0_DTLB_vberti_cross_page_prefetch 0
Core_0_DTLB_vberti_cross_page_prefetch_hit 0
Core_0_DTLB_vberti_cross_page_prefetch_miss 0
Core_0_DTLB_vberti_cross_page_prefetch_mshr_merge 0
Core_0_DTLB_vberti_cross_page_prefetch_fill 0
Core_0_DTLB_vberti_cross_page_prefetch_miss_rate 0
Core_0_DTLB_vberti_cross_page_prefetch_mpki 0
Core_0_DTLB_same_page_prefetch_miss_rate 0
Core_0_DTLB_same_page_prefetch_mpki 0
Core_0_DTLB_cross_page_prefetch_miss_rate 0
Core_0_DTLB_cross_page_prefetch_mpki 0
Core_0_DTLB_cross_page_prefetch_issued 0
Core_0_DTLB_cross_page_prefetch_lookups 0
Core_0_DTLB_cross_page_prefetch_useful 0
Core_0_DTLB_cross_page_prefetch_useless 0
Core_0_DTLB_cross_page_prefetch_late 0
Core_0_DTLB_cross_page_prefetch_too_early 0
Core_0_DTLB_cross_page_prefetch_too_early_among_fill 0
Core_0_DTLB_cross_page_prefetch_too_early_among_useless 0
Core_0_DTLB_cross_page_prefetch_pollution_evict 0
Core_0_DTLB_cross_page_prefetch_pollution_demand 0
Core_0_DTLB_cross_page_prefetch_pollution_among_prefetch_fill 0
Core_0_DTLB_cross_page_prefetch_accuracy 0
Core_0_DTLB_cross_page_prefetch_coverage 0

========= STLB_vBerti Prefetch Stats =========
Core_0_STLB_demand_access 1647018
Core_0_STLB_demand_hit 1480092
Core_0_STLB_demand_miss 166926
Core_0_STLB_demand_mshr_merge 0
Core_0_STLB_demand_fill 166926
Core_0_STLB_demand_miss_rate 0.10135
Core_0_STLB_demand_mpki 1.66926
Core_0_STLB_vberti_prefetch_access 0
Core_0_STLB_vberti_prefetch_hit 0
Core_0_STLB_vberti_prefetch_miss 0
Core_0_STLB_vberti_prefetch_mshr_merge 0
Core_0_STLB_vberti_prefetch_fill 0
Core_0_STLB_vberti_prefetch_miss_rate 0
Core_0_STLB_vberti_prefetch_mpki 0

=== STLB_vBerti Same/Cross-page Prefetch Stats ===
Core_0_STLB_vberti_same_page_prefetch 0
Core_0_STLB_vberti_same_page_prefetch_hit 0
Core_0_STLB_vberti_same_page_prefetch_miss 0
Core_0_STLB_vberti_same_page_prefetch_mshr_merge 0
Core_0_STLB_vberti_same_page_prefetch_fill 0
Core_0_STLB_vberti_same_page_prefetch_miss_rate 0
Core_0_STLB_vberti_same_page_prefetch_mpki 0
Core_0_STLB_vberti_cross_page_prefetch 0
Core_0_STLB_vberti_cross_page_prefetch_hit 0
Core_0_STLB_vberti_cross_page_prefetch_miss 0
Core_0_STLB_vberti_cross_page_prefetch_mshr_merge 0
Core_0_STLB_vberti_cross_page_prefetch_fill 0
Core_0_STLB_vberti_cross_page_prefetch_miss_rate 0
Core_0_STLB_vberti_cross_page_prefetch_mpki 0
Core_0_STLB_same_page_prefetch_miss_rate 0
Core_0_STLB_same_page_prefetch_mpki 0
Core_0_STLB_cross_page_prefetch_miss_rate 0
Core_0_STLB_cross_page_prefetch_mpki 0
Core_0_STLB_cross_page_prefetch_issued 0
Core_0_STLB_cross_page_prefetch_lookups 0
Core_0_STLB_cross_page_prefetch_useful 0
Core_0_STLB_cross_page_prefetch_useless 0
Core_0_STLB_cross_page_prefetch_late 0
Core_0_STLB_cross_page_prefetch_too_early 0
Core_0_STLB_cross_page_prefetch_too_early_among_fill 0
Core_0_STLB_cross_page_prefetch_too_early_among_useless 0
Core_0_STLB_cross_page_prefetch_pollution_evict 0
Core_0_STLB_cross_page_prefetch_pollution_demand 0
Core_0_STLB_cross_page_prefetch_pollution_among_prefetch_fill 0
Core_0_STLB_cross_page_prefetch_accuracy 0
Core_0_STLB_cross_page_prefetch_coverage 0

========= STLB Cross-page Prefetch Buffer Stats =========
Core_0_STLB_raw_demand_miss 109138
Core_0_CP_PB_insert 0
Core_0_CP_PB_demand_hit 0
Core_0_STLB_PB_demand_miss 109138
Core_0_CP_PB_coverage 0
Core_0_STLB_raw_demand_mpki 1.09138
Core_0_STLB_PB_demand_mpki 1.09138
Core_0_CP_PB_demand_hit_mpki 0

Core_0_TLB_demand_miss_rate 0.00779481
Core_0_TLB_demand_mpki 1.66926
Core_0_TLB_same_page_prefetch_miss_rate 0
Core_0_TLB_same_page_prefetch_mpki 0
Core_0_TLB_cross_page_prefetch_miss_rate 0
Core_0_TLB_cross_page_prefetch_mpki 0
Core_0_TLB_cross_page_prefetch_issued 0
Core_0_TLB_cross_page_prefetch_lookups 0
Core_0_TLB_cross_page_prefetch_useful 0
Core_0_TLB_cross_page_prefetch_useless 0
Core_0_TLB_cross_page_prefetch_late 0
Core_0_TLB_cross_page_prefetch_too_early 0
Core_0_TLB_cross_page_prefetch_too_early_among_fill 0
Core_0_TLB_cross_page_prefetch_too_early_among_useless 0
Core_0_TLB_cross_page_prefetch_accuracy 0
Core_0_TLB_cross_page_prefetch_coverage 0
