[VMEM] WARNING: physical memory size is smaller than virtual memory size.

*** ChampSim Multicore Out-of-Order Simulator ***
Warmup Instructions: 50000000
Simulation Instructions: 100000000
Number of CPUs: 1
Page size: 4096
Core 0: /data0/tzh/champsim_traces/QMM/srv_61_new.xz
Off-chip DRAM Size: 16 GiB Channels: 1 Width: 64-bit Data Rate: 3205 MT/s
[BTB] WARNING: target of return is a lower address than the corresponding call. This is usually a problem with your trace.
[BTB] WARNING: target of return is a lower address than the corresponding call. This is usually a problem with your trace.
[BTB] WARNING: target of return is a lower address than the corresponding call. This is usually a problem with your trace.
[BTB] WARNING: target of return is a lower address than the corresponding call. This is usually a problem with your trace.
[BTB] WARNING: target of return is a lower address than the corresponding call. This is usually a problem with your trace.
[BTB] WARNING: target of return is a lower address than the corresponding call. This is usually a problem with your trace.
[BTB] WARNING: target of return is a lower address than the corresponding call. This is usually a problem with your trace.
[BTB] WARNING: target of return is a lower address than the corresponding call. This is usually a problem with your trace.
[BTB] WARNING: target of return is a lower address than the corresponding call. This is usually a problem with your trace.
[BTB] WARNING: target of return is a lower address than the corresponding call. This is usually a problem with your trace.
*** Reached end of trace: (0, "/data0/tzh/champsim_traces/QMM/srv_61_new.xz")
Warmup halting CPU 0 at instruction 50000001 cycle 10839983 for remainder of phase
Warmup finished CPU 0 instructions: 50000001 cycles: 10839983 cumulative IPC: 4.613 (Simulation time: 00 hr 02 min 34 sec)
Warmup complete CPU 0 instructions: 50000001 cycles: 10839983 cumulative IPC: 4.613 (Simulation time: 00 hr 02 min 34 sec)
*** Reached end of trace: (0, "/data0/tzh/champsim_traces/QMM/srv_61_new.xz")
*** Reached end of trace: (0, "/data0/tzh/champsim_traces/QMM/srv_61_new.xz")
*** Reached end of trace: (0, "/data0/tzh/champsim_traces/QMM/srv_61_new.xz")
Simulation finished CPU 0 instructions: 100000003 cycles: 62063480 cumulative IPC: 1.611 (Simulation time: 00 hr 11 min 16 sec)
Simulation complete CPU 0 instructions: 100000003 cycles: 62063480 cumulative IPC: 1.611 (Simulation time: 00 hr 11 min 16 sec)

ChampSim completed all CPUs

=== Simulation ===
CPU 0 runs /data0/tzh/champsim_traces/QMM/srv_61_new.xz

Region of Interest Statistics

CPU 0 cumulative IPC: 1.611 instructions: 100000003 cycles: 62063480
CPU 0 Branch Prediction Accuracy: 97.36% MPKI: 4.77 Average ROB Occupancy at Mispredict: 93.87
Branch type MPKI
BRANCH_DIRECT_JUMP: 0.4208
BRANCH_INDIRECT: 0.353
BRANCH_CONDITIONAL: 2.481
BRANCH_DIRECT_CALL: 0.7435
BRANCH_INDIRECT_CALL: 0.1828
BRANCH_RETURN: 0.589

cpu0->cpu0_STLB TOTAL        ACCESS:    1621477 HIT:    1392578 MISS:     228899 MSHR_MERGE:          0
cpu0->cpu0_STLB LOAD         ACCESS:    1621477 HIT:    1392578 MISS:     228899 MSHR_MERGE:          0
cpu0->cpu0_STLB RFO          ACCESS:          0 HIT:          0 MISS:          0 MSHR_MERGE:          0
cpu0->cpu0_STLB PREFETCH     ACCESS:          0 HIT:          0 MISS:          0 MSHR_MERGE:          0
cpu0->cpu0_STLB WRITE        ACCESS:          0 HIT:          0 MISS:          0 MSHR_MERGE:          0
cpu0->cpu0_STLB TRANSLATION  ACCESS:          0 HIT:          0 MISS:          0 MSHR_MERGE:          0
cpu0->cpu0_STLB PREFETCH REQUESTED:          0 ISSUED:          0 USEFUL:          0 USELESS:          0 LATE:          0 TOO_EARLY:          0
cpu0->cpu0_STLB AVERAGE MISS LATENCY: 29.29 cycles
cpu0->cpu0_L2C TOTAL        ACCESS:    4665611 HIT:    2561412 MISS:    2104199 MSHR_MERGE:       6434
cpu0->cpu0_L2C LOAD         ACCESS:    3723884 HIT:    1873648 MISS:    1850236 MSHR_MERGE:       1029
cpu0->cpu0_L2C RFO          ACCESS:     176855 HIT:      74820 MISS:     102035 MSHR_MERGE:          0
cpu0->cpu0_L2C PREFETCH     ACCESS:      54957 HIT:      29348 MISS:      25609 MSHR_MERGE:       5405
cpu0->cpu0_L2C WRITE        ACCESS:     517240 HIT:     513946 MISS:       3294 MSHR_MERGE:          0
cpu0->cpu0_L2C TRANSLATION  ACCESS:     192675 HIT:      69650 MISS:     123025 MSHR_MERGE:          0
cpu0->cpu0_L2C PREFETCH REQUESTED:      63150 ISSUED:      54957 USEFUL:      10718 USELESS:       9463 LATE:       1029 TOO_EARLY:        563
cpu0->cpu0_L2C AVERAGE MISS LATENCY: 26.53 cycles
cpu0->cpu0_L1I TOTAL        ACCESS:   15327813 HIT:   11207180 MISS:    4120633 MSHR_MERGE:    1519712
cpu0->cpu0_L1I LOAD         ACCESS:   15327813 HIT:   11207180 MISS:    4120633 MSHR_MERGE:    1519712
cpu0->cpu0_L1I RFO          ACCESS:          0 HIT:          0 MISS:          0 MSHR_MERGE:          0
cpu0->cpu0_L1I PREFETCH     ACCESS:          0 HIT:          0 MISS:          0 MSHR_MERGE:          0
cpu0->cpu0_L1I WRITE        ACCESS:          0 HIT:          0 MISS:          0 MSHR_MERGE:          0
cpu0->cpu0_L1I TRANSLATION  ACCESS:          0 HIT:          0 MISS:          0 MSHR_MERGE:          0
cpu0->cpu0_L1I PREFETCH REQUESTED:          0 ISSUED:          0 USEFUL:          0 USELESS:          0 LATE:          0 TOO_EARLY:          0
cpu0->cpu0_L1I AVERAGE MISS LATENCY: 15.26 cycles
cpu0->cpu0_L1D TOTAL        ACCESS:   23761827 HIT:   21568225 MISS:    2193602 MSHR_MERGE:     701090
cpu0->cpu0_L1D LOAD         ACCESS:   13289494 HIT:   11779319 MISS:    1510175 MSHR_MERGE:     387205
cpu0->cpu0_L1D RFO          ACCESS:          0 HIT:          0 MISS:          0 MSHR_MERGE:          0
cpu0->cpu0_L1D PREFETCH     ACCESS:          0 HIT:          0 MISS:          0 MSHR_MERGE:          0
cpu0->cpu0_L1D WRITE        ACCESS:    9965325 HIT:    9478255 MISS:     487070 MSHR_MERGE:     310203
cpu0->cpu0_L1D TRANSLATION  ACCESS:     507008 HIT:     310651 MISS:     196357 MSHR_MERGE:       3682
cpu0->cpu0_L1D PREFETCH REQUESTED:          0 ISSUED:          0 USEFUL:          0 USELESS:          0 LATE:          0 TOO_EARLY:          0
cpu0->cpu0_L1D AVERAGE MISS LATENCY: 32.55 cycles
cpu0->cpu0_ITLB TOTAL        ACCESS:   13000492 HIT:   11987685 MISS:    1012807 MSHR_MERGE:     623508
cpu0->cpu0_ITLB LOAD         ACCESS:   13000492 HIT:   11987685 MISS:    1012807 MSHR_MERGE:     623508
cpu0->cpu0_ITLB RFO          ACCESS:          0 HIT:          0 MISS:          0 MSHR_MERGE:          0
cpu0->cpu0_ITLB PREFETCH     ACCESS:          0 HIT:          0 MISS:          0 MSHR_MERGE:          0
cpu0->cpu0_ITLB WRITE        ACCESS:          0 HIT:          0 MISS:          0 MSHR_MERGE:          0
cpu0->cpu0_ITLB TRANSLATION  ACCESS:          0 HIT:          0 MISS:          0 MSHR_MERGE:          0
cpu0->cpu0_ITLB PREFETCH REQUESTED:          0 ISSUED:          0 USEFUL:          0 USELESS:          0 LATE:          0 TOO_EARLY:          0
cpu0->cpu0_ITLB AVERAGE MISS LATENCY: 10.59 cycles
cpu0->cpu0_DTLB TOTAL        ACCESS:   21933380 HIT:   20258750 MISS:    1674630 MSHR_MERGE:     442452
cpu0->cpu0_DTLB LOAD         ACCESS:   21933380 HIT:   20258750 MISS:    1674630 MSHR_MERGE:     442452
cpu0->cpu0_DTLB RFO          ACCESS:          0 HIT:          0 MISS:          0 MSHR_MERGE:          0
cpu0->cpu0_DTLB PREFETCH     ACCESS:          0 HIT:          0 MISS:          0 MSHR_MERGE:          0
cpu0->cpu0_DTLB WRITE        ACCESS:          0 HIT:          0 MISS:          0 MSHR_MERGE:          0
cpu0->cpu0_DTLB TRANSLATION  ACCESS:          0 HIT:          0 MISS:          0 MSHR_MERGE:          0
cpu0->cpu0_DTLB PREFETCH REQUESTED:          0 ISSUED:          0 USEFUL:          0 USELESS:          0 LATE:          0 TOO_EARLY:          0
cpu0->cpu0_DTLB AVERAGE MISS LATENCY: 8.873 cycles
cpu0->LLC TOTAL        ACCESS:    2399106 HIT:    2258717 MISS:     140389 MSHR_MERGE:          0
cpu0->LLC LOAD         ACCESS:    1849207 HIT:    1743060 MISS:     106147 MSHR_MERGE:          0
cpu0->LLC RFO          ACCESS:     102035 HIT:      80669 MISS:      21366 MSHR_MERGE:          0
cpu0->LLC PREFETCH     ACCESS:      20204 HIT:      13622 MISS:       6582 MSHR_MERGE:          0
cpu0->LLC WRITE        ACCESS:     304635 HIT:     300578 MISS:       4057 MSHR_MERGE:          0
cpu0->LLC TRANSLATION  ACCESS:     123025 HIT:     120788 MISS:       2237 MSHR_MERGE:          0
cpu0->LLC PREFETCH REQUESTED:          0 ISSUED:          0 USEFUL:          0 USELESS:          0 LATE:          0 TOO_EARLY:          0
cpu0->LLC AVERAGE MISS LATENCY: 178.5 cycles

DRAM Statistics

Channel 0 RQ ROW_BUFFER_HIT:       3541
  ROW_BUFFER_MISS:     132786
  AVG DBUS CONGESTED CYCLE: 16.03
Channel 0 WQ ROW_BUFFER_HIT:      20708
  ROW_BUFFER_MISS:      83762
  FULL:          0
Channel 0 REFRESHES ISSUED:       5172

[ROI Statistics]
[System Configuration]
num_cpus 1
cpu_freq 4000
fetch_width 6
decode_width 6
dispatch_width 6
execute_width 6
lq_width 2
sq_width 2
retire_width 6
scheduler_size 128
branch_mispredict_penalty 15
rob_size 352
lq_size 128
sq_size 72
ifetch_buffer_size 64
decode_buffer_size 32
dispatch_buffer_size 32
register_file_size 288
decode_latency 1
dispatch_latency 1
schedule_latency 1
execute_latency 1
page_size 4096
block_size 64
core_0_itlb_set 16
core_0_itlb_way 4
core_0_itlb_rq_size 16
core_0_itlb_wq_size 16
core_0_itlb_pq_size 0
core_0_itlb_mshr_size 8
core_0_itlb_hit_latency 1
core_0_itlb_fill_latency 1
core_0_itlb_max_tag_check 2
core_0_itlb_max_fill 2
core_0_dtlb_set 16
core_0_dtlb_way 4
core_0_dtlb_rq_size 16
core_0_dtlb_wq_size 16
core_0_dtlb_pq_size 0
core_0_dtlb_mshr_size 8
core_0_dtlb_hit_latency 1
core_0_dtlb_fill_latency 1
core_0_dtlb_max_tag_check 2
core_0_dtlb_max_fill 2
core_0_stlb_set 128
core_0_stlb_way 12
core_0_stlb_rq_size 32
core_0_stlb_wq_size 32
core_0_stlb_pq_size 0
core_0_stlb_mshr_size 16
core_0_stlb_hit_latency 4
core_0_stlb_fill_latency 4
core_0_stlb_max_tag_check 1
core_0_stlb_max_fill 1
core_0_l1i_set 64
core_0_l1i_way 8
core_0_l1i_rq_size 64
core_0_l1i_wq_size 64
core_0_l1i_pq_size 32
core_0_l1i_mshr_size 8
core_0_l1i_hit_latency 2
core_0_l1i_fill_latency 2
core_0_l1i_max_tag_check 2
core_0_l1i_max_fill 2
core_0_l1d_set 64
core_0_l1d_way 12
core_0_l1d_rq_size 64
core_0_l1d_wq_size 64
core_0_l1d_pq_size 8
core_0_l1d_mshr_size 16
core_0_l1d_hit_latency 2
core_0_l1d_fill_latency 3
core_0_l1d_max_tag_check 2
core_0_l1d_max_fill 2
core_0_l2c_set 1024
core_0_l2c_way 8
core_0_l2c_rq_size 32
core_0_l2c_wq_size 32
core_0_l2c_pq_size 16
core_0_l2c_mshr_size 32
core_0_l2c_hit_latency 5
core_0_l2c_fill_latency 5
core_0_l2c_max_tag_check 1
core_0_l2c_max_fill 1
llc_set 2048
llc_way 16
llc_rq_size 32
llc_wq_size 32
llc_pq_size 32
llc_mshr_size 64
llc_hit_latency 10
llc_fill_latency 10
llc_max_tag_check 1
llc_max_fill 1
dram_channels 1
dram_ranks 1
dram_bankgroups 8
dram_banks 4
dram_rows 65536
dram_columns 1024
dram_channel_width 8
dram_rq_size 64
dram_wq_size 64
dram_size 17179869184
core_0_itlb_prefetcher no
core_0_dtlb_prefetcher no
core_0_stlb_prefetcher no
core_0_l1i_prefetcher next_line
core_0_l1d_prefetcher no
core_0_l2c_prefetcher ip_stride
llc_prefetcher no
llc_replacement drrip

Core_0_instructions 100000003
Core_0_cycles 62063480
Core_0_IPC 1.61125
Core_0_branch_prediction_accuracy 97.3641
Core_0_branch_MPKI 4.77009
Core_0_average_ROB_occupancy_at_mispredict 93.8692

Core_0_ITLB_total_access 13000492
Core_0_ITLB_total_hit 11987685
Core_0_ITLB_total_miss 1012807
Core_0_ITLB_total_MPKI 10.1281
Core_0_ITLB_total_miss_rate 0.0779053
Core_0_ITLB_demand_access 13000492
Core_0_ITLB_demand_hit 11987685
Core_0_ITLB_demand_miss 1012807
Core_0_ITLB_demand_MPKI 10.1281
Core_0_ITLB_demand_miss_rate 0.0779053
Core_0_ITLB_load_access 13000492
Core_0_ITLB_load_hit 11987685
Core_0_ITLB_load_miss 1012807
Core_0_ITLB_load_MPKI 10.1281
Core_0_ITLB_load_miss_rate 0.0779053
Core_0_ITLB_rfo_access 0
Core_0_ITLB_rfo_hit 0
Core_0_ITLB_rfo_miss 0
Core_0_ITLB_rfo_MPKI 0
Core_0_ITLB_rfo_miss_rate 0
Core_0_ITLB_prefetch_access 0
Core_0_ITLB_prefetch_hit 0
Core_0_ITLB_prefetch_miss 0
Core_0_ITLB_prefetch_MPKI 0
Core_0_ITLB_prefetch_miss_rate 0
Core_0_ITLB_writeback_access 0
Core_0_ITLB_writeback_hit 0
Core_0_ITLB_writeback_miss 0
Core_0_ITLB_writeback_MPKI 0
Core_0_ITLB_writeback_miss_rate 0
Core_0_ITLB_prefetch_requested 0
Core_0_ITLB_prefetch_issued 0
Core_0_ITLB_prefetch_useful 0
Core_0_ITLB_prefetch_useless 0
Core_0_ITLB_prefetch_late 0
Core_0_ITLB_prefetch_fill 0
Core_0_ITLB_prefetch_too_early 0
Core_0_ITLB_prefetch_too_early_among_fill 0
Core_0_ITLB_prefetch_too_early_among_useless 0
Core_0_ITLB_prefetch_pollution_evict 0
Core_0_ITLB_prefetch_pollution_demand 0
Core_0_ITLB_prefetch_pollution_among_prefetch_fill 0
Core_0_ITLB_prefetch_accuracy 0
Core_0_ITLB_prefetch_coverage 0

Core_0_DTLB_total_access 21933380
Core_0_DTLB_total_hit 20258750
Core_0_DTLB_total_miss 1674630
Core_0_DTLB_total_MPKI 16.7463
Core_0_DTLB_total_miss_rate 0.0763507
Core_0_DTLB_demand_access 21933380
Core_0_DTLB_demand_hit 20258750
Core_0_DTLB_demand_miss 1674630
Core_0_DTLB_demand_MPKI 16.7463
Core_0_DTLB_demand_miss_rate 0.0763507
Core_0_DTLB_load_access 21933380
Core_0_DTLB_load_hit 20258750
Core_0_DTLB_load_miss 1674630
Core_0_DTLB_load_MPKI 16.7463
Core_0_DTLB_load_miss_rate 0.0763507
Core_0_DTLB_rfo_access 0
Core_0_DTLB_rfo_hit 0
Core_0_DTLB_rfo_miss 0
Core_0_DTLB_rfo_MPKI 0
Core_0_DTLB_rfo_miss_rate 0
Core_0_DTLB_prefetch_access 0
Core_0_DTLB_prefetch_hit 0
Core_0_DTLB_prefetch_miss 0
Core_0_DTLB_prefetch_MPKI 0
Core_0_DTLB_prefetch_miss_rate 0
Core_0_DTLB_writeback_access 0
Core_0_DTLB_writeback_hit 0
Core_0_DTLB_writeback_miss 0
Core_0_DTLB_writeback_MPKI 0
Core_0_DTLB_writeback_miss_rate 0
Core_0_DTLB_prefetch_requested 0
Core_0_DTLB_prefetch_issued 0
Core_0_DTLB_prefetch_useful 0
Core_0_DTLB_prefetch_useless 0
Core_0_DTLB_prefetch_late 0
Core_0_DTLB_prefetch_fill 0
Core_0_DTLB_prefetch_too_early 0
Core_0_DTLB_prefetch_too_early_among_fill 0
Core_0_DTLB_prefetch_too_early_among_useless 0
Core_0_DTLB_prefetch_pollution_evict 0
Core_0_DTLB_prefetch_pollution_demand 0
Core_0_DTLB_prefetch_pollution_among_prefetch_fill 0
Core_0_DTLB_prefetch_accuracy 0
Core_0_DTLB_prefetch_coverage 0

Core_0_STLB_total_access 1621477
Core_0_STLB_total_hit 1392578
Core_0_STLB_total_miss 228899
Core_0_STLB_total_MPKI 2.28899
Core_0_STLB_total_miss_rate 0.141167
Core_0_STLB_demand_access 1621477
Core_0_STLB_demand_hit 1392578
Core_0_STLB_demand_miss 228899
Core_0_STLB_demand_MPKI 2.28899
Core_0_STLB_demand_miss_rate 0.141167
Core_0_STLB_load_access 1621477
Core_0_STLB_load_hit 1392578
Core_0_STLB_load_miss 228899
Core_0_STLB_load_MPKI 2.28899
Core_0_STLB_load_miss_rate 0.141167
Core_0_STLB_rfo_access 0
Core_0_STLB_rfo_hit 0
Core_0_STLB_rfo_miss 0
Core_0_STLB_rfo_MPKI 0
Core_0_STLB_rfo_miss_rate 0
Core_0_STLB_prefetch_access 0
Core_0_STLB_prefetch_hit 0
Core_0_STLB_prefetch_miss 0
Core_0_STLB_prefetch_MPKI 0
Core_0_STLB_prefetch_miss_rate 0
Core_0_STLB_writeback_access 0
Core_0_STLB_writeback_hit 0
Core_0_STLB_writeback_miss 0
Core_0_STLB_writeback_MPKI 0
Core_0_STLB_writeback_miss_rate 0
Core_0_STLB_prefetch_requested 0
Core_0_STLB_prefetch_issued 0
Core_0_STLB_prefetch_useful 0
Core_0_STLB_prefetch_useless 0
Core_0_STLB_prefetch_late 0
Core_0_STLB_prefetch_fill 0
Core_0_STLB_prefetch_too_early 0
Core_0_STLB_prefetch_too_early_among_fill 0
Core_0_STLB_prefetch_too_early_among_useless 0
Core_0_STLB_prefetch_pollution_evict 0
Core_0_STLB_prefetch_pollution_demand 0
Core_0_STLB_prefetch_pollution_among_prefetch_fill 0
Core_0_STLB_prefetch_accuracy 0
Core_0_STLB_prefetch_coverage 0

Core_0_L1I_total_access 15327813
Core_0_L1I_total_hit 11207180
Core_0_L1I_total_miss 4120633
Core_0_L1I_total_MPKI 41.2063
Core_0_L1I_total_miss_rate 0.268834
Core_0_L1I_demand_access 15327813
Core_0_L1I_demand_hit 11207180
Core_0_L1I_demand_miss 4120633
Core_0_L1I_demand_MPKI 41.2063
Core_0_L1I_demand_miss_rate 0.268834
Core_0_L1I_load_access 15327813
Core_0_L1I_load_hit 11207180
Core_0_L1I_load_miss 4120633
Core_0_L1I_load_MPKI 41.2063
Core_0_L1I_load_miss_rate 0.268834
Core_0_L1I_rfo_access 0
Core_0_L1I_rfo_hit 0
Core_0_L1I_rfo_miss 0
Core_0_L1I_rfo_MPKI 0
Core_0_L1I_rfo_miss_rate 0
Core_0_L1I_prefetch_access 0
Core_0_L1I_prefetch_hit 0
Core_0_L1I_prefetch_miss 0
Core_0_L1I_prefetch_MPKI 0
Core_0_L1I_prefetch_miss_rate 0
Core_0_L1I_writeback_access 0
Core_0_L1I_writeback_hit 0
Core_0_L1I_writeback_miss 0
Core_0_L1I_writeback_MPKI 0
Core_0_L1I_writeback_miss_rate 0
Core_0_L1I_prefetch_requested 0
Core_0_L1I_prefetch_issued 0
Core_0_L1I_prefetch_useful 0
Core_0_L1I_prefetch_useless 0
Core_0_L1I_prefetch_late 0
Core_0_L1I_prefetch_fill 0
Core_0_L1I_prefetch_too_early 0
Core_0_L1I_prefetch_too_early_among_fill 0
Core_0_L1I_prefetch_too_early_among_useless 0
Core_0_L1I_prefetch_pollution_evict 0
Core_0_L1I_prefetch_pollution_demand 0
Core_0_L1I_prefetch_pollution_among_prefetch_fill 0
Core_0_L1I_prefetch_accuracy 0
Core_0_L1I_prefetch_coverage 0

Core_0_L1D_total_access 23254819
Core_0_L1D_total_hit 21257574
Core_0_L1D_total_miss 1997245
Core_0_L1D_total_MPKI 19.9724
Core_0_L1D_total_miss_rate 0.0858852
Core_0_L1D_demand_access 13289494
Core_0_L1D_demand_hit 11779319
Core_0_L1D_demand_miss 1510175
Core_0_L1D_demand_MPKI 15.1017
Core_0_L1D_demand_miss_rate 0.113637
Core_0_L1D_load_access 13289494
Core_0_L1D_load_hit 11779319
Core_0_L1D_load_miss 1510175
Core_0_L1D_load_MPKI 15.1017
Core_0_L1D_load_miss_rate 0.113637
Core_0_L1D_rfo_access 0
Core_0_L1D_rfo_hit 0
Core_0_L1D_rfo_miss 0
Core_0_L1D_rfo_MPKI 0
Core_0_L1D_rfo_miss_rate 0
Core_0_L1D_prefetch_access 0
Core_0_L1D_prefetch_hit 0
Core_0_L1D_prefetch_miss 0
Core_0_L1D_prefetch_MPKI 0
Core_0_L1D_prefetch_miss_rate 0
Core_0_L1D_writeback_access 9965325
Core_0_L1D_writeback_hit 9478255
Core_0_L1D_writeback_miss 487070
Core_0_L1D_writeback_MPKI 4.8707
Core_0_L1D_writeback_miss_rate 0.0488765
Core_0_L1D_prefetch_requested 0
Core_0_L1D_prefetch_issued 0
Core_0_L1D_prefetch_useful 0
Core_0_L1D_prefetch_useless 0
Core_0_L1D_prefetch_late 0
Core_0_L1D_prefetch_fill 0
Core_0_L1D_prefetch_too_early 0
Core_0_L1D_prefetch_too_early_among_fill 0
Core_0_L1D_prefetch_too_early_among_useless 0
Core_0_L1D_prefetch_pollution_evict 0
Core_0_L1D_prefetch_pollution_demand 0
Core_0_L1D_prefetch_pollution_among_prefetch_fill 0
Core_0_L1D_prefetch_accuracy 0
Core_0_L1D_prefetch_coverage 0

Core_0_L2C_total_access 4472936
Core_0_L2C_total_hit 2491762
Core_0_L2C_total_miss 1981174
Core_0_L2C_total_MPKI 19.8117
Core_0_L2C_total_miss_rate 0.442925
Core_0_L2C_demand_access 3900739
Core_0_L2C_demand_hit 1948468
Core_0_L2C_demand_miss 1952271
Core_0_L2C_demand_MPKI 19.5227
Core_0_L2C_demand_miss_rate 0.500487
Core_0_L2C_load_access 3723884
Core_0_L2C_load_hit 1873648
Core_0_L2C_load_miss 1850236
Core_0_L2C_load_MPKI 18.5024
Core_0_L2C_load_miss_rate 0.496857
Core_0_L2C_rfo_access 176855
Core_0_L2C_rfo_hit 74820
Core_0_L2C_rfo_miss 102035
Core_0_L2C_rfo_MPKI 1.02035
Core_0_L2C_rfo_miss_rate 0.576942
Core_0_L2C_prefetch_access 54957
Core_0_L2C_prefetch_hit 29348
Core_0_L2C_prefetch_miss 25609
Core_0_L2C_prefetch_MPKI 0.25609
Core_0_L2C_prefetch_miss_rate 0.465982
Core_0_L2C_writeback_access 517240
Core_0_L2C_writeback_hit 513946
Core_0_L2C_writeback_miss 3294
Core_0_L2C_writeback_MPKI 0.03294
Core_0_L2C_writeback_miss_rate 0.00636842
Core_0_L2C_prefetch_requested 63150
Core_0_L2C_prefetch_issued 54957
Core_0_L2C_prefetch_useful 10718
Core_0_L2C_prefetch_useless 9463
Core_0_L2C_prefetch_late 1029
Core_0_L2C_prefetch_fill 19175
Core_0_L2C_prefetch_too_early 563
Core_0_L2C_prefetch_too_early_among_fill 0.0293611
Core_0_L2C_prefetch_too_early_among_useless 0.0594949
Core_0_L2C_prefetch_pollution_evict 17376
Core_0_L2C_prefetch_pollution_demand 17372
Core_0_L2C_prefetch_pollution_among_prefetch_fill 0.90618
Core_0_L2C_prefetch_accuracy 0.195025
Core_0_L2C_prefetch_coverage 0.00546004

Core_0_LLC_total_access 2276081
Core_0_LLC_total_hit 2137929
Core_0_LLC_total_miss 138152
Core_0_LLC_total_MPKI 1.38152
Core_0_LLC_total_miss_rate 0.0606973
Core_0_LLC_demand_access 1951242
Core_0_LLC_demand_hit 1823729
Core_0_LLC_demand_miss 127513
Core_0_LLC_demand_MPKI 1.27513
Core_0_LLC_demand_miss_rate 0.0653497
Core_0_LLC_load_access 1849207
Core_0_LLC_load_hit 1743060
Core_0_LLC_load_miss 106147
Core_0_LLC_load_MPKI 1.06147
Core_0_LLC_load_miss_rate 0.0574014
Core_0_LLC_rfo_access 102035
Core_0_LLC_rfo_hit 80669
Core_0_LLC_rfo_miss 21366
Core_0_LLC_rfo_MPKI 0.21366
Core_0_LLC_rfo_miss_rate 0.209399
Core_0_LLC_prefetch_access 20204
Core_0_LLC_prefetch_hit 13622
Core_0_LLC_prefetch_miss 6582
Core_0_LLC_prefetch_MPKI 0.06582
Core_0_LLC_prefetch_miss_rate 0.325777
Core_0_LLC_writeback_access 304635
Core_0_LLC_writeback_hit 300578
Core_0_LLC_writeback_miss 4057
Core_0_LLC_writeback_MPKI 0.04057
Core_0_LLC_writeback_miss_rate 0.0133176
Core_0_LLC_prefetch_requested 0
Core_0_LLC_prefetch_issued 0
Core_0_LLC_prefetch_useful 0
Core_0_LLC_prefetch_useless 0
Core_0_LLC_prefetch_late 0
Core_0_LLC_prefetch_fill 6582
Core_0_LLC_prefetch_too_early 0
Core_0_LLC_prefetch_too_early_among_fill 0
Core_0_LLC_prefetch_too_early_among_useless 0
Core_0_LLC_prefetch_pollution_evict 4892
Core_0_LLC_prefetch_pollution_demand 4892
Core_0_LLC_prefetch_pollution_among_prefetch_fill 0.743239
Core_0_LLC_prefetch_accuracy 0
Core_0_LLC_prefetch_coverage 0

[DRAM Statistics]
Channel_0_RQ_row_buffer_hit 3541
Channel_0_RQ_row_buffer_miss 132786
Channel_0_WQ_row_buffer_hit 20708
Channel_0_WQ_row_buffer_miss 83762
Channel_0_WQ_full 0
Channel_0_dbus_congested 718048
DRAM_total_RQ_row_buffer_hit 3541
DRAM_total_RQ_row_buffer_miss 132786
DRAM_total_WQ_row_buffer_hit 20708
DRAM_total_WQ_row_buffer_miss 83762
DRAM_total_WQ_full 0
DRAM_total_dbus_congested 718048
DRAM_avg_congested_cycle 16.0288

====== DRAM_RQ_TRAFFIC ========
DRAM_RQ_READ_TRAFFIC_BREAKDOWN:
data_demand_read.count = 120313
data_demand_read.share = 88.25%

inst_demand_read.count = 7200
inst_demand_read.share = 5.28%

cache_inst_prefetch.count = 0
cache_inst_prefetch.share = 0.00%

cache_data_prefetch.count = 6582
cache_data_prefetch.share = 4.83%

stlb_data_demand.count = 2048
stlb_data_demand.share = 1.50%

stlb_inst_demand.count = 189
stlb_inst_demand.share = 0.14%

stlb_l1i_pref.count = 0
stlb_l1i_pref.share = 0.00%

stlb_l1d_pref.count = 0
stlb_l1d_pref.share = 0.00%

DRAM_RQ_READ_TRAFFIC_SUMMARY:
cache_demand.count = 127513
cache_demand.share = 93.53%

cache_prefetch.count = 6582
cache_prefetch.share = 4.83%

stlb_demand.count = 2237
stlb_demand.share = 1.64%

stlb_prefetch.count = 0
stlb_prefetch.share = 0.00%

DRAM_RQ_READ_TRAFFIC_DEBUG:
total_classified_read.count = 136332
unclassified_read.count = 0
total_read_with_other.count = 136332

classified_plus_unclassified_check.count = 136332
dram_rq_read_total_observed.count = 136332
dram_rq_read_total_observed.per_1K_instructions = 1.36332

STLB_MISS_PTW_DRAM_TOUCH_BREAKDOWN:
stlb_miss_total.count = 228899

stlb_miss_touch_dram.count = 2174
stlb_miss_touch_dram.share = 0.95%

stlb_miss_no_dram_touch.count = 226725
stlb_miss_no_dram_touch.share = 99.05%

STLB_MISS_PTW_DRAM_TOUCH_DEBUG:
stlb_miss_touch_plus_no_touch.count = 228899
stlb_miss_total_check.count = 228899

======STLB miss causes ========
Core_0_STLB_miss_cause_breakdown
Core_0_STLB_cause_Demand_Data_miss 141799
Core_0_STLB_cause_Demand_Data_miss_rate 0.0874505
Core_0_STLB_cause_Demand_Instruction_miss 87100
Core_0_STLB_cause_Demand_Instruction_miss_rate 0.0537165
Core_0_STLB_cause_L1D_Prefetch_miss 0
Core_0_STLB_cause_L1D_Prefetch_miss_rate 0
Core_0_STLB_cause_L1D_Prefetch_Same_Page_miss 0
Core_0_STLB_cause_L1D_Prefetch_Same_Page_miss_rate 0
Core_0_STLB_cause_L1D_Prefetch_Cross_Page_miss 0
Core_0_STLB_cause_L1D_Prefetch_Cross_Page_miss_rate 0
Core_0_STLB_cause_L1I_Prefetch_miss 0
Core_0_STLB_cause_L1I_Prefetch_miss_rate 0
Core_0_STLB_cause_Other_miss 0
Core_0_STLB_cause_Other_miss_rate 0
Core_0_STLB_Demand_miss 228899
Core_0_STLB_Demand_miss_rate 0.141167
Core_0_STLB_L1D_Prefetch_miss 0
Core_0_STLB_L1D_Prefetch_miss_rate 0
Core_0_STLB_Other_miss 0
Core_0_STLB_Other_miss_rate 0

========== vBerti-TLB Cross-page Flow Stats ==========

Core_0_vBerti_Requested 0
Core_0_vBerti_Cross_page_prefetch_in_Requested 0
Core_0_vBerti_Same_page_prefetch_in_Requested 0
Core_0_vBerti_Cross_page_prefetch_of_Requested 0
Core_0_vBerti_Issued 0
Core_0_vBerti_PQ_Drop_Rate 0
Core_0_vBerti_InPQ_Cross_page_prefetch_of_Requested 0
Core_0_vBerti_Cross_page_PQ_Drop_rate 0
Core_0_vBerti_Cross_page_prefetch_of_Issued 0

========= DTLB_vBerti Prefetch Stats =========
Core_0_DTLB_demand_access 21933380
Core_0_DTLB_demand_hit 20258750
Core_0_DTLB_demand_miss 1674630
Core_0_DTLB_demand_mshr_merge 442452
Core_0_DTLB_demand_fill 1232178
Core_0_DTLB_demand_miss_rate 0.0763507
Core_0_DTLB_demand_mpki 16.7463
Core_0_DTLB_vberti_prefetch_access 0
Core_0_DTLB_vberti_prefetch_hit 0
Core_0_DTLB_vberti_prefetch_miss 0
Core_0_DTLB_vberti_prefetch_mshr_merge 0
Core_0_DTLB_vberti_prefetch_fill 0
Core_0_DTLB_vberti_prefetch_miss_rate 0
Core_0_DTLB_vberti_prefetch_mpki 0

=== DTLB_vBerti Same/Cross-page Prefetch Stats ===
Core_0_DTLB_vberti_same_page_prefetch 0
Core_0_DTLB_vberti_same_page_prefetch_hit 0
Core_0_DTLB_vberti_same_page_prefetch_miss 0
Core_0_DTLB_vberti_same_page_prefetch_mshr_merge 0
Core_0_DTLB_vberti_same_page_prefetch_fill 0
Core_0_DTLB_vberti_same_page_prefetch_miss_rate 0
Core_0_DTLB_vberti_same_page_prefetch_mpki 0
Core_0_DTLB_vberti_cross_page_prefetch 0
Core_0_DTLB_vberti_cross_page_prefetch_hit 0
Core_0_DTLB_vberti_cross_page_prefetch_miss 0
Core_0_DTLB_vberti_cross_page_prefetch_mshr_merge 0
Core_0_DTLB_vberti_cross_page_prefetch_fill 0
Core_0_DTLB_vberti_cross_page_prefetch_miss_rate 0
Core_0_DTLB_vberti_cross_page_prefetch_mpki 0
Core_0_DTLB_same_page_prefetch_miss_rate 0
Core_0_DTLB_same_page_prefetch_mpki 0
Core_0_DTLB_cross_page_prefetch_miss_rate 0
Core_0_DTLB_cross_page_prefetch_mpki 0
Core_0_DTLB_cross_page_prefetch_issued 0
Core_0_DTLB_cross_page_prefetch_lookups 0
Core_0_DTLB_cross_page_prefetch_useful 0
Core_0_DTLB_cross_page_prefetch_useless 0
Core_0_DTLB_cross_page_prefetch_late 0
Core_0_DTLB_cross_page_prefetch_too_early 0
Core_0_DTLB_cross_page_prefetch_too_early_among_fill 0
Core_0_DTLB_cross_page_prefetch_too_early_among_useless 0
Core_0_DTLB_cross_page_prefetch_pollution_evict 0
Core_0_DTLB_cross_page_prefetch_pollution_demand 0
Core_0_DTLB_cross_page_prefetch_pollution_among_prefetch_fill 0
Core_0_DTLB_cross_page_prefetch_accuracy 0
Core_0_DTLB_cross_page_prefetch_coverage 0

========= STLB_vBerti Prefetch Stats =========
Core_0_STLB_demand_access 1621477
Core_0_STLB_demand_hit 1392578
Core_0_STLB_demand_miss 228899
Core_0_STLB_demand_mshr_merge 0
Core_0_STLB_demand_fill 228899
Core_0_STLB_demand_miss_rate 0.141167
Core_0_STLB_demand_mpki 2.28899
Core_0_STLB_vberti_prefetch_access 0
Core_0_STLB_vberti_prefetch_hit 0
Core_0_STLB_vberti_prefetch_miss 0
Core_0_STLB_vberti_prefetch_mshr_merge 0
Core_0_STLB_vberti_prefetch_fill 0
Core_0_STLB_vberti_prefetch_miss_rate 0
Core_0_STLB_vberti_prefetch_mpki 0

=== STLB_vBerti Same/Cross-page Prefetch Stats ===
Core_0_STLB_vberti_same_page_prefetch 0
Core_0_STLB_vberti_same_page_prefetch_hit 0
Core_0_STLB_vberti_same_page_prefetch_miss 0
Core_0_STLB_vberti_same_page_prefetch_mshr_merge 0
Core_0_STLB_vberti_same_page_prefetch_fill 0
Core_0_STLB_vberti_same_page_prefetch_miss_rate 0
Core_0_STLB_vberti_same_page_prefetch_mpki 0
Core_0_STLB_vberti_cross_page_prefetch 0
Core_0_STLB_vberti_cross_page_prefetch_hit 0
Core_0_STLB_vberti_cross_page_prefetch_miss 0
Core_0_STLB_vberti_cross_page_prefetch_mshr_merge 0
Core_0_STLB_vberti_cross_page_prefetch_fill 0
Core_0_STLB_vberti_cross_page_prefetch_miss_rate 0
Core_0_STLB_vberti_cross_page_prefetch_mpki 0
Core_0_STLB_same_page_prefetch_miss_rate 0
Core_0_STLB_same_page_prefetch_mpki 0
Core_0_STLB_cross_page_prefetch_miss_rate 0
Core_0_STLB_cross_page_prefetch_mpki 0
Core_0_STLB_cross_page_prefetch_issued 0
Core_0_STLB_cross_page_prefetch_lookups 0
Core_0_STLB_cross_page_prefetch_useful 0
Core_0_STLB_cross_page_prefetch_useless 0
Core_0_STLB_cross_page_prefetch_late 0
Core_0_STLB_cross_page_prefetch_too_early 0
Core_0_STLB_cross_page_prefetch_too_early_among_fill 0
Core_0_STLB_cross_page_prefetch_too_early_among_useless 0
Core_0_STLB_cross_page_prefetch_pollution_evict 0
Core_0_STLB_cross_page_prefetch_pollution_demand 0
Core_0_STLB_cross_page_prefetch_pollution_among_prefetch_fill 0
Core_0_STLB_cross_page_prefetch_accuracy 0
Core_0_STLB_cross_page_prefetch_coverage 0

========= STLB Cross-page Prefetch Buffer Stats =========
Core_0_STLB_raw_demand_miss 141799
Core_0_CP_PB_insert 0
Core_0_CP_PB_demand_hit 0
Core_0_STLB_PB_demand_miss 141799
Core_0_CP_PB_coverage 0
Core_0_STLB_raw_demand_mpki 1.41799
Core_0_STLB_PB_demand_mpki 1.41799
Core_0_CP_PB_demand_hit_mpki 0

Core_0_TLB_demand_miss_rate 0.0104361
Core_0_TLB_demand_mpki 2.28899
Core_0_TLB_same_page_prefetch_miss_rate 0
Core_0_TLB_same_page_prefetch_mpki 0
Core_0_TLB_cross_page_prefetch_miss_rate 0
Core_0_TLB_cross_page_prefetch_mpki 0
Core_0_TLB_cross_page_prefetch_issued 0
Core_0_TLB_cross_page_prefetch_lookups 0
Core_0_TLB_cross_page_prefetch_useful 0
Core_0_TLB_cross_page_prefetch_useless 0
Core_0_TLB_cross_page_prefetch_late 0
Core_0_TLB_cross_page_prefetch_too_early 0
Core_0_TLB_cross_page_prefetch_too_early_among_fill 0
Core_0_TLB_cross_page_prefetch_too_early_among_useless 0
Core_0_TLB_cross_page_prefetch_accuracy 0
Core_0_TLB_cross_page_prefetch_coverage 0
