[VMEM] WARNING: physical memory size is smaller than virtual memory size.

*** ChampSim Multicore Out-of-Order Simulator ***
Warmup Instructions: 50000000
Simulation Instructions: 100000000
Number of CPUs: 1
Page size: 4096
Core 0: /data2/zcq/champsim_traces_gap/sssp.twitter-1116B.champsimtrace.xz
Off-chip DRAM Size: 16 GiB Channels: 1 Width: 64-bit Data Rate: 3205 MT/s
Warmup halting CPU 0 at instruction 50000005 cycle 18924666 for remainder of phase
Warmup finished CPU 0 instructions: 50000005 cycles: 18924666 cumulative IPC: 2.642 (Simulation time: 00 hr 03 min 50 sec)
Warmup complete CPU 0 instructions: 50000005 cycles: 18924666 cumulative IPC: 2.642 (Simulation time: 00 hr 03 min 50 sec)
Simulation finished CPU 0 instructions: 100000005 cycles: 375053291 cumulative IPC: 0.2666 (Simulation time: 00 hr 36 min 11 sec)
Simulation complete CPU 0 instructions: 100000005 cycles: 375053291 cumulative IPC: 0.2666 (Simulation time: 00 hr 36 min 11 sec)

ChampSim completed all CPUs

=== Simulation ===
CPU 0 runs /data2/zcq/champsim_traces_gap/sssp.twitter-1116B.champsimtrace.xz

Region of Interest Statistics

CPU 0 cumulative IPC: 0.2666 instructions: 100000005 cycles: 375053291
CPU 0 Branch Prediction Accuracy: 95% MPKI: 6.898 Average ROB Occupancy at Mispredict: 74.29
Branch type MPKI
BRANCH_DIRECT_JUMP: 6e-05
BRANCH_INDIRECT: 0
BRANCH_CONDITIONAL: 6.898
BRANCH_DIRECT_CALL: 0
BRANCH_INDIRECT_CALL: 0
BRANCH_RETURN: 0

cpu0->cpu0_STLB TOTAL        ACCESS:    2967032 HIT:     794875 MISS:    2172157 MSHR_MERGE:          0
cpu0->cpu0_STLB LOAD         ACCESS:    2967032 HIT:     794875 MISS:    2172157 MSHR_MERGE:          0
cpu0->cpu0_STLB RFO          ACCESS:          0 HIT:          0 MISS:          0 MSHR_MERGE:          0
cpu0->cpu0_STLB PREFETCH     ACCESS:          0 HIT:          0 MISS:          0 MSHR_MERGE:          0
cpu0->cpu0_STLB WRITE        ACCESS:          0 HIT:          0 MISS:          0 MSHR_MERGE:          0
cpu0->cpu0_STLB TRANSLATION  ACCESS:          0 HIT:          0 MISS:          0 MSHR_MERGE:          0
cpu0->cpu0_STLB PREFETCH REQUESTED:          0 ISSUED:          0 USEFUL:          0 USELESS:          0 LATE:          0 TOO_EARLY:          0
cpu0->cpu0_STLB AVERAGE MISS LATENCY: 50.81 cycles
cpu0->cpu0_L2C TOTAL        ACCESS:   11164046 HIT:    4521491 MISS:    6642555 MSHR_MERGE:     359271
cpu0->cpu0_L2C LOAD         ACCESS:    4826043 HIT:     911912 MISS:    3914131 MSHR_MERGE:      79275
cpu0->cpu0_L2C RFO          ACCESS:     581856 HIT:     299595 MISS:     282261 MSHR_MERGE:          0
cpu0->cpu0_L2C PREFETCH     ACCESS:    2742976 HIT:    1224684 MISS:    1518292 MSHR_MERGE:     279996
cpu0->cpu0_L2C WRITE        ACCESS:    1779203 HIT:    1776630 MISS:       2573 MSHR_MERGE:          0
cpu0->cpu0_L2C TRANSLATION  ACCESS:    1233968 HIT:     308670 MISS:     925298 MSHR_MERGE:          0
cpu0->cpu0_L2C PREFETCH REQUESTED:    2742976 ISSUED:    2742976 USEFUL:     860181 USELESS:     375602 LATE:      79275 TOO_EARLY:       1953
cpu0->cpu0_L2C AVERAGE MISS LATENCY: 198.4 cycles
cpu0->cpu0_L1I TOTAL        ACCESS:   14449487 HIT:   14449482 MISS:          5 MSHR_MERGE:          0
cpu0->cpu0_L1I LOAD         ACCESS:   14449487 HIT:   14449482 MISS:          5 MSHR_MERGE:          0
cpu0->cpu0_L1I RFO          ACCESS:          0 HIT:          0 MISS:          0 MSHR_MERGE:          0
cpu0->cpu0_L1I PREFETCH     ACCESS:          0 HIT:          0 MISS:          0 MSHR_MERGE:          0
cpu0->cpu0_L1I WRITE        ACCESS:          0 HIT:          0 MISS:          0 MSHR_MERGE:          0
cpu0->cpu0_L1I TRANSLATION  ACCESS:          0 HIT:          0 MISS:          0 MSHR_MERGE:          0
cpu0->cpu0_L1I PREFETCH REQUESTED:          0 ISSUED:          0 USEFUL:          0 USELESS:          0 LATE:          0 TOO_EARLY:          0
cpu0->cpu0_L1I AVERAGE MISS LATENCY: 204 cycles
cpu0->cpu0_L1D TOTAL        ACCESS:   57416222 HIT:   43371553 MISS:   14044669 MSHR_MERGE:    7402781
cpu0->cpu0_L1D LOAD         ACCESS:   38089821 HIT:   32505884 MISS:    5583937 MSHR_MERGE:     757898
cpu0->cpu0_L1D RFO          ACCESS:          0 HIT:          0 MISS:          0 MSHR_MERGE:          0
cpu0->cpu0_L1D PREFETCH     ACCESS:          0 HIT:          0 MISS:          0 MSHR_MERGE:          0
cpu0->cpu0_L1D WRITE        ACCESS:   15381682 HIT:    8623161 MISS:    6758521 MSHR_MERGE:    6176640
cpu0->cpu0_L1D TRANSLATION  ACCESS:    3944719 HIT:    2242508 MISS:    1702211 MSHR_MERGE:     468243
cpu0->cpu0_L1D PREFETCH REQUESTED:          0 ISSUED:          0 USEFUL:          0 USELESS:          0 LATE:          0 TOO_EARLY:          0
cpu0->cpu0_L1D AVERAGE MISS LATENCY: 162 cycles
cpu0->cpu0_ITLB TOTAL        ACCESS:   14395199 HIT:   14395199 MISS:          0 MSHR_MERGE:          0
cpu0->cpu0_ITLB LOAD         ACCESS:   14395199 HIT:   14395199 MISS:          0 MSHR_MERGE:          0
cpu0->cpu0_ITLB RFO          ACCESS:          0 HIT:          0 MISS:          0 MSHR_MERGE:          0
cpu0->cpu0_ITLB PREFETCH     ACCESS:          0 HIT:          0 MISS:          0 MSHR_MERGE:          0
cpu0->cpu0_ITLB WRITE        ACCESS:          0 HIT:          0 MISS:          0 MSHR_MERGE:          0
cpu0->cpu0_ITLB TRANSLATION  ACCESS:          0 HIT:          0 MISS:          0 MSHR_MERGE:          0
cpu0->cpu0_ITLB PREFETCH REQUESTED:          0 ISSUED:          0 USEFUL:          0 USELESS:          0 LATE:          0 TOO_EARLY:          0
cpu0->cpu0_ITLB AVERAGE MISS LATENCY: - cycles
cpu0->cpu0_DTLB TOTAL        ACCESS:   53301298 HIT:   49768446 MISS:    3532852 MSHR_MERGE:     565819
cpu0->cpu0_DTLB LOAD         ACCESS:   53301298 HIT:   49768446 MISS:    3532852 MSHR_MERGE:     565819
cpu0->cpu0_DTLB RFO          ACCESS:          0 HIT:          0 MISS:          0 MSHR_MERGE:          0
cpu0->cpu0_DTLB PREFETCH     ACCESS:          0 HIT:          0 MISS:          0 MSHR_MERGE:          0
cpu0->cpu0_DTLB WRITE        ACCESS:          0 HIT:          0 MISS:          0 MSHR_MERGE:          0
cpu0->cpu0_DTLB TRANSLATION  ACCESS:          0 HIT:          0 MISS:          0 MSHR_MERGE:          0
cpu0->cpu0_DTLB PREFETCH REQUESTED:          0 ISSUED:          0 USEFUL:          0 USELESS:          0 LATE:          0 TOO_EARLY:          0
cpu0->cpu0_DTLB AVERAGE MISS LATENCY: 42.94 cycles
cpu0->LLC TOTAL        ACCESS:    7718478 HIT:    1607986 MISS:    6110492 MSHR_MERGE:        766
cpu0->LLC LOAD         ACCESS:    3834854 HIT:     487106 MISS:    3347748 MSHR_MERGE:        179
cpu0->LLC RFO          ACCESS:     282261 HIT:      21173 MISS:     261088 MSHR_MERGE:          0
cpu0->LLC PREFETCH     ACCESS:    1238296 HIT:       1781 MISS:    1236515 MSHR_MERGE:        587
cpu0->LLC WRITE        ACCESS:    1437771 HIT:     306642 MISS:    1131129 MSHR_MERGE:          0
cpu0->LLC TRANSLATION  ACCESS:     925296 HIT:     791284 MISS:     134012 MSHR_MERGE:          0
cpu0->LLC PREFETCH REQUESTED:          0 ISSUED:          0 USEFUL:          0 USELESS:          0 LATE:          0 TOO_EARLY:          0
cpu0->LLC AVERAGE MISS LATENCY: 190.8 cycles

DRAM Statistics

Channel 0 RQ ROW_BUFFER_HIT:      93697
  ROW_BUFFER_MISS:    4884684
  AVG DBUS CONGESTED CYCLE: 8.083
Channel 0 WQ ROW_BUFFER_HIT:     414893
  ROW_BUFFER_MISS:     996043
  FULL:          0
Channel 0 REFRESHES ISSUED:      31254

[ROI Statistics]
[System Configuration]
num_cpus 1
cpu_freq 4000
fetch_width 6
decode_width 6
dispatch_width 6
execute_width 6
lq_width 2
sq_width 2
retire_width 6
scheduler_size 128
branch_mispredict_penalty 15
rob_size 352
lq_size 128
sq_size 72
ifetch_buffer_size 64
decode_buffer_size 32
dispatch_buffer_size 32
register_file_size 288
decode_latency 1
dispatch_latency 1
schedule_latency 1
execute_latency 1
page_size 4096
block_size 64
core_0_itlb_set 16
core_0_itlb_way 4
core_0_itlb_rq_size 16
core_0_itlb_wq_size 16
core_0_itlb_pq_size 0
core_0_itlb_mshr_size 8
core_0_itlb_hit_latency 1
core_0_itlb_fill_latency 1
core_0_itlb_max_tag_check 2
core_0_itlb_max_fill 2
core_0_dtlb_set 16
core_0_dtlb_way 4
core_0_dtlb_rq_size 16
core_0_dtlb_wq_size 16
core_0_dtlb_pq_size 0
core_0_dtlb_mshr_size 8
core_0_dtlb_hit_latency 1
core_0_dtlb_fill_latency 1
core_0_dtlb_max_tag_check 2
core_0_dtlb_max_fill 2
core_0_stlb_set 128
core_0_stlb_way 12
core_0_stlb_rq_size 32
core_0_stlb_wq_size 32
core_0_stlb_pq_size 0
core_0_stlb_mshr_size 16
core_0_stlb_hit_latency 4
core_0_stlb_fill_latency 4
core_0_stlb_max_tag_check 1
core_0_stlb_max_fill 1
core_0_l1i_set 64
core_0_l1i_way 8
core_0_l1i_rq_size 64
core_0_l1i_wq_size 64
core_0_l1i_pq_size 32
core_0_l1i_mshr_size 8
core_0_l1i_hit_latency 2
core_0_l1i_fill_latency 2
core_0_l1i_max_tag_check 2
core_0_l1i_max_fill 2
core_0_l1d_set 64
core_0_l1d_way 12
core_0_l1d_rq_size 64
core_0_l1d_wq_size 64
core_0_l1d_pq_size 8
core_0_l1d_mshr_size 16
core_0_l1d_hit_latency 2
core_0_l1d_fill_latency 3
core_0_l1d_max_tag_check 2
core_0_l1d_max_fill 2
core_0_l2c_set 1024
core_0_l2c_way 8
core_0_l2c_rq_size 32
core_0_l2c_wq_size 32
core_0_l2c_pq_size 16
core_0_l2c_mshr_size 32
core_0_l2c_hit_latency 5
core_0_l2c_fill_latency 5
core_0_l2c_max_tag_check 1
core_0_l2c_max_fill 1
llc_set 2048
llc_way 16
llc_rq_size 32
llc_wq_size 32
llc_pq_size 32
llc_mshr_size 64
llc_hit_latency 10
llc_fill_latency 10
llc_max_tag_check 1
llc_max_fill 1
dram_channels 1
dram_ranks 1
dram_bankgroups 8
dram_banks 4
dram_rows 65536
dram_columns 1024
dram_channel_width 8
dram_rq_size 64
dram_wq_size 64
dram_size 17179869184
core_0_itlb_prefetcher no
core_0_dtlb_prefetcher no
core_0_stlb_prefetcher no
core_0_l1i_prefetcher next_line
core_0_l1d_prefetcher no
core_0_l2c_prefetcher ip_stride
llc_prefetcher no
llc_replacement drrip

Core_0_instructions 100000005
Core_0_cycles 375053291
Core_0_IPC 0.266629
Core_0_branch_prediction_accuracy 95.0046
Core_0_branch_MPKI 6.89796
Core_0_average_ROB_occupancy_at_mispredict 74.2891

Core_0_ITLB_total_access 14395199
Core_0_ITLB_total_hit 14395199
Core_0_ITLB_total_miss 0
Core_0_ITLB_total_MPKI 0
Core_0_ITLB_total_miss_rate 0
Core_0_ITLB_demand_access 14395199
Core_0_ITLB_demand_hit 14395199
Core_0_ITLB_demand_miss 0
Core_0_ITLB_demand_MPKI 0
Core_0_ITLB_demand_miss_rate 0
Core_0_ITLB_load_access 14395199
Core_0_ITLB_load_hit 14395199
Core_0_ITLB_load_miss 0
Core_0_ITLB_load_MPKI 0
Core_0_ITLB_load_miss_rate 0
Core_0_ITLB_rfo_access 0
Core_0_ITLB_rfo_hit 0
Core_0_ITLB_rfo_miss 0
Core_0_ITLB_rfo_MPKI 0
Core_0_ITLB_rfo_miss_rate 0
Core_0_ITLB_prefetch_access 0
Core_0_ITLB_prefetch_hit 0
Core_0_ITLB_prefetch_miss 0
Core_0_ITLB_prefetch_MPKI 0
Core_0_ITLB_prefetch_miss_rate 0
Core_0_ITLB_writeback_access 0
Core_0_ITLB_writeback_hit 0
Core_0_ITLB_writeback_miss 0
Core_0_ITLB_writeback_MPKI 0
Core_0_ITLB_writeback_miss_rate 0
Core_0_ITLB_prefetch_requested 0
Core_0_ITLB_prefetch_issued 0
Core_0_ITLB_prefetch_useful 0
Core_0_ITLB_prefetch_useless 0
Core_0_ITLB_prefetch_late 0
Core_0_ITLB_prefetch_fill 0
Core_0_ITLB_prefetch_too_early 0
Core_0_ITLB_prefetch_too_early_among_fill 0
Core_0_ITLB_prefetch_too_early_among_useless 0
Core_0_ITLB_prefetch_pollution_evict 0
Core_0_ITLB_prefetch_pollution_demand 0
Core_0_ITLB_prefetch_pollution_among_prefetch_fill 0
Core_0_ITLB_prefetch_accuracy 0
Core_0_ITLB_prefetch_coverage 0

Core_0_DTLB_total_access 53301298
Core_0_DTLB_total_hit 49768446
Core_0_DTLB_total_miss 3532852
Core_0_DTLB_total_MPKI 35.3285
Core_0_DTLB_total_miss_rate 0.0662808
Core_0_DTLB_demand_access 53301298
Core_0_DTLB_demand_hit 49768446
Core_0_DTLB_demand_miss 3532852
Core_0_DTLB_demand_MPKI 35.3285
Core_0_DTLB_demand_miss_rate 0.0662808
Core_0_DTLB_load_access 53301298
Core_0_DTLB_load_hit 49768446
Core_0_DTLB_load_miss 3532852
Core_0_DTLB_load_MPKI 35.3285
Core_0_DTLB_load_miss_rate 0.0662808
Core_0_DTLB_rfo_access 0
Core_0_DTLB_rfo_hit 0
Core_0_DTLB_rfo_miss 0
Core_0_DTLB_rfo_MPKI 0
Core_0_DTLB_rfo_miss_rate 0
Core_0_DTLB_prefetch_access 0
Core_0_DTLB_prefetch_hit 0
Core_0_DTLB_prefetch_miss 0
Core_0_DTLB_prefetch_MPKI 0
Core_0_DTLB_prefetch_miss_rate 0
Core_0_DTLB_writeback_access 0
Core_0_DTLB_writeback_hit 0
Core_0_DTLB_writeback_miss 0
Core_0_DTLB_writeback_MPKI 0
Core_0_DTLB_writeback_miss_rate 0
Core_0_DTLB_prefetch_requested 0
Core_0_DTLB_prefetch_issued 0
Core_0_DTLB_prefetch_useful 0
Core_0_DTLB_prefetch_useless 0
Core_0_DTLB_prefetch_late 0
Core_0_DTLB_prefetch_fill 0
Core_0_DTLB_prefetch_too_early 0
Core_0_DTLB_prefetch_too_early_among_fill 0
Core_0_DTLB_prefetch_too_early_among_useless 0
Core_0_DTLB_prefetch_pollution_evict 0
Core_0_DTLB_prefetch_pollution_demand 0
Core_0_DTLB_prefetch_pollution_among_prefetch_fill 0
Core_0_DTLB_prefetch_accuracy 0
Core_0_DTLB_prefetch_coverage 0

Core_0_STLB_total_access 2967032
Core_0_STLB_total_hit 794875
Core_0_STLB_total_miss 2172157
Core_0_STLB_total_MPKI 21.7216
Core_0_STLB_total_miss_rate 0.732098
Core_0_STLB_demand_access 2967032
Core_0_STLB_demand_hit 794875
Core_0_STLB_demand_miss 2172157
Core_0_STLB_demand_MPKI 21.7216
Core_0_STLB_demand_miss_rate 0.732098
Core_0_STLB_load_access 2967032
Core_0_STLB_load_hit 794875
Core_0_STLB_load_miss 2172157
Core_0_STLB_load_MPKI 21.7216
Core_0_STLB_load_miss_rate 0.732098
Core_0_STLB_rfo_access 0
Core_0_STLB_rfo_hit 0
Core_0_STLB_rfo_miss 0
Core_0_STLB_rfo_MPKI 0
Core_0_STLB_rfo_miss_rate 0
Core_0_STLB_prefetch_access 0
Core_0_STLB_prefetch_hit 0
Core_0_STLB_prefetch_miss 0
Core_0_STLB_prefetch_MPKI 0
Core_0_STLB_prefetch_miss_rate 0
Core_0_STLB_writeback_access 0
Core_0_STLB_writeback_hit 0
Core_0_STLB_writeback_miss 0
Core_0_STLB_writeback_MPKI 0
Core_0_STLB_writeback_miss_rate 0
Core_0_STLB_prefetch_requested 0
Core_0_STLB_prefetch_issued 0
Core_0_STLB_prefetch_useful 0
Core_0_STLB_prefetch_useless 0
Core_0_STLB_prefetch_late 0
Core_0_STLB_prefetch_fill 0
Core_0_STLB_prefetch_too_early 0
Core_0_STLB_prefetch_too_early_among_fill 0
Core_0_STLB_prefetch_too_early_among_useless 0
Core_0_STLB_prefetch_pollution_evict 0
Core_0_STLB_prefetch_pollution_demand 0
Core_0_STLB_prefetch_pollution_among_prefetch_fill 0
Core_0_STLB_prefetch_accuracy 0
Core_0_STLB_prefetch_coverage 0

Core_0_L1I_total_access 14449487
Core_0_L1I_total_hit 14449482
Core_0_L1I_total_miss 5
Core_0_L1I_total_MPKI 5e-05
Core_0_L1I_total_miss_rate 3.46033e-07
Core_0_L1I_demand_access 14449487
Core_0_L1I_demand_hit 14449482
Core_0_L1I_demand_miss 5
Core_0_L1I_demand_MPKI 5e-05
Core_0_L1I_demand_miss_rate 3.46033e-07
Core_0_L1I_load_access 14449487
Core_0_L1I_load_hit 14449482
Core_0_L1I_load_miss 5
Core_0_L1I_load_MPKI 5e-05
Core_0_L1I_load_miss_rate 3.46033e-07
Core_0_L1I_rfo_access 0
Core_0_L1I_rfo_hit 0
Core_0_L1I_rfo_miss 0
Core_0_L1I_rfo_MPKI 0
Core_0_L1I_rfo_miss_rate 0
Core_0_L1I_prefetch_access 0
Core_0_L1I_prefetch_hit 0
Core_0_L1I_prefetch_miss 0
Core_0_L1I_prefetch_MPKI 0
Core_0_L1I_prefetch_miss_rate 0
Core_0_L1I_writeback_access 0
Core_0_L1I_writeback_hit 0
Core_0_L1I_writeback_miss 0
Core_0_L1I_writeback_MPKI 0
Core_0_L1I_writeback_miss_rate 0
Core_0_L1I_prefetch_requested 0
Core_0_L1I_prefetch_issued 0
Core_0_L1I_prefetch_useful 0
Core_0_L1I_prefetch_useless 0
Core_0_L1I_prefetch_late 0
Core_0_L1I_prefetch_fill 0
Core_0_L1I_prefetch_too_early 0
Core_0_L1I_prefetch_too_early_among_fill 0
Core_0_L1I_prefetch_too_early_among_useless 0
Core_0_L1I_prefetch_pollution_evict 0
Core_0_L1I_prefetch_pollution_demand 0
Core_0_L1I_prefetch_pollution_among_prefetch_fill 0
Core_0_L1I_prefetch_accuracy 0
Core_0_L1I_prefetch_coverage 0

Core_0_L1D_total_access 53471503
Core_0_L1D_total_hit 41129045
Core_0_L1D_total_miss 12342458
Core_0_L1D_total_MPKI 123.425
Core_0_L1D_total_miss_rate 0.230823
Core_0_L1D_demand_access 38089821
Core_0_L1D_demand_hit 32505884
Core_0_L1D_demand_miss 5583937
Core_0_L1D_demand_MPKI 55.8394
Core_0_L1D_demand_miss_rate 0.146599
Core_0_L1D_load_access 38089821
Core_0_L1D_load_hit 32505884
Core_0_L1D_load_miss 5583937
Core_0_L1D_load_MPKI 55.8394
Core_0_L1D_load_miss_rate 0.146599
Core_0_L1D_rfo_access 0
Core_0_L1D_rfo_hit 0
Core_0_L1D_rfo_miss 0
Core_0_L1D_rfo_MPKI 0
Core_0_L1D_rfo_miss_rate 0
Core_0_L1D_prefetch_access 0
Core_0_L1D_prefetch_hit 0
Core_0_L1D_prefetch_miss 0
Core_0_L1D_prefetch_MPKI 0
Core_0_L1D_prefetch_miss_rate 0
Core_0_L1D_writeback_access 15381682
Core_0_L1D_writeback_hit 8623161
Core_0_L1D_writeback_miss 6758521
Core_0_L1D_writeback_MPKI 67.5852
Core_0_L1D_writeback_miss_rate 0.439388
Core_0_L1D_prefetch_requested 0
Core_0_L1D_prefetch_issued 0
Core_0_L1D_prefetch_useful 0
Core_0_L1D_prefetch_useless 0
Core_0_L1D_prefetch_late 0
Core_0_L1D_prefetch_fill 0
Core_0_L1D_prefetch_too_early 0
Core_0_L1D_prefetch_too_early_among_fill 0
Core_0_L1D_prefetch_too_early_among_useless 0
Core_0_L1D_prefetch_pollution_evict 0
Core_0_L1D_prefetch_pollution_demand 0
Core_0_L1D_prefetch_pollution_among_prefetch_fill 0
Core_0_L1D_prefetch_accuracy 0
Core_0_L1D_prefetch_coverage 0

Core_0_L2C_total_access 9930078
Core_0_L2C_total_hit 4212821
Core_0_L2C_total_miss 5717257
Core_0_L2C_total_MPKI 57.1726
Core_0_L2C_total_miss_rate 0.575751
Core_0_L2C_demand_access 5407899
Core_0_L2C_demand_hit 1211507
Core_0_L2C_demand_miss 4196392
Core_0_L2C_demand_MPKI 41.9639
Core_0_L2C_demand_miss_rate 0.775975
Core_0_L2C_load_access 4826043
Core_0_L2C_load_hit 911912
Core_0_L2C_load_miss 3914131
Core_0_L2C_load_MPKI 39.1413
Core_0_L2C_load_miss_rate 0.811044
Core_0_L2C_rfo_access 581856
Core_0_L2C_rfo_hit 299595
Core_0_L2C_rfo_miss 282261
Core_0_L2C_rfo_MPKI 2.82261
Core_0_L2C_rfo_miss_rate 0.485105
Core_0_L2C_prefetch_access 2742976
Core_0_L2C_prefetch_hit 1224684
Core_0_L2C_prefetch_miss 1518292
Core_0_L2C_prefetch_MPKI 15.1829
Core_0_L2C_prefetch_miss_rate 0.55352
Core_0_L2C_writeback_access 1779203
Core_0_L2C_writeback_hit 1776630
Core_0_L2C_writeback_miss 2573
Core_0_L2C_writeback_MPKI 0.02573
Core_0_L2C_writeback_miss_rate 0.00144615
Core_0_L2C_prefetch_requested 2742976
Core_0_L2C_prefetch_issued 2742976
Core_0_L2C_prefetch_useful 860181
Core_0_L2C_prefetch_useless 375602
Core_0_L2C_prefetch_late 79275
Core_0_L2C_prefetch_fill 1155595
Core_0_L2C_prefetch_too_early 1953
Core_0_L2C_prefetch_too_early_among_fill 0.00169004
Core_0_L2C_prefetch_too_early_among_useless 0.00519965
Core_0_L2C_prefetch_pollution_evict 79043
Core_0_L2C_prefetch_pollution_demand 78992
Core_0_L2C_prefetch_pollution_among_prefetch_fill 0.0684003
Core_0_L2C_prefetch_accuracy 0.313594
Core_0_L2C_prefetch_coverage 0.170111

Core_0_LLC_total_access 6793182
Core_0_LLC_total_hit 816702
Core_0_LLC_total_miss 5976480
Core_0_LLC_total_MPKI 59.7648
Core_0_LLC_total_miss_rate 0.879776
Core_0_LLC_demand_access 4117115
Core_0_LLC_demand_hit 508279
Core_0_LLC_demand_miss 3608836
Core_0_LLC_demand_MPKI 36.0884
Core_0_LLC_demand_miss_rate 0.876545
Core_0_LLC_load_access 3834854
Core_0_LLC_load_hit 487106
Core_0_LLC_load_miss 3347748
Core_0_LLC_load_MPKI 33.4775
Core_0_LLC_load_miss_rate 0.872979
Core_0_LLC_rfo_access 282261
Core_0_LLC_rfo_hit 21173
Core_0_LLC_rfo_miss 261088
Core_0_LLC_rfo_MPKI 2.61088
Core_0_LLC_rfo_miss_rate 0.924988
Core_0_LLC_prefetch_access 1238296
Core_0_LLC_prefetch_hit 1781
Core_0_LLC_prefetch_miss 1236515
Core_0_LLC_prefetch_MPKI 12.3651
Core_0_LLC_prefetch_miss_rate 0.998562
Core_0_LLC_writeback_access 1437771
Core_0_LLC_writeback_hit 306642
Core_0_LLC_writeback_miss 1131129
Core_0_LLC_writeback_MPKI 11.3113
Core_0_LLC_writeback_miss_rate 0.786724
Core_0_LLC_prefetch_requested 0
Core_0_LLC_prefetch_issued 0
Core_0_LLC_prefetch_useful 0
Core_0_LLC_prefetch_useless 0
Core_0_LLC_prefetch_late 0
Core_0_LLC_prefetch_fill 1235747
Core_0_LLC_prefetch_too_early 0
Core_0_LLC_prefetch_too_early_among_fill 0
Core_0_LLC_prefetch_too_early_among_useless 0
Core_0_LLC_prefetch_pollution_evict 143993
Core_0_LLC_prefetch_pollution_demand 143993
Core_0_LLC_prefetch_pollution_among_prefetch_fill 0.116523
Core_0_LLC_prefetch_accuracy 0
Core_0_LLC_prefetch_coverage 0

[DRAM Statistics]
Channel_0_RQ_row_buffer_hit 93697
Channel_0_RQ_row_buffer_miss 4884684
Channel_0_WQ_row_buffer_hit 414893
Channel_0_WQ_row_buffer_miss 996043
Channel_0_WQ_full 0
Channel_0_dbus_congested 18707943
DRAM_total_RQ_row_buffer_hit 93697
DRAM_total_RQ_row_buffer_miss 4884684
DRAM_total_WQ_row_buffer_hit 414893
DRAM_total_WQ_row_buffer_miss 996043
DRAM_total_WQ_full 0
DRAM_total_dbus_congested 18707943
DRAM_avg_congested_cycle 8.08343

====== DRAM_RQ_TRAFFIC ========
DRAM_RQ_READ_TRAFFIC_BREAKDOWN:
data_demand_read.count = 3608652
data_demand_read.share = 72.48%

inst_demand_read.count = 5
inst_demand_read.share = 0.00%

cache_inst_prefetch.count = 0
cache_inst_prefetch.share = 0.00%

cache_data_prefetch.count = 1235928
cache_data_prefetch.share = 24.82%

stlb_data_demand.count = 134012
stlb_data_demand.share = 2.69%

stlb_inst_demand.count = 0
stlb_inst_demand.share = 0.00%

stlb_l1i_pref.count = 0
stlb_l1i_pref.share = 0.00%

stlb_l1d_pref.count = 0
stlb_l1d_pref.share = 0.00%

DRAM_RQ_READ_TRAFFIC_SUMMARY:
cache_demand.count = 3608657
cache_demand.share = 72.48%

cache_prefetch.count = 1235928
cache_prefetch.share = 24.82%

stlb_demand.count = 134012
stlb_demand.share = 2.69%

stlb_prefetch.count = 0
stlb_prefetch.share = 0.00%

DRAM_RQ_READ_TRAFFIC_DEBUG:
total_classified_read.count = 4978597
unclassified_read.count = 0
total_read_with_other.count = 4978597

classified_plus_unclassified_check.count = 4978597
dram_rq_read_total_observed.count = 4978597
dram_rq_read_total_observed.per_1K_instructions = 49.786

STLB_MISS_PTW_DRAM_TOUCH_BREAKDOWN:
stlb_miss_total.count = 2172150

stlb_miss_touch_dram.count = 135899
stlb_miss_touch_dram.share = 6.26%

stlb_miss_no_dram_touch.count = 2036251
stlb_miss_no_dram_touch.share = 93.74%

STLB_MISS_PTW_DRAM_TOUCH_DEBUG:
stlb_miss_touch_plus_no_touch.count = 2172150
stlb_miss_total_check.count = 2172150

======STLB miss causes ========
Core_0_STLB_miss_cause_breakdown
Core_0_STLB_cause_Demand_Data_miss 2172157
Core_0_STLB_cause_Demand_Data_miss_rate 0.732098
Core_0_STLB_cause_Demand_Instruction_miss 0
Core_0_STLB_cause_Demand_Instruction_miss_rate 0
Core_0_STLB_cause_L1D_Prefetch_miss 0
Core_0_STLB_cause_L1D_Prefetch_miss_rate 0
Core_0_STLB_cause_L1D_Prefetch_Same_Page_miss 0
Core_0_STLB_cause_L1D_Prefetch_Same_Page_miss_rate 0
Core_0_STLB_cause_L1D_Prefetch_Cross_Page_miss 0
Core_0_STLB_cause_L1D_Prefetch_Cross_Page_miss_rate 0
Core_0_STLB_cause_L1I_Prefetch_miss 0
Core_0_STLB_cause_L1I_Prefetch_miss_rate 0
Core_0_STLB_cause_Other_miss 0
Core_0_STLB_cause_Other_miss_rate 0
Core_0_STLB_Demand_miss 2172157
Core_0_STLB_Demand_miss_rate 0.732098
Core_0_STLB_L1D_Prefetch_miss 0
Core_0_STLB_L1D_Prefetch_miss_rate 0
Core_0_STLB_Other_miss 0
Core_0_STLB_Other_miss_rate 0

========== vBerti-TLB Cross-page Flow Stats ==========

Core_0_vBerti_Requested 0
Core_0_vBerti_Cross_page_prefetch_in_Requested 0
Core_0_vBerti_Same_page_prefetch_in_Requested 0
Core_0_vBerti_Cross_page_prefetch_of_Requested 0
Core_0_vBerti_Issued 0
Core_0_vBerti_PQ_Drop_Rate 0
Core_0_vBerti_InPQ_Cross_page_prefetch_of_Requested 0
Core_0_vBerti_Cross_page_PQ_Drop_rate 0
Core_0_vBerti_Cross_page_prefetch_of_Issued 0

========= DTLB_vBerti Prefetch Stats =========
Core_0_DTLB_demand_access 53301298
Core_0_DTLB_demand_hit 49768446
Core_0_DTLB_demand_miss 3532852
Core_0_DTLB_demand_mshr_merge 565819
Core_0_DTLB_demand_fill 2967025
Core_0_DTLB_demand_miss_rate 0.0662808
Core_0_DTLB_demand_mpki 35.3285
Core_0_DTLB_vberti_prefetch_access 0
Core_0_DTLB_vberti_prefetch_hit 0
Core_0_DTLB_vberti_prefetch_miss 0
Core_0_DTLB_vberti_prefetch_mshr_merge 0
Core_0_DTLB_vberti_prefetch_fill 0
Core_0_DTLB_vberti_prefetch_miss_rate 0
Core_0_DTLB_vberti_prefetch_mpki 0

=== DTLB_vBerti Same/Cross-page Prefetch Stats ===
Core_0_DTLB_vberti_same_page_prefetch 0
Core_0_DTLB_vberti_same_page_prefetch_hit 0
Core_0_DTLB_vberti_same_page_prefetch_miss 0
Core_0_DTLB_vberti_same_page_prefetch_mshr_merge 0
Core_0_DTLB_vberti_same_page_prefetch_fill 0
Core_0_DTLB_vberti_same_page_prefetch_miss_rate 0
Core_0_DTLB_vberti_same_page_prefetch_mpki 0
Core_0_DTLB_vberti_cross_page_prefetch 0
Core_0_DTLB_vberti_cross_page_prefetch_hit 0
Core_0_DTLB_vberti_cross_page_prefetch_miss 0
Core_0_DTLB_vberti_cross_page_prefetch_mshr_merge 0
Core_0_DTLB_vberti_cross_page_prefetch_fill 0
Core_0_DTLB_vberti_cross_page_prefetch_miss_rate 0
Core_0_DTLB_vberti_cross_page_prefetch_mpki 0
Core_0_DTLB_same_page_prefetch_miss_rate 0
Core_0_DTLB_same_page_prefetch_mpki 0
Core_0_DTLB_cross_page_prefetch_miss_rate 0
Core_0_DTLB_cross_page_prefetch_mpki 0
Core_0_DTLB_cross_page_prefetch_issued 0
Core_0_DTLB_cross_page_prefetch_lookups 0
Core_0_DTLB_cross_page_prefetch_useful 0
Core_0_DTLB_cross_page_prefetch_useless 0
Core_0_DTLB_cross_page_prefetch_late 0
Core_0_DTLB_cross_page_prefetch_too_early 0
Core_0_DTLB_cross_page_prefetch_too_early_among_fill 0
Core_0_DTLB_cross_page_prefetch_too_early_among_useless 0
Core_0_DTLB_cross_page_prefetch_pollution_evict 0
Core_0_DTLB_cross_page_prefetch_pollution_demand 0
Core_0_DTLB_cross_page_prefetch_pollution_among_prefetch_fill 0
Core_0_DTLB_cross_page_prefetch_accuracy 0
Core_0_DTLB_cross_page_prefetch_coverage 0

========= STLB_vBerti Prefetch Stats =========
Core_0_STLB_demand_access 2967032
Core_0_STLB_demand_hit 794875
Core_0_STLB_demand_miss 2172157
Core_0_STLB_demand_mshr_merge 0
Core_0_STLB_demand_fill 2172150
Core_0_STLB_demand_miss_rate 0.732098
Core_0_STLB_demand_mpki 21.7216
Core_0_STLB_vberti_prefetch_access 0
Core_0_STLB_vberti_prefetch_hit 0
Core_0_STLB_vberti_prefetch_miss 0
Core_0_STLB_vberti_prefetch_mshr_merge 0
Core_0_STLB_vberti_prefetch_fill 0
Core_0_STLB_vberti_prefetch_miss_rate 0
Core_0_STLB_vberti_prefetch_mpki 0

=== STLB_vBerti Same/Cross-page Prefetch Stats ===
Core_0_STLB_vberti_same_page_prefetch 0
Core_0_STLB_vberti_same_page_prefetch_hit 0
Core_0_STLB_vberti_same_page_prefetch_miss 0
Core_0_STLB_vberti_same_page_prefetch_mshr_merge 0
Core_0_STLB_vberti_same_page_prefetch_fill 0
Core_0_STLB_vberti_same_page_prefetch_miss_rate 0
Core_0_STLB_vberti_same_page_prefetch_mpki 0
Core_0_STLB_vberti_cross_page_prefetch 0
Core_0_STLB_vberti_cross_page_prefetch_hit 0
Core_0_STLB_vberti_cross_page_prefetch_miss 0
Core_0_STLB_vberti_cross_page_prefetch_mshr_merge 0
Core_0_STLB_vberti_cross_page_prefetch_fill 0
Core_0_STLB_vberti_cross_page_prefetch_miss_rate 0
Core_0_STLB_vberti_cross_page_prefetch_mpki 0
Core_0_STLB_same_page_prefetch_miss_rate 0
Core_0_STLB_same_page_prefetch_mpki 0
Core_0_STLB_cross_page_prefetch_miss_rate 0
Core_0_STLB_cross_page_prefetch_mpki 0
Core_0_STLB_cross_page_prefetch_issued 0
Core_0_STLB_cross_page_prefetch_lookups 0
Core_0_STLB_cross_page_prefetch_useful 0
Core_0_STLB_cross_page_prefetch_useless 0
Core_0_STLB_cross_page_prefetch_late 0
Core_0_STLB_cross_page_prefetch_too_early 0
Core_0_STLB_cross_page_prefetch_too_early_among_fill 0
Core_0_STLB_cross_page_prefetch_too_early_among_useless 0
Core_0_STLB_cross_page_prefetch_pollution_evict 0
Core_0_STLB_cross_page_prefetch_pollution_demand 0
Core_0_STLB_cross_page_prefetch_pollution_among_prefetch_fill 0
Core_0_STLB_cross_page_prefetch_accuracy 0
Core_0_STLB_cross_page_prefetch_coverage 0

========= STLB Cross-page Prefetch Buffer Stats =========
Core_0_STLB_raw_demand_miss 2172157
Core_0_CP_PB_insert 0
Core_0_CP_PB_demand_hit 0
Core_0_STLB_PB_demand_miss 2172157
Core_0_CP_PB_coverage 0
Core_0_STLB_raw_demand_mpki 21.7216
Core_0_STLB_PB_demand_mpki 21.7216
Core_0_CP_PB_demand_hit_mpki 0

Core_0_TLB_demand_miss_rate 0.0407524
Core_0_TLB_demand_mpki 21.7216
Core_0_TLB_same_page_prefetch_miss_rate 0
Core_0_TLB_same_page_prefetch_mpki 0
Core_0_TLB_cross_page_prefetch_miss_rate 0
Core_0_TLB_cross_page_prefetch_mpki 0
Core_0_TLB_cross_page_prefetch_issued 0
Core_0_TLB_cross_page_prefetch_lookups 0
Core_0_TLB_cross_page_prefetch_useful 0
Core_0_TLB_cross_page_prefetch_useless 0
Core_0_TLB_cross_page_prefetch_late 0
Core_0_TLB_cross_page_prefetch_too_early 0
Core_0_TLB_cross_page_prefetch_too_early_among_fill 0
Core_0_TLB_cross_page_prefetch_too_early_among_useless 0
Core_0_TLB_cross_page_prefetch_accuracy 0
Core_0_TLB_cross_page_prefetch_coverage 0
