[VMEM] WARNING: physical memory size is smaller than virtual memory size.

*** ChampSim Multicore Out-of-Order Simulator ***
Warmup Instructions: 50000000
Simulation Instructions: 100000000
Number of CPUs: 1
Page size: 4096
Core 0: /data2/zcq/champsim_traces_xsbench/xs.XXL100hash-563B.champsimtrace.xz
Off-chip DRAM Size: 16 GiB Channels: 1 Width: 64-bit Data Rate: 3205 MT/s
Warmup halting CPU 0 at instruction 50000004 cycle 32525171 for remainder of phase
Warmup finished CPU 0 instructions: 50000004 cycles: 32525171 cumulative IPC: 1.537 (Simulation time: 00 hr 05 min 24 sec)
Warmup complete CPU 0 instructions: 50000004 cycles: 32525171 cumulative IPC: 1.537 (Simulation time: 00 hr 05 min 24 sec)
Simulation finished CPU 0 instructions: 100000003 cycles: 507960840 cumulative IPC: 0.1969 (Simulation time: 00 hr 39 min 14 sec)
Simulation complete CPU 0 instructions: 100000003 cycles: 507960840 cumulative IPC: 0.1969 (Simulation time: 00 hr 39 min 14 sec)

ChampSim completed all CPUs

=== Simulation ===
CPU 0 runs /data2/zcq/champsim_traces_xsbench/xs.XXL100hash-563B.champsimtrace.xz

Region of Interest Statistics

CPU 0 cumulative IPC: 0.1969 instructions: 100000003 cycles: 507960840
CPU 0 Branch Prediction Accuracy: 92.93% MPKI: 10.21 Average ROB Occupancy at Mispredict: 65.68
Branch type MPKI
BRANCH_DIRECT_JUMP: 1e-05
BRANCH_INDIRECT: 0
BRANCH_CONDITIONAL: 10.21
BRANCH_DIRECT_CALL: 0
BRANCH_INDIRECT_CALL: 0
BRANCH_RETURN: 0

cpu0->cpu0_STLB TOTAL        ACCESS:     946241 HIT:      12352 MISS:     933889 MSHR_MERGE:          0
cpu0->cpu0_STLB LOAD         ACCESS:     946241 HIT:      12352 MISS:     933889 MSHR_MERGE:          0
cpu0->cpu0_STLB RFO          ACCESS:          0 HIT:          0 MISS:          0 MSHR_MERGE:          0
cpu0->cpu0_STLB PREFETCH     ACCESS:          0 HIT:          0 MISS:          0 MSHR_MERGE:          0
cpu0->cpu0_STLB WRITE        ACCESS:          0 HIT:          0 MISS:          0 MSHR_MERGE:          0
cpu0->cpu0_STLB TRANSLATION  ACCESS:          0 HIT:          0 MISS:          0 MSHR_MERGE:          0
cpu0->cpu0_STLB PREFETCH REQUESTED:          0 ISSUED:          0 USEFUL:          0 USELESS:          0 LATE:          0 TOO_EARLY:          0
cpu0->cpu0_STLB AVERAGE MISS LATENCY: 370.2 cycles
cpu0->cpu0_L2C TOTAL        ACCESS:    6465185 HIT:     983345 MISS:    5481840 MSHR_MERGE:      31081
cpu0->cpu0_L2C LOAD         ACCESS:    4542950 HIT:     164622 MISS:    4378328 MSHR_MERGE:       2363
cpu0->cpu0_L2C RFO          ACCESS:      12304 HIT:      12237 MISS:         67 MSHR_MERGE:          0
cpu0->cpu0_L2C PREFETCH     ACCESS:     745894 HIT:     377152 MISS:     368742 MSHR_MERGE:      28718
cpu0->cpu0_L2C WRITE        ACCESS:      16707 HIT:      16626 MISS:         81 MSHR_MERGE:          0
cpu0->cpu0_L2C TRANSLATION  ACCESS:    1147330 HIT:     412708 MISS:     734622 MSHR_MERGE:          0
cpu0->cpu0_L2C PREFETCH REQUESTED:     745894 ISSUED:     745894 USEFUL:      55428 USELESS:     284811 LATE:       2363 TOO_EARLY:        387
cpu0->cpu0_L2C AVERAGE MISS LATENCY: 219.7 cycles
cpu0->cpu0_L1I TOTAL        ACCESS:     329538 HIT:     329538 MISS:          0 MSHR_MERGE:          0
cpu0->cpu0_L1I LOAD         ACCESS:     329538 HIT:     329538 MISS:          0 MSHR_MERGE:          0
cpu0->cpu0_L1I RFO          ACCESS:          0 HIT:          0 MISS:          0 MSHR_MERGE:          0
cpu0->cpu0_L1I PREFETCH     ACCESS:          0 HIT:          0 MISS:          0 MSHR_MERGE:          0
cpu0->cpu0_L1I WRITE        ACCESS:          0 HIT:          0 MISS:          0 MSHR_MERGE:          0
cpu0->cpu0_L1I TRANSLATION  ACCESS:          0 HIT:          0 MISS:          0 MSHR_MERGE:          0
cpu0->cpu0_L1I PREFETCH REQUESTED:          0 ISSUED:          0 USEFUL:          0 USELESS:          0 LATE:          0 TOO_EARLY:          0
cpu0->cpu0_L1I AVERAGE MISS LATENCY: - cycles
cpu0->cpu0_L1D TOTAL        ACCESS:   19380846 HIT:   12337364 MISS:    7043482 MSHR_MERGE:    1340897
cpu0->cpu0_L1D LOAD         ACCESS:   13904053 HIT:    8365931 MISS:    5538122 MSHR_MERGE:     995176
cpu0->cpu0_L1D RFO          ACCESS:          0 HIT:          0 MISS:          0 MSHR_MERGE:          0
cpu0->cpu0_L1D PREFETCH     ACCESS:          0 HIT:          0 MISS:          0 MSHR_MERGE:          0
cpu0->cpu0_L1D WRITE        ACCESS:    3256345 HIT:    3225345 MISS:      31000 MSHR_MERGE:      18691
cpu0->cpu0_L1D TRANSLATION  ACCESS:    2220448 HIT:     746088 MISS:    1474360 MSHR_MERGE:     327030
cpu0->cpu0_L1D PREFETCH REQUESTED:          0 ISSUED:          0 USEFUL:          0 USELESS:          0 LATE:          0 TOO_EARLY:          0
cpu0->cpu0_L1D AVERAGE MISS LATENCY: 206.5 cycles
cpu0->cpu0_ITLB TOTAL        ACCESS:     273006 HIT:     273006 MISS:          0 MSHR_MERGE:          0
cpu0->cpu0_ITLB LOAD         ACCESS:     273006 HIT:     273006 MISS:          0 MSHR_MERGE:          0
cpu0->cpu0_ITLB RFO          ACCESS:          0 HIT:          0 MISS:          0 MSHR_MERGE:          0
cpu0->cpu0_ITLB PREFETCH     ACCESS:          0 HIT:          0 MISS:          0 MSHR_MERGE:          0
cpu0->cpu0_ITLB WRITE        ACCESS:          0 HIT:          0 MISS:          0 MSHR_MERGE:          0
cpu0->cpu0_ITLB TRANSLATION  ACCESS:          0 HIT:          0 MISS:          0 MSHR_MERGE:          0
cpu0->cpu0_ITLB PREFETCH REQUESTED:          0 ISSUED:          0 USEFUL:          0 USELESS:          0 LATE:          0 TOO_EARLY:          0
cpu0->cpu0_ITLB AVERAGE MISS LATENCY: - cycles
cpu0->cpu0_DTLB TOTAL        ACCESS:   17012680 HIT:   13620254 MISS:    3392426 MSHR_MERGE:    2446185
cpu0->cpu0_DTLB LOAD         ACCESS:   17012680 HIT:   13620254 MISS:    3392426 MSHR_MERGE:    2446185
cpu0->cpu0_DTLB RFO          ACCESS:          0 HIT:          0 MISS:          0 MSHR_MERGE:          0
cpu0->cpu0_DTLB PREFETCH     ACCESS:          0 HIT:          0 MISS:          0 MSHR_MERGE:          0
cpu0->cpu0_DTLB WRITE        ACCESS:          0 HIT:          0 MISS:          0 MSHR_MERGE:          0
cpu0->cpu0_DTLB TRANSLATION  ACCESS:          0 HIT:          0 MISS:          0 MSHR_MERGE:          0
cpu0->cpu0_DTLB PREFETCH REQUESTED:          0 ISSUED:          0 USEFUL:          0 USELESS:          0 LATE:          0 TOO_EARLY:          0
cpu0->cpu0_DTLB AVERAGE MISS LATENCY: 371.4 cycles
cpu0->LLC TOTAL        ACCESS:    5451300 HIT:     157609 MISS:    5293691 MSHR_MERGE:          0
cpu0->LLC LOAD         ACCESS:    4375965 HIT:      13523 MISS:    4362442 MSHR_MERGE:          0
cpu0->LLC RFO          ACCESS:         67 HIT:         67 MISS:          0 MSHR_MERGE:          0
cpu0->LLC PREFETCH     ACCESS:     340024 HIT:       8384 MISS:     331640 MSHR_MERGE:          0
cpu0->LLC WRITE        ACCESS:        622 HIT:        614 MISS:          8 MSHR_MERGE:          0
cpu0->LLC TRANSLATION  ACCESS:     734622 HIT:     135021 MISS:     599601 MSHR_MERGE:          0
cpu0->LLC PREFETCH REQUESTED:          0 ISSUED:          0 USEFUL:          0 USELESS:          0 LATE:          0 TOO_EARLY:          0
cpu0->LLC AVERAGE MISS LATENCY: 209.9 cycles

DRAM Statistics

Channel 0 RQ ROW_BUFFER_HIT:      80458
  ROW_BUFFER_MISS:    5213225
  AVG DBUS CONGESTED CYCLE: 3
Channel 0 WQ ROW_BUFFER_HIT:          4
  ROW_BUFFER_MISS:          4
  FULL:          0
Channel 0 REFRESHES ISSUED:      42330

[ROI Statistics]
[System Configuration]
num_cpus 1
cpu_freq 4000
fetch_width 6
decode_width 6
dispatch_width 6
execute_width 6
lq_width 2
sq_width 2
retire_width 6
scheduler_size 128
branch_mispredict_penalty 15
rob_size 352
lq_size 128
sq_size 72
ifetch_buffer_size 64
decode_buffer_size 32
dispatch_buffer_size 32
register_file_size 288
decode_latency 1
dispatch_latency 1
schedule_latency 1
execute_latency 1
page_size 4096
block_size 64
core_0_itlb_set 16
core_0_itlb_way 4
core_0_itlb_rq_size 16
core_0_itlb_wq_size 16
core_0_itlb_pq_size 0
core_0_itlb_mshr_size 8
core_0_itlb_hit_latency 1
core_0_itlb_fill_latency 1
core_0_itlb_max_tag_check 2
core_0_itlb_max_fill 2
core_0_dtlb_set 16
core_0_dtlb_way 4
core_0_dtlb_rq_size 16
core_0_dtlb_wq_size 16
core_0_dtlb_pq_size 0
core_0_dtlb_mshr_size 8
core_0_dtlb_hit_latency 1
core_0_dtlb_fill_latency 1
core_0_dtlb_max_tag_check 2
core_0_dtlb_max_fill 2
core_0_stlb_set 128
core_0_stlb_way 12
core_0_stlb_rq_size 32
core_0_stlb_wq_size 32
core_0_stlb_pq_size 0
core_0_stlb_mshr_size 16
core_0_stlb_hit_latency 4
core_0_stlb_fill_latency 4
core_0_stlb_max_tag_check 1
core_0_stlb_max_fill 1
core_0_l1i_set 64
core_0_l1i_way 8
core_0_l1i_rq_size 64
core_0_l1i_wq_size 64
core_0_l1i_pq_size 32
core_0_l1i_mshr_size 8
core_0_l1i_hit_latency 2
core_0_l1i_fill_latency 2
core_0_l1i_max_tag_check 2
core_0_l1i_max_fill 2
core_0_l1d_set 64
core_0_l1d_way 12
core_0_l1d_rq_size 64
core_0_l1d_wq_size 64
core_0_l1d_pq_size 8
core_0_l1d_mshr_size 16
core_0_l1d_hit_latency 2
core_0_l1d_fill_latency 3
core_0_l1d_max_tag_check 2
core_0_l1d_max_fill 2
core_0_l2c_set 1024
core_0_l2c_way 8
core_0_l2c_rq_size 32
core_0_l2c_wq_size 32
core_0_l2c_pq_size 16
core_0_l2c_mshr_size 32
core_0_l2c_hit_latency 5
core_0_l2c_fill_latency 5
core_0_l2c_max_tag_check 1
core_0_l2c_max_fill 1
llc_set 2048
llc_way 16
llc_rq_size 32
llc_wq_size 32
llc_pq_size 32
llc_mshr_size 64
llc_hit_latency 10
llc_fill_latency 10
llc_max_tag_check 1
llc_max_fill 1
dram_channels 1
dram_ranks 1
dram_bankgroups 8
dram_banks 4
dram_rows 65536
dram_columns 1024
dram_channel_width 8
dram_rq_size 64
dram_wq_size 64
dram_size 17179869184
core_0_itlb_prefetcher no
core_0_dtlb_prefetcher no
core_0_stlb_prefetcher no
core_0_l1i_prefetcher next_line
core_0_l1d_prefetcher no
core_0_l2c_prefetcher ip_stride
llc_prefetcher no
llc_replacement drrip

Core_0_instructions 100000003
Core_0_cycles 507960840
Core_0_IPC 0.196866
Core_0_branch_prediction_accuracy 92.933
Core_0_branch_MPKI 10.211
Core_0_average_ROB_occupancy_at_mispredict 65.68

Core_0_ITLB_total_access 273006
Core_0_ITLB_total_hit 273006
Core_0_ITLB_total_miss 0
Core_0_ITLB_total_MPKI 0
Core_0_ITLB_total_miss_rate 0
Core_0_ITLB_demand_access 273006
Core_0_ITLB_demand_hit 273006
Core_0_ITLB_demand_miss 0
Core_0_ITLB_demand_MPKI 0
Core_0_ITLB_demand_miss_rate 0
Core_0_ITLB_load_access 273006
Core_0_ITLB_load_hit 273006
Core_0_ITLB_load_miss 0
Core_0_ITLB_load_MPKI 0
Core_0_ITLB_load_miss_rate 0
Core_0_ITLB_rfo_access 0
Core_0_ITLB_rfo_hit 0
Core_0_ITLB_rfo_miss 0
Core_0_ITLB_rfo_MPKI 0
Core_0_ITLB_rfo_miss_rate 0
Core_0_ITLB_prefetch_access 0
Core_0_ITLB_prefetch_hit 0
Core_0_ITLB_prefetch_miss 0
Core_0_ITLB_prefetch_MPKI 0
Core_0_ITLB_prefetch_miss_rate 0
Core_0_ITLB_writeback_access 0
Core_0_ITLB_writeback_hit 0
Core_0_ITLB_writeback_miss 0
Core_0_ITLB_writeback_MPKI 0
Core_0_ITLB_writeback_miss_rate 0
Core_0_ITLB_prefetch_requested 0
Core_0_ITLB_prefetch_issued 0
Core_0_ITLB_prefetch_useful 0
Core_0_ITLB_prefetch_useless 0
Core_0_ITLB_prefetch_late 0
Core_0_ITLB_prefetch_fill 0
Core_0_ITLB_prefetch_too_early 0
Core_0_ITLB_prefetch_too_early_among_fill 0
Core_0_ITLB_prefetch_too_early_among_useless 0
Core_0_ITLB_prefetch_pollution_evict 0
Core_0_ITLB_prefetch_pollution_demand 0
Core_0_ITLB_prefetch_pollution_among_prefetch_fill 0
Core_0_ITLB_prefetch_accuracy 0
Core_0_ITLB_prefetch_coverage 0

Core_0_DTLB_total_access 17012680
Core_0_DTLB_total_hit 13620254
Core_0_DTLB_total_miss 3392426
Core_0_DTLB_total_MPKI 33.9243
Core_0_DTLB_total_miss_rate 0.199406
Core_0_DTLB_demand_access 17012680
Core_0_DTLB_demand_hit 13620254
Core_0_DTLB_demand_miss 3392426
Core_0_DTLB_demand_MPKI 33.9243
Core_0_DTLB_demand_miss_rate 0.199406
Core_0_DTLB_load_access 17012680
Core_0_DTLB_load_hit 13620254
Core_0_DTLB_load_miss 3392426
Core_0_DTLB_load_MPKI 33.9243
Core_0_DTLB_load_miss_rate 0.199406
Core_0_DTLB_rfo_access 0
Core_0_DTLB_rfo_hit 0
Core_0_DTLB_rfo_miss 0
Core_0_DTLB_rfo_MPKI 0
Core_0_DTLB_rfo_miss_rate 0
Core_0_DTLB_prefetch_access 0
Core_0_DTLB_prefetch_hit 0
Core_0_DTLB_prefetch_miss 0
Core_0_DTLB_prefetch_MPKI 0
Core_0_DTLB_prefetch_miss_rate 0
Core_0_DTLB_writeback_access 0
Core_0_DTLB_writeback_hit 0
Core_0_DTLB_writeback_miss 0
Core_0_DTLB_writeback_MPKI 0
Core_0_DTLB_writeback_miss_rate 0
Core_0_DTLB_prefetch_requested 0
Core_0_DTLB_prefetch_issued 0
Core_0_DTLB_prefetch_useful 0
Core_0_DTLB_prefetch_useless 0
Core_0_DTLB_prefetch_late 0
Core_0_DTLB_prefetch_fill 0
Core_0_DTLB_prefetch_too_early 0
Core_0_DTLB_prefetch_too_early_among_fill 0
Core_0_DTLB_prefetch_too_early_among_useless 0
Core_0_DTLB_prefetch_pollution_evict 0
Core_0_DTLB_prefetch_pollution_demand 0
Core_0_DTLB_prefetch_pollution_among_prefetch_fill 0
Core_0_DTLB_prefetch_accuracy 0
Core_0_DTLB_prefetch_coverage 0

Core_0_STLB_total_access 946241
Core_0_STLB_total_hit 12352
Core_0_STLB_total_miss 933889
Core_0_STLB_total_MPKI 9.33889
Core_0_STLB_total_miss_rate 0.986946
Core_0_STLB_demand_access 946241
Core_0_STLB_demand_hit 12352
Core_0_STLB_demand_miss 933889
Core_0_STLB_demand_MPKI 9.33889
Core_0_STLB_demand_miss_rate 0.986946
Core_0_STLB_load_access 946241
Core_0_STLB_load_hit 12352
Core_0_STLB_load_miss 933889
Core_0_STLB_load_MPKI 9.33889
Core_0_STLB_load_miss_rate 0.986946
Core_0_STLB_rfo_access 0
Core_0_STLB_rfo_hit 0
Core_0_STLB_rfo_miss 0
Core_0_STLB_rfo_MPKI 0
Core_0_STLB_rfo_miss_rate 0
Core_0_STLB_prefetch_access 0
Core_0_STLB_prefetch_hit 0
Core_0_STLB_prefetch_miss 0
Core_0_STLB_prefetch_MPKI 0
Core_0_STLB_prefetch_miss_rate 0
Core_0_STLB_writeback_access 0
Core_0_STLB_writeback_hit 0
Core_0_STLB_writeback_miss 0
Core_0_STLB_writeback_MPKI 0
Core_0_STLB_writeback_miss_rate 0
Core_0_STLB_prefetch_requested 0
Core_0_STLB_prefetch_issued 0
Core_0_STLB_prefetch_useful 0
Core_0_STLB_prefetch_useless 0
Core_0_STLB_prefetch_late 0
Core_0_STLB_prefetch_fill 0
Core_0_STLB_prefetch_too_early 0
Core_0_STLB_prefetch_too_early_among_fill 0
Core_0_STLB_prefetch_too_early_among_useless 0
Core_0_STLB_prefetch_pollution_evict 0
Core_0_STLB_prefetch_pollution_demand 0
Core_0_STLB_prefetch_pollution_among_prefetch_fill 0
Core_0_STLB_prefetch_accuracy 0
Core_0_STLB_prefetch_coverage 0

Core_0_L1I_total_access 329538
Core_0_L1I_total_hit 329538
Core_0_L1I_total_miss 0
Core_0_L1I_total_MPKI 0
Core_0_L1I_total_miss_rate 0
Core_0_L1I_demand_access 329538
Core_0_L1I_demand_hit 329538
Core_0_L1I_demand_miss 0
Core_0_L1I_demand_MPKI 0
Core_0_L1I_demand_miss_rate 0
Core_0_L1I_load_access 329538
Core_0_L1I_load_hit 329538
Core_0_L1I_load_miss 0
Core_0_L1I_load_MPKI 0
Core_0_L1I_load_miss_rate 0
Core_0_L1I_rfo_access 0
Core_0_L1I_rfo_hit 0
Core_0_L1I_rfo_miss 0
Core_0_L1I_rfo_MPKI 0
Core_0_L1I_rfo_miss_rate 0
Core_0_L1I_prefetch_access 0
Core_0_L1I_prefetch_hit 0
Core_0_L1I_prefetch_miss 0
Core_0_L1I_prefetch_MPKI 0
Core_0_L1I_prefetch_miss_rate 0
Core_0_L1I_writeback_access 0
Core_0_L1I_writeback_hit 0
Core_0_L1I_writeback_miss 0
Core_0_L1I_writeback_MPKI 0
Core_0_L1I_writeback_miss_rate 0
Core_0_L1I_prefetch_requested 0
Core_0_L1I_prefetch_issued 0
Core_0_L1I_prefetch_useful 0
Core_0_L1I_prefetch_useless 0
Core_0_L1I_prefetch_late 0
Core_0_L1I_prefetch_fill 0
Core_0_L1I_prefetch_too_early 0
Core_0_L1I_prefetch_too_early_among_fill 0
Core_0_L1I_prefetch_too_early_among_useless 0
Core_0_L1I_prefetch_pollution_evict 0
Core_0_L1I_prefetch_pollution_demand 0
Core_0_L1I_prefetch_pollution_among_prefetch_fill 0
Core_0_L1I_prefetch_accuracy 0
Core_0_L1I_prefetch_coverage 0

Core_0_L1D_total_access 17160398
Core_0_L1D_total_hit 11591276
Core_0_L1D_total_miss 5569122
Core_0_L1D_total_MPKI 55.6912
Core_0_L1D_total_miss_rate 0.324533
Core_0_L1D_demand_access 13904053
Core_0_L1D_demand_hit 8365931
Core_0_L1D_demand_miss 5538122
Core_0_L1D_demand_MPKI 55.3812
Core_0_L1D_demand_miss_rate 0.39831
Core_0_L1D_load_access 13904053
Core_0_L1D_load_hit 8365931
Core_0_L1D_load_miss 5538122
Core_0_L1D_load_MPKI 55.3812
Core_0_L1D_load_miss_rate 0.39831
Core_0_L1D_rfo_access 0
Core_0_L1D_rfo_hit 0
Core_0_L1D_rfo_miss 0
Core_0_L1D_rfo_MPKI 0
Core_0_L1D_rfo_miss_rate 0
Core_0_L1D_prefetch_access 0
Core_0_L1D_prefetch_hit 0
Core_0_L1D_prefetch_miss 0
Core_0_L1D_prefetch_MPKI 0
Core_0_L1D_prefetch_miss_rate 0
Core_0_L1D_writeback_access 3256345
Core_0_L1D_writeback_hit 3225345
Core_0_L1D_writeback_miss 31000
Core_0_L1D_writeback_MPKI 0.31
Core_0_L1D_writeback_miss_rate 0.00951988
Core_0_L1D_prefetch_requested 0
Core_0_L1D_prefetch_issued 0
Core_0_L1D_prefetch_useful 0
Core_0_L1D_prefetch_useless 0
Core_0_L1D_prefetch_late 0
Core_0_L1D_prefetch_fill 0
Core_0_L1D_prefetch_too_early 0
Core_0_L1D_prefetch_too_early_among_fill 0
Core_0_L1D_prefetch_too_early_among_useless 0
Core_0_L1D_prefetch_pollution_evict 0
Core_0_L1D_prefetch_pollution_demand 0
Core_0_L1D_prefetch_pollution_among_prefetch_fill 0
Core_0_L1D_prefetch_accuracy 0
Core_0_L1D_prefetch_coverage 0

Core_0_L2C_total_access 5317855
Core_0_L2C_total_hit 570637
Core_0_L2C_total_miss 4747218
Core_0_L2C_total_MPKI 47.4722
Core_0_L2C_total_miss_rate 0.892694
Core_0_L2C_demand_access 4555254
Core_0_L2C_demand_hit 176859
Core_0_L2C_demand_miss 4378395
Core_0_L2C_demand_MPKI 43.7839
Core_0_L2C_demand_miss_rate 0.961175
Core_0_L2C_load_access 4542950
Core_0_L2C_load_hit 164622
Core_0_L2C_load_miss 4378328
Core_0_L2C_load_MPKI 43.7833
Core_0_L2C_load_miss_rate 0.963763
Core_0_L2C_rfo_access 12304
Core_0_L2C_rfo_hit 12237
Core_0_L2C_rfo_miss 67
Core_0_L2C_rfo_MPKI 0.00067
Core_0_L2C_rfo_miss_rate 0.00544538
Core_0_L2C_prefetch_access 745894
Core_0_L2C_prefetch_hit 377152
Core_0_L2C_prefetch_miss 368742
Core_0_L2C_prefetch_MPKI 3.68742
Core_0_L2C_prefetch_miss_rate 0.494362
Core_0_L2C_writeback_access 16707
Core_0_L2C_writeback_hit 16626
Core_0_L2C_writeback_miss 81
Core_0_L2C_writeback_MPKI 0.00081
Core_0_L2C_writeback_miss_rate 0.00484827
Core_0_L2C_prefetch_requested 745894
Core_0_L2C_prefetch_issued 745894
Core_0_L2C_prefetch_useful 55428
Core_0_L2C_prefetch_useless 284811
Core_0_L2C_prefetch_late 2363
Core_0_L2C_prefetch_fill 337659
Core_0_L2C_prefetch_too_early 387
Core_0_L2C_prefetch_too_early_among_fill 0.00114613
Core_0_L2C_prefetch_too_early_among_useless 0.0013588
Core_0_L2C_prefetch_pollution_evict 1457
Core_0_L2C_prefetch_pollution_demand 1435
Core_0_L2C_prefetch_pollution_among_prefetch_fill 0.004315
Core_0_L2C_prefetch_accuracy 0.0743108
Core_0_L2C_prefetch_coverage 0.0125012

Core_0_LLC_total_access 4716678
Core_0_LLC_total_hit 22588
Core_0_LLC_total_miss 4694090
Core_0_LLC_total_MPKI 46.9409
Core_0_LLC_total_miss_rate 0.995211
Core_0_LLC_demand_access 4376032
Core_0_LLC_demand_hit 13590
Core_0_LLC_demand_miss 4362442
Core_0_LLC_demand_MPKI 43.6244
Core_0_LLC_demand_miss_rate 0.996894
Core_0_LLC_load_access 4375965
Core_0_LLC_load_hit 13523
Core_0_LLC_load_miss 4362442
Core_0_LLC_load_MPKI 43.6244
Core_0_LLC_load_miss_rate 0.99691
Core_0_LLC_rfo_access 67
Core_0_LLC_rfo_hit 67
Core_0_LLC_rfo_miss 0
Core_0_LLC_rfo_MPKI 0
Core_0_LLC_rfo_miss_rate 0
Core_0_LLC_prefetch_access 340024
Core_0_LLC_prefetch_hit 8384
Core_0_LLC_prefetch_miss 331640
Core_0_LLC_prefetch_MPKI 3.3164
Core_0_LLC_prefetch_miss_rate 0.975343
Core_0_LLC_writeback_access 622
Core_0_LLC_writeback_hit 614
Core_0_LLC_writeback_miss 8
Core_0_LLC_writeback_MPKI 8e-05
Core_0_LLC_writeback_miss_rate 0.0128617
Core_0_LLC_prefetch_requested 0
Core_0_LLC_prefetch_issued 0
Core_0_LLC_prefetch_useful 0
Core_0_LLC_prefetch_useless 0
Core_0_LLC_prefetch_late 0
Core_0_LLC_prefetch_fill 331640
Core_0_LLC_prefetch_too_early 0
Core_0_LLC_prefetch_too_early_among_fill 0
Core_0_LLC_prefetch_too_early_among_useless 0
Core_0_LLC_prefetch_pollution_evict 2945
Core_0_LLC_prefetch_pollution_demand 2945
Core_0_LLC_prefetch_pollution_among_prefetch_fill 0.00888011
Core_0_LLC_prefetch_accuracy 0
Core_0_LLC_prefetch_coverage 0

[DRAM Statistics]
Channel_0_RQ_row_buffer_hit 80458
Channel_0_RQ_row_buffer_miss 5213225
Channel_0_WQ_row_buffer_hit 4
Channel_0_WQ_row_buffer_miss 4
Channel_0_WQ_full 0
Channel_0_dbus_congested 8286444
DRAM_total_RQ_row_buffer_hit 80458
DRAM_total_RQ_row_buffer_miss 5213225
DRAM_total_WQ_row_buffer_hit 4
DRAM_total_WQ_row_buffer_miss 4
DRAM_total_WQ_full 0
DRAM_total_dbus_congested 8286444
DRAM_avg_congested_cycle 3.00029

====== DRAM_RQ_TRAFFIC ========
DRAM_RQ_READ_TRAFFIC_BREAKDOWN:
data_demand_read.count = 4362442
data_demand_read.share = 82.41%

inst_demand_read.count = 0
inst_demand_read.share = 0.00%

cache_inst_prefetch.count = 0
cache_inst_prefetch.share = 0.00%

cache_data_prefetch.count = 331640
cache_data_prefetch.share = 6.26%

stlb_data_demand.count = 599601
stlb_data_demand.share = 11.33%

stlb_inst_demand.count = 0
stlb_inst_demand.share = 0.00%

stlb_l1i_pref.count = 0
stlb_l1i_pref.share = 0.00%

stlb_l1d_pref.count = 0
stlb_l1d_pref.share = 0.00%

DRAM_RQ_READ_TRAFFIC_SUMMARY:
cache_demand.count = 4362442
cache_demand.share = 82.41%

cache_prefetch.count = 331640
cache_prefetch.share = 6.26%

stlb_demand.count = 599601
stlb_demand.share = 11.33%

stlb_prefetch.count = 0
stlb_prefetch.share = 0.00%

DRAM_RQ_READ_TRAFFIC_DEBUG:
total_classified_read.count = 5293683
unclassified_read.count = 0
total_read_with_other.count = 5293683

classified_plus_unclassified_check.count = 5293683
dram_rq_read_total_observed.count = 5293683
dram_rq_read_total_observed.per_1K_instructions = 52.9368

STLB_MISS_PTW_DRAM_TOUCH_BREAKDOWN:
stlb_miss_total.count = 933889

stlb_miss_touch_dram.count = 841886
stlb_miss_touch_dram.share = 90.15%

stlb_miss_no_dram_touch.count = 92003
stlb_miss_no_dram_touch.share = 9.85%

STLB_MISS_PTW_DRAM_TOUCH_DEBUG:
stlb_miss_touch_plus_no_touch.count = 933889
stlb_miss_total_check.count = 933889

======STLB miss causes ========
Core_0_STLB_miss_cause_breakdown
Core_0_STLB_cause_Demand_Data_miss 933889
Core_0_STLB_cause_Demand_Data_miss_rate 0.986946
Core_0_STLB_cause_Demand_Instruction_miss 0
Core_0_STLB_cause_Demand_Instruction_miss_rate 0
Core_0_STLB_cause_L1D_Prefetch_miss 0
Core_0_STLB_cause_L1D_Prefetch_miss_rate 0
Core_0_STLB_cause_L1D_Prefetch_Same_Page_miss 0
Core_0_STLB_cause_L1D_Prefetch_Same_Page_miss_rate 0
Core_0_STLB_cause_L1D_Prefetch_Cross_Page_miss 0
Core_0_STLB_cause_L1D_Prefetch_Cross_Page_miss_rate 0
Core_0_STLB_cause_L1I_Prefetch_miss 0
Core_0_STLB_cause_L1I_Prefetch_miss_rate 0
Core_0_STLB_cause_Other_miss 0
Core_0_STLB_cause_Other_miss_rate 0
Core_0_STLB_Demand_miss 933889
Core_0_STLB_Demand_miss_rate 0.986946
Core_0_STLB_L1D_Prefetch_miss 0
Core_0_STLB_L1D_Prefetch_miss_rate 0
Core_0_STLB_Other_miss 0
Core_0_STLB_Other_miss_rate 0

========== vBerti-TLB Cross-page Flow Stats ==========

Core_0_vBerti_Requested 0
Core_0_vBerti_Cross_page_prefetch_in_Requested 0
Core_0_vBerti_Same_page_prefetch_in_Requested 0
Core_0_vBerti_Cross_page_prefetch_of_Requested 0
Core_0_vBerti_Issued 0
Core_0_vBerti_PQ_Drop_Rate 0
Core_0_vBerti_InPQ_Cross_page_prefetch_of_Requested 0
Core_0_vBerti_Cross_page_PQ_Drop_rate 0
Core_0_vBerti_Cross_page_prefetch_of_Issued 0

========= DTLB_vBerti Prefetch Stats =========
Core_0_DTLB_demand_access 17012680
Core_0_DTLB_demand_hit 13620254
Core_0_DTLB_demand_miss 3392426
Core_0_DTLB_demand_mshr_merge 2446185
Core_0_DTLB_demand_fill 946241
Core_0_DTLB_demand_miss_rate 0.199406
Core_0_DTLB_demand_mpki 33.9243
Core_0_DTLB_vberti_prefetch_access 0
Core_0_DTLB_vberti_prefetch_hit 0
Core_0_DTLB_vberti_prefetch_miss 0
Core_0_DTLB_vberti_prefetch_mshr_merge 0
Core_0_DTLB_vberti_prefetch_fill 0
Core_0_DTLB_vberti_prefetch_miss_rate 0
Core_0_DTLB_vberti_prefetch_mpki 0

=== DTLB_vBerti Same/Cross-page Prefetch Stats ===
Core_0_DTLB_vberti_same_page_prefetch 0
Core_0_DTLB_vberti_same_page_prefetch_hit 0
Core_0_DTLB_vberti_same_page_prefetch_miss 0
Core_0_DTLB_vberti_same_page_prefetch_mshr_merge 0
Core_0_DTLB_vberti_same_page_prefetch_fill 0
Core_0_DTLB_vberti_same_page_prefetch_miss_rate 0
Core_0_DTLB_vberti_same_page_prefetch_mpki 0
Core_0_DTLB_vberti_cross_page_prefetch 0
Core_0_DTLB_vberti_cross_page_prefetch_hit 0
Core_0_DTLB_vberti_cross_page_prefetch_miss 0
Core_0_DTLB_vberti_cross_page_prefetch_mshr_merge 0
Core_0_DTLB_vberti_cross_page_prefetch_fill 0
Core_0_DTLB_vberti_cross_page_prefetch_miss_rate 0
Core_0_DTLB_vberti_cross_page_prefetch_mpki 0
Core_0_DTLB_same_page_prefetch_miss_rate 0
Core_0_DTLB_same_page_prefetch_mpki 0
Core_0_DTLB_cross_page_prefetch_miss_rate 0
Core_0_DTLB_cross_page_prefetch_mpki 0
Core_0_DTLB_cross_page_prefetch_issued 0
Core_0_DTLB_cross_page_prefetch_lookups 0
Core_0_DTLB_cross_page_prefetch_useful 0
Core_0_DTLB_cross_page_prefetch_useless 0
Core_0_DTLB_cross_page_prefetch_late 0
Core_0_DTLB_cross_page_prefetch_too_early 0
Core_0_DTLB_cross_page_prefetch_too_early_among_fill 0
Core_0_DTLB_cross_page_prefetch_too_early_among_useless 0
Core_0_DTLB_cross_page_prefetch_pollution_evict 0
Core_0_DTLB_cross_page_prefetch_pollution_demand 0
Core_0_DTLB_cross_page_prefetch_pollution_among_prefetch_fill 0
Core_0_DTLB_cross_page_prefetch_accuracy 0
Core_0_DTLB_cross_page_prefetch_coverage 0

========= STLB_vBerti Prefetch Stats =========
Core_0_STLB_demand_access 946241
Core_0_STLB_demand_hit 12352
Core_0_STLB_demand_miss 933889
Core_0_STLB_demand_mshr_merge 0
Core_0_STLB_demand_fill 933889
Core_0_STLB_demand_miss_rate 0.986946
Core_0_STLB_demand_mpki 9.33889
Core_0_STLB_vberti_prefetch_access 0
Core_0_STLB_vberti_prefetch_hit 0
Core_0_STLB_vberti_prefetch_miss 0
Core_0_STLB_vberti_prefetch_mshr_merge 0
Core_0_STLB_vberti_prefetch_fill 0
Core_0_STLB_vberti_prefetch_miss_rate 0
Core_0_STLB_vberti_prefetch_mpki 0

=== STLB_vBerti Same/Cross-page Prefetch Stats ===
Core_0_STLB_vberti_same_page_prefetch 0
Core_0_STLB_vberti_same_page_prefetch_hit 0
Core_0_STLB_vberti_same_page_prefetch_miss 0
Core_0_STLB_vberti_same_page_prefetch_mshr_merge 0
Core_0_STLB_vberti_same_page_prefetch_fill 0
Core_0_STLB_vberti_same_page_prefetch_miss_rate 0
Core_0_STLB_vberti_same_page_prefetch_mpki 0
Core_0_STLB_vberti_cross_page_prefetch 0
Core_0_STLB_vberti_cross_page_prefetch_hit 0
Core_0_STLB_vberti_cross_page_prefetch_miss 0
Core_0_STLB_vberti_cross_page_prefetch_mshr_merge 0
Core_0_STLB_vberti_cross_page_prefetch_fill 0
Core_0_STLB_vberti_cross_page_prefetch_miss_rate 0
Core_0_STLB_vberti_cross_page_prefetch_mpki 0
Core_0_STLB_same_page_prefetch_miss_rate 0
Core_0_STLB_same_page_prefetch_mpki 0
Core_0_STLB_cross_page_prefetch_miss_rate 0
Core_0_STLB_cross_page_prefetch_mpki 0
Core_0_STLB_cross_page_prefetch_issued 0
Core_0_STLB_cross_page_prefetch_lookups 0
Core_0_STLB_cross_page_prefetch_useful 0
Core_0_STLB_cross_page_prefetch_useless 0
Core_0_STLB_cross_page_prefetch_late 0
Core_0_STLB_cross_page_prefetch_too_early 0
Core_0_STLB_cross_page_prefetch_too_early_among_fill 0
Core_0_STLB_cross_page_prefetch_too_early_among_useless 0
Core_0_STLB_cross_page_prefetch_pollution_evict 0
Core_0_STLB_cross_page_prefetch_pollution_demand 0
Core_0_STLB_cross_page_prefetch_pollution_among_prefetch_fill 0
Core_0_STLB_cross_page_prefetch_accuracy 0
Core_0_STLB_cross_page_prefetch_coverage 0

========= STLB Cross-page Prefetch Buffer Stats =========
Core_0_STLB_raw_demand_miss 933889
Core_0_CP_PB_insert 0
Core_0_CP_PB_demand_hit 0
Core_0_STLB_PB_demand_miss 933889
Core_0_CP_PB_coverage 0
Core_0_STLB_raw_demand_mpki 9.33889
Core_0_STLB_PB_demand_mpki 9.33889
Core_0_CP_PB_demand_hit_mpki 0

Core_0_TLB_demand_miss_rate 0.0548937
Core_0_TLB_demand_mpki 9.33889
Core_0_TLB_same_page_prefetch_miss_rate 0
Core_0_TLB_same_page_prefetch_mpki 0
Core_0_TLB_cross_page_prefetch_miss_rate 0
Core_0_TLB_cross_page_prefetch_mpki 0
Core_0_TLB_cross_page_prefetch_issued 0
Core_0_TLB_cross_page_prefetch_lookups 0
Core_0_TLB_cross_page_prefetch_useful 0
Core_0_TLB_cross_page_prefetch_useless 0
Core_0_TLB_cross_page_prefetch_late 0
Core_0_TLB_cross_page_prefetch_too_early 0
Core_0_TLB_cross_page_prefetch_too_early_among_fill 0
Core_0_TLB_cross_page_prefetch_too_early_among_useless 0
Core_0_TLB_cross_page_prefetch_accuracy 0
Core_0_TLB_cross_page_prefetch_coverage 0
