[VMEM] WARNING: physical memory size is smaller than virtual memory size.

*** ChampSim Multicore Out-of-Order Simulator ***
Warmup Instructions: 50000000
Simulation Instructions: 100000000
Number of CPUs: 1
Page size: 4096
Core 0: /data2/zcq/champsim_traces_xsbench/xs.XXL100hash-552B.champsimtrace.xz
Off-chip DRAM Size: 16 GiB Channels: 1 Width: 64-bit Data Rate: 3205 MT/s
Warmup halting CPU 0 at instruction 50000001 cycle 32589766 for remainder of phase
Warmup finished CPU 0 instructions: 50000001 cycles: 32589766 cumulative IPC: 1.534 (Simulation time: 00 hr 06 min 29 sec)
Warmup complete CPU 0 instructions: 50000001 cycles: 32589766 cumulative IPC: 1.534 (Simulation time: 00 hr 06 min 29 sec)
Simulation finished CPU 0 instructions: 100000005 cycles: 509124998 cumulative IPC: 0.1964 (Simulation time: 00 hr 49 min 29 sec)
Simulation complete CPU 0 instructions: 100000005 cycles: 509124998 cumulative IPC: 0.1964 (Simulation time: 00 hr 49 min 29 sec)

ChampSim completed all CPUs

=== Simulation ===
CPU 0 runs /data2/zcq/champsim_traces_xsbench/xs.XXL100hash-552B.champsimtrace.xz

Region of Interest Statistics

CPU 0 cumulative IPC: 0.1964 instructions: 100000005 cycles: 509124998
CPU 0 Branch Prediction Accuracy: 92.93% MPKI: 10.21 Average ROB Occupancy at Mispredict: 65.7
Branch type MPKI
BRANCH_DIRECT_JUMP: 1e-05
BRANCH_INDIRECT: 0
BRANCH_CONDITIONAL: 10.21
BRANCH_DIRECT_CALL: 0
BRANCH_INDIRECT_CALL: 0
BRANCH_RETURN: 0

cpu0->cpu0_STLB TOTAL        ACCESS:     946849 HIT:      12877 MISS:     933972 MSHR_MERGE:          0
cpu0->cpu0_STLB LOAD         ACCESS:     946849 HIT:      12877 MISS:     933972 MSHR_MERGE:          0
cpu0->cpu0_STLB RFO          ACCESS:          0 HIT:          0 MISS:          0 MSHR_MERGE:          0
cpu0->cpu0_STLB PREFETCH     ACCESS:          0 HIT:          0 MISS:          0 MSHR_MERGE:          0
cpu0->cpu0_STLB WRITE        ACCESS:          0 HIT:          0 MISS:          0 MSHR_MERGE:          0
cpu0->cpu0_STLB TRANSLATION  ACCESS:          0 HIT:          0 MISS:          0 MSHR_MERGE:          0
cpu0->cpu0_STLB PREFETCH REQUESTED:          0 ISSUED:          0 USEFUL:          0 USELESS:          0 LATE:          0 TOO_EARLY:          0
cpu0->cpu0_STLB AVERAGE MISS LATENCY: 372.1 cycles
cpu0->cpu0_L2C TOTAL        ACCESS:    6468117 HIT:     969245 MISS:    5498872 MSHR_MERGE:      32366
cpu0->cpu0_L2C LOAD         ACCESS:    4543777 HIT:     164280 MISS:    4379497 MSHR_MERGE:       2466
cpu0->cpu0_L2C RFO          ACCESS:      12759 HIT:      12725 MISS:         34 MSHR_MERGE:          0
cpu0->cpu0_L2C PREFETCH     ACCESS:     746452 HIT:     375098 MISS:     371354 MSHR_MERGE:      29900
cpu0->cpu0_L2C WRITE        ACCESS:      17194 HIT:      17164 MISS:         30 MSHR_MERGE:          0
cpu0->cpu0_L2C TRANSLATION  ACCESS:    1147935 HIT:     399978 MISS:     747957 MSHR_MERGE:          0
cpu0->cpu0_L2C PREFETCH REQUESTED:     746452 ISSUED:     746452 USEFUL:      56597 USELESS:     284922 LATE:       2466 TOO_EARLY:        415
cpu0->cpu0_L2C AVERAGE MISS LATENCY: 219.3 cycles
cpu0->cpu0_L1I TOTAL        ACCESS:     318920 HIT:     318920 MISS:          0 MSHR_MERGE:          0
cpu0->cpu0_L1I LOAD         ACCESS:     318920 HIT:     318920 MISS:          0 MSHR_MERGE:          0
cpu0->cpu0_L1I RFO          ACCESS:          0 HIT:          0 MISS:          0 MSHR_MERGE:          0
cpu0->cpu0_L1I PREFETCH     ACCESS:          0 HIT:          0 MISS:          0 MSHR_MERGE:          0
cpu0->cpu0_L1I WRITE        ACCESS:          0 HIT:          0 MISS:          0 MSHR_MERGE:          0
cpu0->cpu0_L1I TRANSLATION  ACCESS:          0 HIT:          0 MISS:          0 MSHR_MERGE:          0
cpu0->cpu0_L1I PREFETCH REQUESTED:          0 ISSUED:          0 USEFUL:          0 USELESS:          0 LATE:          0 TOO_EARLY:          0
cpu0->cpu0_L1I AVERAGE MISS LATENCY: - cycles
cpu0->cpu0_L1D TOTAL        ACCESS:   19384675 HIT:   12339100 MISS:    7045575 MSHR_MERGE:    1341071
cpu0->cpu0_L1D LOAD         ACCESS:   13904420 HIT:    8366559 MISS:    5537861 MSHR_MERGE:     994084
cpu0->cpu0_L1D RFO          ACCESS:          0 HIT:          0 MISS:          0 MSHR_MERGE:          0
cpu0->cpu0_L1D PREFETCH     ACCESS:          0 HIT:          0 MISS:          0 MSHR_MERGE:          0
cpu0->cpu0_L1D WRITE        ACCESS:    3259753 HIT:    3228092 MISS:      31661 MSHR_MERGE:      18868
cpu0->cpu0_L1D TRANSLATION  ACCESS:    2220502 HIT:     744449 MISS:    1476053 MSHR_MERGE:     328119
cpu0->cpu0_L1D PREFETCH REQUESTED:          0 ISSUED:          0 USEFUL:          0 USELESS:          0 LATE:          0 TOO_EARLY:          0
cpu0->cpu0_L1D AVERAGE MISS LATENCY: 206.6 cycles
cpu0->cpu0_ITLB TOTAL        ACCESS:     262860 HIT:     262860 MISS:          0 MSHR_MERGE:          0
cpu0->cpu0_ITLB LOAD         ACCESS:     262860 HIT:     262860 MISS:          0 MSHR_MERGE:          0
cpu0->cpu0_ITLB RFO          ACCESS:          0 HIT:          0 MISS:          0 MSHR_MERGE:          0
cpu0->cpu0_ITLB PREFETCH     ACCESS:          0 HIT:          0 MISS:          0 MSHR_MERGE:          0
cpu0->cpu0_ITLB WRITE        ACCESS:          0 HIT:          0 MISS:          0 MSHR_MERGE:          0
cpu0->cpu0_ITLB TRANSLATION  ACCESS:          0 HIT:          0 MISS:          0 MSHR_MERGE:          0
cpu0->cpu0_ITLB PREFETCH REQUESTED:          0 ISSUED:          0 USEFUL:          0 USELESS:          0 LATE:          0 TOO_EARLY:          0
cpu0->cpu0_ITLB AVERAGE MISS LATENCY: - cycles
cpu0->cpu0_DTLB TOTAL        ACCESS:   17044411 HIT:   13649782 MISS:    3394629 MSHR_MERGE:    2447780
cpu0->cpu0_DTLB LOAD         ACCESS:   17044411 HIT:   13649782 MISS:    3394629 MSHR_MERGE:    2447780
cpu0->cpu0_DTLB RFO          ACCESS:          0 HIT:          0 MISS:          0 MSHR_MERGE:          0
cpu0->cpu0_DTLB PREFETCH     ACCESS:          0 HIT:          0 MISS:          0 MSHR_MERGE:          0
cpu0->cpu0_DTLB WRITE        ACCESS:          0 HIT:          0 MISS:          0 MSHR_MERGE:          0
cpu0->cpu0_DTLB TRANSLATION  ACCESS:          0 HIT:          0 MISS:          0 MSHR_MERGE:          0
cpu0->cpu0_DTLB PREFETCH REQUESTED:          0 ISSUED:          0 USEFUL:          0 USELESS:          0 LATE:          0 TOO_EARLY:          0
cpu0->cpu0_DTLB AVERAGE MISS LATENCY: 373 cycles
cpu0->LLC TOTAL        ACCESS:    5466819 HIT:     171518 MISS:    5295301 MSHR_MERGE:          0
cpu0->LLC LOAD         ACCESS:    4377031 HIT:      14402 MISS:    4362629 MSHR_MERGE:          0
cpu0->LLC RFO          ACCESS:         34 HIT:         34 MISS:          0 MSHR_MERGE:          0
cpu0->LLC PREFETCH     ACCESS:     341454 HIT:       9811 MISS:     331643 MSHR_MERGE:          0
cpu0->LLC WRITE        ACCESS:        343 HIT:        330 MISS:         13 MSHR_MERGE:          0
cpu0->LLC TRANSLATION  ACCESS:     747957 HIT:     146941 MISS:     601016 MSHR_MERGE:          0
cpu0->LLC PREFETCH REQUESTED:          0 ISSUED:          0 USEFUL:          0 USELESS:          0 LATE:          0 TOO_EARLY:          0
cpu0->LLC AVERAGE MISS LATENCY: 209.9 cycles

DRAM Statistics

Channel 0 RQ ROW_BUFFER_HIT:      81460
  ROW_BUFFER_MISS:    5213827
  AVG DBUS CONGESTED CYCLE: 3.001
Channel 0 WQ ROW_BUFFER_HIT:          3
  ROW_BUFFER_MISS:         10
  FULL:          0
Channel 0 REFRESHES ISSUED:      42427

[ROI Statistics]
[System Configuration]
num_cpus 1
cpu_freq 4000
fetch_width 6
decode_width 6
dispatch_width 6
execute_width 6
lq_width 2
sq_width 2
retire_width 6
scheduler_size 128
branch_mispredict_penalty 15
rob_size 352
lq_size 128
sq_size 72
ifetch_buffer_size 64
decode_buffer_size 32
dispatch_buffer_size 32
register_file_size 288
decode_latency 1
dispatch_latency 1
schedule_latency 1
execute_latency 1
page_size 4096
block_size 64
core_0_itlb_set 16
core_0_itlb_way 4
core_0_itlb_rq_size 16
core_0_itlb_wq_size 16
core_0_itlb_pq_size 0
core_0_itlb_mshr_size 8
core_0_itlb_hit_latency 1
core_0_itlb_fill_latency 1
core_0_itlb_max_tag_check 2
core_0_itlb_max_fill 2
core_0_dtlb_set 16
core_0_dtlb_way 4
core_0_dtlb_rq_size 16
core_0_dtlb_wq_size 16
core_0_dtlb_pq_size 0
core_0_dtlb_mshr_size 8
core_0_dtlb_hit_latency 1
core_0_dtlb_fill_latency 1
core_0_dtlb_max_tag_check 2
core_0_dtlb_max_fill 2
core_0_stlb_set 128
core_0_stlb_way 12
core_0_stlb_rq_size 32
core_0_stlb_wq_size 32
core_0_stlb_pq_size 0
core_0_stlb_mshr_size 16
core_0_stlb_hit_latency 4
core_0_stlb_fill_latency 4
core_0_stlb_max_tag_check 1
core_0_stlb_max_fill 1
core_0_l1i_set 64
core_0_l1i_way 8
core_0_l1i_rq_size 64
core_0_l1i_wq_size 64
core_0_l1i_pq_size 32
core_0_l1i_mshr_size 8
core_0_l1i_hit_latency 2
core_0_l1i_fill_latency 2
core_0_l1i_max_tag_check 2
core_0_l1i_max_fill 2
core_0_l1d_set 64
core_0_l1d_way 12
core_0_l1d_rq_size 64
core_0_l1d_wq_size 64
core_0_l1d_pq_size 8
core_0_l1d_mshr_size 16
core_0_l1d_hit_latency 2
core_0_l1d_fill_latency 3
core_0_l1d_max_tag_check 2
core_0_l1d_max_fill 2
core_0_l2c_set 1024
core_0_l2c_way 8
core_0_l2c_rq_size 32
core_0_l2c_wq_size 32
core_0_l2c_pq_size 16
core_0_l2c_mshr_size 32
core_0_l2c_hit_latency 5
core_0_l2c_fill_latency 5
core_0_l2c_max_tag_check 1
core_0_l2c_max_fill 1
llc_set 2048
llc_way 16
llc_rq_size 32
llc_wq_size 32
llc_pq_size 32
llc_mshr_size 64
llc_hit_latency 10
llc_fill_latency 10
llc_max_tag_check 1
llc_max_fill 1
dram_channels 1
dram_ranks 1
dram_bankgroups 8
dram_banks 4
dram_rows 65536
dram_columns 1024
dram_channel_width 8
dram_rq_size 64
dram_wq_size 64
dram_size 17179869184
core_0_itlb_prefetcher no
core_0_dtlb_prefetcher no
core_0_stlb_prefetcher no
core_0_l1i_prefetcher next_line
core_0_l1d_prefetcher no
core_0_l2c_prefetcher ip_stride
llc_prefetcher no
llc_replacement drrip

Core_0_instructions 100000005
Core_0_cycles 509124998
Core_0_IPC 0.196415
Core_0_branch_prediction_accuracy 92.9319
Core_0_branch_MPKI 10.2116
Core_0_average_ROB_occupancy_at_mispredict 65.7002

Core_0_ITLB_total_access 262860
Core_0_ITLB_total_hit 262860
Core_0_ITLB_total_miss 0
Core_0_ITLB_total_MPKI 0
Core_0_ITLB_total_miss_rate 0
Core_0_ITLB_demand_access 262860
Core_0_ITLB_demand_hit 262860
Core_0_ITLB_demand_miss 0
Core_0_ITLB_demand_MPKI 0
Core_0_ITLB_demand_miss_rate 0
Core_0_ITLB_load_access 262860
Core_0_ITLB_load_hit 262860
Core_0_ITLB_load_miss 0
Core_0_ITLB_load_MPKI 0
Core_0_ITLB_load_miss_rate 0
Core_0_ITLB_rfo_access 0
Core_0_ITLB_rfo_hit 0
Core_0_ITLB_rfo_miss 0
Core_0_ITLB_rfo_MPKI 0
Core_0_ITLB_rfo_miss_rate 0
Core_0_ITLB_prefetch_access 0
Core_0_ITLB_prefetch_hit 0
Core_0_ITLB_prefetch_miss 0
Core_0_ITLB_prefetch_MPKI 0
Core_0_ITLB_prefetch_miss_rate 0
Core_0_ITLB_writeback_access 0
Core_0_ITLB_writeback_hit 0
Core_0_ITLB_writeback_miss 0
Core_0_ITLB_writeback_MPKI 0
Core_0_ITLB_writeback_miss_rate 0
Core_0_ITLB_prefetch_requested 0
Core_0_ITLB_prefetch_issued 0
Core_0_ITLB_prefetch_useful 0
Core_0_ITLB_prefetch_useless 0
Core_0_ITLB_prefetch_late 0
Core_0_ITLB_prefetch_fill 0
Core_0_ITLB_prefetch_too_early 0
Core_0_ITLB_prefetch_too_early_among_fill 0
Core_0_ITLB_prefetch_too_early_among_useless 0
Core_0_ITLB_prefetch_pollution_evict 0
Core_0_ITLB_prefetch_pollution_demand 0
Core_0_ITLB_prefetch_pollution_among_prefetch_fill 0
Core_0_ITLB_prefetch_accuracy 0
Core_0_ITLB_prefetch_coverage 0

Core_0_DTLB_total_access 17044411
Core_0_DTLB_total_hit 13649782
Core_0_DTLB_total_miss 3394629
Core_0_DTLB_total_MPKI 33.9463
Core_0_DTLB_total_miss_rate 0.199164
Core_0_DTLB_demand_access 17044411
Core_0_DTLB_demand_hit 13649782
Core_0_DTLB_demand_miss 3394629
Core_0_DTLB_demand_MPKI 33.9463
Core_0_DTLB_demand_miss_rate 0.199164
Core_0_DTLB_load_access 17044411
Core_0_DTLB_load_hit 13649782
Core_0_DTLB_load_miss 3394629
Core_0_DTLB_load_MPKI 33.9463
Core_0_DTLB_load_miss_rate 0.199164
Core_0_DTLB_rfo_access 0
Core_0_DTLB_rfo_hit 0
Core_0_DTLB_rfo_miss 0
Core_0_DTLB_rfo_MPKI 0
Core_0_DTLB_rfo_miss_rate 0
Core_0_DTLB_prefetch_access 0
Core_0_DTLB_prefetch_hit 0
Core_0_DTLB_prefetch_miss 0
Core_0_DTLB_prefetch_MPKI 0
Core_0_DTLB_prefetch_miss_rate 0
Core_0_DTLB_writeback_access 0
Core_0_DTLB_writeback_hit 0
Core_0_DTLB_writeback_miss 0
Core_0_DTLB_writeback_MPKI 0
Core_0_DTLB_writeback_miss_rate 0
Core_0_DTLB_prefetch_requested 0
Core_0_DTLB_prefetch_issued 0
Core_0_DTLB_prefetch_useful 0
Core_0_DTLB_prefetch_useless 0
Core_0_DTLB_prefetch_late 0
Core_0_DTLB_prefetch_fill 0
Core_0_DTLB_prefetch_too_early 0
Core_0_DTLB_prefetch_too_early_among_fill 0
Core_0_DTLB_prefetch_too_early_among_useless 0
Core_0_DTLB_prefetch_pollution_evict 0
Core_0_DTLB_prefetch_pollution_demand 0
Core_0_DTLB_prefetch_pollution_among_prefetch_fill 0
Core_0_DTLB_prefetch_accuracy 0
Core_0_DTLB_prefetch_coverage 0

Core_0_STLB_total_access 946849
Core_0_STLB_total_hit 12877
Core_0_STLB_total_miss 933972
Core_0_STLB_total_MPKI 9.33972
Core_0_STLB_total_miss_rate 0.9864
Core_0_STLB_demand_access 946849
Core_0_STLB_demand_hit 12877
Core_0_STLB_demand_miss 933972
Core_0_STLB_demand_MPKI 9.33972
Core_0_STLB_demand_miss_rate 0.9864
Core_0_STLB_load_access 946849
Core_0_STLB_load_hit 12877
Core_0_STLB_load_miss 933972
Core_0_STLB_load_MPKI 9.33972
Core_0_STLB_load_miss_rate 0.9864
Core_0_STLB_rfo_access 0
Core_0_STLB_rfo_hit 0
Core_0_STLB_rfo_miss 0
Core_0_STLB_rfo_MPKI 0
Core_0_STLB_rfo_miss_rate 0
Core_0_STLB_prefetch_access 0
Core_0_STLB_prefetch_hit 0
Core_0_STLB_prefetch_miss 0
Core_0_STLB_prefetch_MPKI 0
Core_0_STLB_prefetch_miss_rate 0
Core_0_STLB_writeback_access 0
Core_0_STLB_writeback_hit 0
Core_0_STLB_writeback_miss 0
Core_0_STLB_writeback_MPKI 0
Core_0_STLB_writeback_miss_rate 0
Core_0_STLB_prefetch_requested 0
Core_0_STLB_prefetch_issued 0
Core_0_STLB_prefetch_useful 0
Core_0_STLB_prefetch_useless 0
Core_0_STLB_prefetch_late 0
Core_0_STLB_prefetch_fill 0
Core_0_STLB_prefetch_too_early 0
Core_0_STLB_prefetch_too_early_among_fill 0
Core_0_STLB_prefetch_too_early_among_useless 0
Core_0_STLB_prefetch_pollution_evict 0
Core_0_STLB_prefetch_pollution_demand 0
Core_0_STLB_prefetch_pollution_among_prefetch_fill 0
Core_0_STLB_prefetch_accuracy 0
Core_0_STLB_prefetch_coverage 0

Core_0_L1I_total_access 318920
Core_0_L1I_total_hit 318920
Core_0_L1I_total_miss 0
Core_0_L1I_total_MPKI 0
Core_0_L1I_total_miss_rate 0
Core_0_L1I_demand_access 318920
Core_0_L1I_demand_hit 318920
Core_0_L1I_demand_miss 0
Core_0_L1I_demand_MPKI 0
Core_0_L1I_demand_miss_rate 0
Core_0_L1I_load_access 318920
Core_0_L1I_load_hit 318920
Core_0_L1I_load_miss 0
Core_0_L1I_load_MPKI 0
Core_0_L1I_load_miss_rate 0
Core_0_L1I_rfo_access 0
Core_0_L1I_rfo_hit 0
Core_0_L1I_rfo_miss 0
Core_0_L1I_rfo_MPKI 0
Core_0_L1I_rfo_miss_rate 0
Core_0_L1I_prefetch_access 0
Core_0_L1I_prefetch_hit 0
Core_0_L1I_prefetch_miss 0
Core_0_L1I_prefetch_MPKI 0
Core_0_L1I_prefetch_miss_rate 0
Core_0_L1I_writeback_access 0
Core_0_L1I_writeback_hit 0
Core_0_L1I_writeback_miss 0
Core_0_L1I_writeback_MPKI 0
Core_0_L1I_writeback_miss_rate 0
Core_0_L1I_prefetch_requested 0
Core_0_L1I_prefetch_issued 0
Core_0_L1I_prefetch_useful 0
Core_0_L1I_prefetch_useless 0
Core_0_L1I_prefetch_late 0
Core_0_L1I_prefetch_fill 0
Core_0_L1I_prefetch_too_early 0
Core_0_L1I_prefetch_too_early_among_fill 0
Core_0_L1I_prefetch_too_early_among_useless 0
Core_0_L1I_prefetch_pollution_evict 0
Core_0_L1I_prefetch_pollution_demand 0
Core_0_L1I_prefetch_pollution_among_prefetch_fill 0
Core_0_L1I_prefetch_accuracy 0
Core_0_L1I_prefetch_coverage 0

Core_0_L1D_total_access 17164173
Core_0_L1D_total_hit 11594651
Core_0_L1D_total_miss 5569522
Core_0_L1D_total_MPKI 55.6952
Core_0_L1D_total_miss_rate 0.324485
Core_0_L1D_demand_access 13904420
Core_0_L1D_demand_hit 8366559
Core_0_L1D_demand_miss 5537861
Core_0_L1D_demand_MPKI 55.3786
Core_0_L1D_demand_miss_rate 0.398281
Core_0_L1D_load_access 13904420
Core_0_L1D_load_hit 8366559
Core_0_L1D_load_miss 5537861
Core_0_L1D_load_MPKI 55.3786
Core_0_L1D_load_miss_rate 0.398281
Core_0_L1D_rfo_access 0
Core_0_L1D_rfo_hit 0
Core_0_L1D_rfo_miss 0
Core_0_L1D_rfo_MPKI 0
Core_0_L1D_rfo_miss_rate 0
Core_0_L1D_prefetch_access 0
Core_0_L1D_prefetch_hit 0
Core_0_L1D_prefetch_miss 0
Core_0_L1D_prefetch_MPKI 0
Core_0_L1D_prefetch_miss_rate 0
Core_0_L1D_writeback_access 3259753
Core_0_L1D_writeback_hit 3228092
Core_0_L1D_writeback_miss 31661
Core_0_L1D_writeback_MPKI 0.31661
Core_0_L1D_writeback_miss_rate 0.0097127
Core_0_L1D_prefetch_requested 0
Core_0_L1D_prefetch_issued 0
Core_0_L1D_prefetch_useful 0
Core_0_L1D_prefetch_useless 0
Core_0_L1D_prefetch_late 0
Core_0_L1D_prefetch_fill 0
Core_0_L1D_prefetch_too_early 0
Core_0_L1D_prefetch_too_early_among_fill 0
Core_0_L1D_prefetch_too_early_among_useless 0
Core_0_L1D_prefetch_pollution_evict 0
Core_0_L1D_prefetch_pollution_demand 0
Core_0_L1D_prefetch_pollution_among_prefetch_fill 0
Core_0_L1D_prefetch_accuracy 0
Core_0_L1D_prefetch_coverage 0

Core_0_L2C_total_access 5320182
Core_0_L2C_total_hit 569267
Core_0_L2C_total_miss 4750915
Core_0_L2C_total_MPKI 47.5091
Core_0_L2C_total_miss_rate 0.892999
Core_0_L2C_demand_access 4556536
Core_0_L2C_demand_hit 177005
Core_0_L2C_demand_miss 4379531
Core_0_L2C_demand_MPKI 43.7953
Core_0_L2C_demand_miss_rate 0.961154
Core_0_L2C_load_access 4543777
Core_0_L2C_load_hit 164280
Core_0_L2C_load_miss 4379497
Core_0_L2C_load_MPKI 43.795
Core_0_L2C_load_miss_rate 0.963845
Core_0_L2C_rfo_access 12759
Core_0_L2C_rfo_hit 12725
Core_0_L2C_rfo_miss 34
Core_0_L2C_rfo_MPKI 0.00034
Core_0_L2C_rfo_miss_rate 0.00266479
Core_0_L2C_prefetch_access 746452
Core_0_L2C_prefetch_hit 375098
Core_0_L2C_prefetch_miss 371354
Core_0_L2C_prefetch_MPKI 3.71354
Core_0_L2C_prefetch_miss_rate 0.497492
Core_0_L2C_writeback_access 17194
Core_0_L2C_writeback_hit 17164
Core_0_L2C_writeback_miss 30
Core_0_L2C_writeback_MPKI 0.0003
Core_0_L2C_writeback_miss_rate 0.00174479
Core_0_L2C_prefetch_requested 746452
Core_0_L2C_prefetch_issued 746452
Core_0_L2C_prefetch_useful 56597
Core_0_L2C_prefetch_useless 284922
Core_0_L2C_prefetch_late 2466
Core_0_L2C_prefetch_fill 338988
Core_0_L2C_prefetch_too_early 415
Core_0_L2C_prefetch_too_early_among_fill 0.00122423
Core_0_L2C_prefetch_too_early_among_useless 0.00145654
Core_0_L2C_prefetch_pollution_evict 1759
Core_0_L2C_prefetch_pollution_demand 1738
Core_0_L2C_prefetch_pollution_among_prefetch_fill 0.00518897
Core_0_L2C_prefetch_accuracy 0.0758214
Core_0_L2C_prefetch_coverage 0.0127582

Core_0_LLC_total_access 4718862
Core_0_LLC_total_hit 24577
Core_0_LLC_total_miss 4694285
Core_0_LLC_total_MPKI 46.9428
Core_0_LLC_total_miss_rate 0.994792
Core_0_LLC_demand_access 4377065
Core_0_LLC_demand_hit 14436
Core_0_LLC_demand_miss 4362629
Core_0_LLC_demand_MPKI 43.6263
Core_0_LLC_demand_miss_rate 0.996702
Core_0_LLC_load_access 4377031
Core_0_LLC_load_hit 14402
Core_0_LLC_load_miss 4362629
Core_0_LLC_load_MPKI 43.6263
Core_0_LLC_load_miss_rate 0.99671
Core_0_LLC_rfo_access 34
Core_0_LLC_rfo_hit 34
Core_0_LLC_rfo_miss 0
Core_0_LLC_rfo_MPKI 0
Core_0_LLC_rfo_miss_rate 0
Core_0_LLC_prefetch_access 341454
Core_0_LLC_prefetch_hit 9811
Core_0_LLC_prefetch_miss 331643
Core_0_LLC_prefetch_MPKI 3.31643
Core_0_LLC_prefetch_miss_rate 0.971267
Core_0_LLC_writeback_access 343
Core_0_LLC_writeback_hit 330
Core_0_LLC_writeback_miss 13
Core_0_LLC_writeback_MPKI 0.00013
Core_0_LLC_writeback_miss_rate 0.0379009
Core_0_LLC_prefetch_requested 0
Core_0_LLC_prefetch_issued 0
Core_0_LLC_prefetch_useful 0
Core_0_LLC_prefetch_useless 0
Core_0_LLC_prefetch_late 0
Core_0_LLC_prefetch_fill 331643
Core_0_LLC_prefetch_too_early 0
Core_0_LLC_prefetch_too_early_among_fill 0
Core_0_LLC_prefetch_too_early_among_useless 0
Core_0_LLC_prefetch_pollution_evict 4197
Core_0_LLC_prefetch_pollution_demand 4197
Core_0_LLC_prefetch_pollution_among_prefetch_fill 0.0126552
Core_0_LLC_prefetch_accuracy 0
Core_0_LLC_prefetch_coverage 0

[DRAM Statistics]
Channel_0_RQ_row_buffer_hit 81460
Channel_0_RQ_row_buffer_miss 5213827
Channel_0_WQ_row_buffer_hit 3
Channel_0_WQ_row_buffer_miss 10
Channel_0_WQ_full 0
Channel_0_dbus_congested 8288521
DRAM_total_RQ_row_buffer_hit 81460
DRAM_total_RQ_row_buffer_miss 5213827
DRAM_total_WQ_row_buffer_hit 3
DRAM_total_WQ_row_buffer_miss 10
DRAM_total_WQ_full 0
DRAM_total_dbus_congested 8288521
DRAM_avg_congested_cycle 3.00081

====== DRAM_RQ_TRAFFIC ========
DRAM_RQ_READ_TRAFFIC_BREAKDOWN:
data_demand_read.count = 4362629
data_demand_read.share = 82.39%

inst_demand_read.count = 0
inst_demand_read.share = 0.00%

cache_inst_prefetch.count = 0
cache_inst_prefetch.share = 0.00%

cache_data_prefetch.count = 331643
cache_data_prefetch.share = 6.26%

stlb_data_demand.count = 601016
stlb_data_demand.share = 11.35%

stlb_inst_demand.count = 0
stlb_inst_demand.share = 0.00%

stlb_l1i_pref.count = 0
stlb_l1i_pref.share = 0.00%

stlb_l1d_pref.count = 0
stlb_l1d_pref.share = 0.00%

DRAM_RQ_READ_TRAFFIC_SUMMARY:
cache_demand.count = 4362629
cache_demand.share = 82.39%

cache_prefetch.count = 331643
cache_prefetch.share = 6.26%

stlb_demand.count = 601016
stlb_demand.share = 11.35%

stlb_prefetch.count = 0
stlb_prefetch.share = 0.00%

DRAM_RQ_READ_TRAFFIC_DEBUG:
total_classified_read.count = 5295288
unclassified_read.count = 0
total_read_with_other.count = 5295288

classified_plus_unclassified_check.count = 5295288
dram_rq_read_total_observed.count = 5295288
dram_rq_read_total_observed.per_1K_instructions = 52.9529

STLB_MISS_PTW_DRAM_TOUCH_BREAKDOWN:
stlb_miss_total.count = 933971

stlb_miss_touch_dram.count = 842629
stlb_miss_touch_dram.share = 90.22%

stlb_miss_no_dram_touch.count = 91342
stlb_miss_no_dram_touch.share = 9.78%

STLB_MISS_PTW_DRAM_TOUCH_DEBUG:
stlb_miss_touch_plus_no_touch.count = 933971
stlb_miss_total_check.count = 933971

======STLB miss causes ========
Core_0_STLB_miss_cause_breakdown
Core_0_STLB_cause_Demand_Data_miss 933972
Core_0_STLB_cause_Demand_Data_miss_rate 0.9864
Core_0_STLB_cause_Demand_Instruction_miss 0
Core_0_STLB_cause_Demand_Instruction_miss_rate 0
Core_0_STLB_cause_L1D_Prefetch_miss 0
Core_0_STLB_cause_L1D_Prefetch_miss_rate 0
Core_0_STLB_cause_L1D_Prefetch_Same_Page_miss 0
Core_0_STLB_cause_L1D_Prefetch_Same_Page_miss_rate 0
Core_0_STLB_cause_L1D_Prefetch_Cross_Page_miss 0
Core_0_STLB_cause_L1D_Prefetch_Cross_Page_miss_rate 0
Core_0_STLB_cause_L1I_Prefetch_miss 0
Core_0_STLB_cause_L1I_Prefetch_miss_rate 0
Core_0_STLB_cause_Other_miss 0
Core_0_STLB_cause_Other_miss_rate 0
Core_0_STLB_Demand_miss 933972
Core_0_STLB_Demand_miss_rate 0.9864
Core_0_STLB_L1D_Prefetch_miss 0
Core_0_STLB_L1D_Prefetch_miss_rate 0
Core_0_STLB_Other_miss 0
Core_0_STLB_Other_miss_rate 0

========== vBerti-TLB Cross-page Flow Stats ==========

Core_0_vBerti_Requested 0
Core_0_vBerti_Cross_page_prefetch_in_Requested 0
Core_0_vBerti_Same_page_prefetch_in_Requested 0
Core_0_vBerti_Cross_page_prefetch_of_Requested 0
Core_0_vBerti_Issued 0
Core_0_vBerti_PQ_Drop_Rate 0
Core_0_vBerti_InPQ_Cross_page_prefetch_of_Requested 0
Core_0_vBerti_Cross_page_PQ_Drop_rate 0
Core_0_vBerti_Cross_page_prefetch_of_Issued 0

========= DTLB_vBerti Prefetch Stats =========
Core_0_DTLB_demand_access 17044411
Core_0_DTLB_demand_hit 13649782
Core_0_DTLB_demand_miss 3394629
Core_0_DTLB_demand_mshr_merge 2447780
Core_0_DTLB_demand_fill 946849
Core_0_DTLB_demand_miss_rate 0.199164
Core_0_DTLB_demand_mpki 33.9463
Core_0_DTLB_vberti_prefetch_access 0
Core_0_DTLB_vberti_prefetch_hit 0
Core_0_DTLB_vberti_prefetch_miss 0
Core_0_DTLB_vberti_prefetch_mshr_merge 0
Core_0_DTLB_vberti_prefetch_fill 0
Core_0_DTLB_vberti_prefetch_miss_rate 0
Core_0_DTLB_vberti_prefetch_mpki 0

=== DTLB_vBerti Same/Cross-page Prefetch Stats ===
Core_0_DTLB_vberti_same_page_prefetch 0
Core_0_DTLB_vberti_same_page_prefetch_hit 0
Core_0_DTLB_vberti_same_page_prefetch_miss 0
Core_0_DTLB_vberti_same_page_prefetch_mshr_merge 0
Core_0_DTLB_vberti_same_page_prefetch_fill 0
Core_0_DTLB_vberti_same_page_prefetch_miss_rate 0
Core_0_DTLB_vberti_same_page_prefetch_mpki 0
Core_0_DTLB_vberti_cross_page_prefetch 0
Core_0_DTLB_vberti_cross_page_prefetch_hit 0
Core_0_DTLB_vberti_cross_page_prefetch_miss 0
Core_0_DTLB_vberti_cross_page_prefetch_mshr_merge 0
Core_0_DTLB_vberti_cross_page_prefetch_fill 0
Core_0_DTLB_vberti_cross_page_prefetch_miss_rate 0
Core_0_DTLB_vberti_cross_page_prefetch_mpki 0
Core_0_DTLB_same_page_prefetch_miss_rate 0
Core_0_DTLB_same_page_prefetch_mpki 0
Core_0_DTLB_cross_page_prefetch_miss_rate 0
Core_0_DTLB_cross_page_prefetch_mpki 0
Core_0_DTLB_cross_page_prefetch_issued 0
Core_0_DTLB_cross_page_prefetch_lookups 0
Core_0_DTLB_cross_page_prefetch_useful 0
Core_0_DTLB_cross_page_prefetch_useless 0
Core_0_DTLB_cross_page_prefetch_late 0
Core_0_DTLB_cross_page_prefetch_too_early 0
Core_0_DTLB_cross_page_prefetch_too_early_among_fill 0
Core_0_DTLB_cross_page_prefetch_too_early_among_useless 0
Core_0_DTLB_cross_page_prefetch_pollution_evict 0
Core_0_DTLB_cross_page_prefetch_pollution_demand 0
Core_0_DTLB_cross_page_prefetch_pollution_among_prefetch_fill 0
Core_0_DTLB_cross_page_prefetch_accuracy 0
Core_0_DTLB_cross_page_prefetch_coverage 0

========= STLB_vBerti Prefetch Stats =========
Core_0_STLB_demand_access 946849
Core_0_STLB_demand_hit 12877
Core_0_STLB_demand_miss 933972
Core_0_STLB_demand_mshr_merge 0
Core_0_STLB_demand_fill 933972
Core_0_STLB_demand_miss_rate 0.9864
Core_0_STLB_demand_mpki 9.33972
Core_0_STLB_vberti_prefetch_access 0
Core_0_STLB_vberti_prefetch_hit 0
Core_0_STLB_vberti_prefetch_miss 0
Core_0_STLB_vberti_prefetch_mshr_merge 0
Core_0_STLB_vberti_prefetch_fill 0
Core_0_STLB_vberti_prefetch_miss_rate 0
Core_0_STLB_vberti_prefetch_mpki 0

=== STLB_vBerti Same/Cross-page Prefetch Stats ===
Core_0_STLB_vberti_same_page_prefetch 0
Core_0_STLB_vberti_same_page_prefetch_hit 0
Core_0_STLB_vberti_same_page_prefetch_miss 0
Core_0_STLB_vberti_same_page_prefetch_mshr_merge 0
Core_0_STLB_vberti_same_page_prefetch_fill 0
Core_0_STLB_vberti_same_page_prefetch_miss_rate 0
Core_0_STLB_vberti_same_page_prefetch_mpki 0
Core_0_STLB_vberti_cross_page_prefetch 0
Core_0_STLB_vberti_cross_page_prefetch_hit 0
Core_0_STLB_vberti_cross_page_prefetch_miss 0
Core_0_STLB_vberti_cross_page_prefetch_mshr_merge 0
Core_0_STLB_vberti_cross_page_prefetch_fill 0
Core_0_STLB_vberti_cross_page_prefetch_miss_rate 0
Core_0_STLB_vberti_cross_page_prefetch_mpki 0
Core_0_STLB_same_page_prefetch_miss_rate 0
Core_0_STLB_same_page_prefetch_mpki 0
Core_0_STLB_cross_page_prefetch_miss_rate 0
Core_0_STLB_cross_page_prefetch_mpki 0
Core_0_STLB_cross_page_prefetch_issued 0
Core_0_STLB_cross_page_prefetch_lookups 0
Core_0_STLB_cross_page_prefetch_useful 0
Core_0_STLB_cross_page_prefetch_useless 0
Core_0_STLB_cross_page_prefetch_late 0
Core_0_STLB_cross_page_prefetch_too_early 0
Core_0_STLB_cross_page_prefetch_too_early_among_fill 0
Core_0_STLB_cross_page_prefetch_too_early_among_useless 0
Core_0_STLB_cross_page_prefetch_pollution_evict 0
Core_0_STLB_cross_page_prefetch_pollution_demand 0
Core_0_STLB_cross_page_prefetch_pollution_among_prefetch_fill 0
Core_0_STLB_cross_page_prefetch_accuracy 0
Core_0_STLB_cross_page_prefetch_coverage 0

========= STLB Cross-page Prefetch Buffer Stats =========
Core_0_STLB_raw_demand_miss 933972
Core_0_CP_PB_insert 0
Core_0_CP_PB_demand_hit 0
Core_0_STLB_PB_demand_miss 933972
Core_0_CP_PB_coverage 0
Core_0_STLB_raw_demand_mpki 9.33972
Core_0_STLB_PB_demand_mpki 9.33972
Core_0_CP_PB_demand_hit_mpki 0

Core_0_TLB_demand_miss_rate 0.0547964
Core_0_TLB_demand_mpki 9.33972
Core_0_TLB_same_page_prefetch_miss_rate 0
Core_0_TLB_same_page_prefetch_mpki 0
Core_0_TLB_cross_page_prefetch_miss_rate 0
Core_0_TLB_cross_page_prefetch_mpki 0
Core_0_TLB_cross_page_prefetch_issued 0
Core_0_TLB_cross_page_prefetch_lookups 0
Core_0_TLB_cross_page_prefetch_useful 0
Core_0_TLB_cross_page_prefetch_useless 0
Core_0_TLB_cross_page_prefetch_late 0
Core_0_TLB_cross_page_prefetch_too_early 0
Core_0_TLB_cross_page_prefetch_too_early_among_fill 0
Core_0_TLB_cross_page_prefetch_too_early_among_useless 0
Core_0_TLB_cross_page_prefetch_accuracy 0
Core_0_TLB_cross_page_prefetch_coverage 0
