[VMEM] WARNING: physical memory size is smaller than virtual memory size.

*** ChampSim Multicore Out-of-Order Simulator ***
Warmup Instructions: 50000000
Simulation Instructions: 100000000
Number of CPUs: 1
Page size: 4096
Core 0: /data2/zcq/champsim_traces_xsbench/xs.XL100unionized-28B.champsimtrace.xz
Off-chip DRAM Size: 16 GiB Channels: 1 Width: 64-bit Data Rate: 3205 MT/s
Warmup halting CPU 0 at instruction 50000004 cycle 12652277 for remainder of phase
Warmup finished CPU 0 instructions: 50000004 cycles: 12652277 cumulative IPC: 3.952 (Simulation time: 00 hr 02 min 20 sec)
Warmup complete CPU 0 instructions: 50000004 cycles: 12652277 cumulative IPC: 3.952 (Simulation time: 00 hr 02 min 20 sec)
Simulation finished CPU 0 instructions: 100000003 cycles: 203816424 cumulative IPC: 0.4906 (Simulation time: 00 hr 17 min 14 sec)
Simulation complete CPU 0 instructions: 100000003 cycles: 203816424 cumulative IPC: 0.4906 (Simulation time: 00 hr 17 min 14 sec)

ChampSim completed all CPUs

=== Simulation ===
CPU 0 runs /data2/zcq/champsim_traces_xsbench/xs.XL100unionized-28B.champsimtrace.xz

Region of Interest Statistics

CPU 0 cumulative IPC: 0.4906 instructions: 100000003 cycles: 203816424
CPU 0 Branch Prediction Accuracy: 92.6% MPKI: 18.1 Average ROB Occupancy at Mispredict: 31.13
Branch type MPKI
BRANCH_DIRECT_JUMP: 0
BRANCH_INDIRECT: 0
BRANCH_CONDITIONAL: 18.1
BRANCH_DIRECT_CALL: 0
BRANCH_INDIRECT_CALL: 0
BRANCH_RETURN: 0.00051

cpu0->cpu0_STLB TOTAL        ACCESS:    1031925 HIT:     929071 MISS:     102854 MSHR_MERGE:          0
cpu0->cpu0_STLB LOAD         ACCESS:    1031925 HIT:     929071 MISS:     102854 MSHR_MERGE:          0
cpu0->cpu0_STLB RFO          ACCESS:          0 HIT:          0 MISS:          0 MSHR_MERGE:          0
cpu0->cpu0_STLB PREFETCH     ACCESS:          0 HIT:          0 MISS:          0 MSHR_MERGE:          0
cpu0->cpu0_STLB WRITE        ACCESS:          0 HIT:          0 MISS:          0 MSHR_MERGE:          0
cpu0->cpu0_STLB TRANSLATION  ACCESS:          0 HIT:          0 MISS:          0 MSHR_MERGE:          0
cpu0->cpu0_STLB PREFETCH REQUESTED:          0 ISSUED:          0 USEFUL:          0 USELESS:          0 LATE:          0 TOO_EARLY:          0
cpu0->cpu0_STLB AVERAGE MISS LATENCY: 23.04 cycles
cpu0->cpu0_L2C TOTAL        ACCESS:    4474644 HIT:    2652167 MISS:    1822477 MSHR_MERGE:     135555
cpu0->cpu0_L2C LOAD         ACCESS:    2363170 HIT:    1149379 MISS:    1213791 MSHR_MERGE:      55266
cpu0->cpu0_L2C RFO          ACCESS:     290725 HIT:     123646 MISS:     167079 MSHR_MERGE:          1
cpu0->cpu0_L2C PREFETCH     ACCESS:    1306239 HIT:     866294 MISS:     439945 MSHR_MERGE:      80288
cpu0->cpu0_L2C WRITE        ACCESS:     457377 HIT:     457333 MISS:         44 MSHR_MERGE:          0
cpu0->cpu0_L2C TRANSLATION  ACCESS:      57133 HIT:      55515 MISS:       1618 MSHR_MERGE:          0
cpu0->cpu0_L2C PREFETCH REQUESTED:    1341226 ISSUED:    1306239 USEFUL:     344862 USELESS:        458 LATE:      55267 TOO_EARLY:        234
cpu0->cpu0_L2C AVERAGE MISS LATENCY: 143.7 cycles
cpu0->cpu0_L1I TOTAL        ACCESS:    1372776 HIT:    1372776 MISS:          0 MSHR_MERGE:          0
cpu0->cpu0_L1I LOAD         ACCESS:    1372776 HIT:    1372776 MISS:          0 MSHR_MERGE:          0
cpu0->cpu0_L1I RFO          ACCESS:          0 HIT:          0 MISS:          0 MSHR_MERGE:          0
cpu0->cpu0_L1I PREFETCH     ACCESS:          0 HIT:          0 MISS:          0 MSHR_MERGE:          0
cpu0->cpu0_L1I WRITE        ACCESS:          0 HIT:          0 MISS:          0 MSHR_MERGE:          0
cpu0->cpu0_L1I TRANSLATION  ACCESS:          0 HIT:          0 MISS:          0 MSHR_MERGE:          0
cpu0->cpu0_L1I PREFETCH REQUESTED:          0 ISSUED:          0 USEFUL:          0 USELESS:          0 LATE:          0 TOO_EARLY:          0
cpu0->cpu0_L1I AVERAGE MISS LATENCY: - cycles
cpu0->cpu0_L1D TOTAL        ACCESS:   36622355 HIT:   32863891 MISS:    3758464 MSHR_MERGE:    1047432
cpu0->cpu0_L1D LOAD         ACCESS:   24110142 HIT:   21148051 MISS:    2962091 MSHR_MERGE:     598920
cpu0->cpu0_L1D RFO          ACCESS:          0 HIT:          0 MISS:          0 MSHR_MERGE:          0
cpu0->cpu0_L1D PREFETCH     ACCESS:          0 HIT:          0 MISS:          0 MSHR_MERGE:          0
cpu0->cpu0_L1D WRITE        ACCESS:   12306551 HIT:   11567341 MISS:     739210 MSHR_MERGE:     448482
cpu0->cpu0_L1D TRANSLATION  ACCESS:     205662 HIT:     148499 MISS:      57163 MSHR_MERGE:         30
cpu0->cpu0_L1D PREFETCH REQUESTED:          0 ISSUED:          0 USEFUL:          0 USELESS:          0 LATE:          0 TOO_EARLY:          0
cpu0->cpu0_L1D AVERAGE MISS LATENCY: 81.89 cycles
cpu0->cpu0_ITLB TOTAL        ACCESS:    1291175 HIT:    1291175 MISS:          0 MSHR_MERGE:          0
cpu0->cpu0_ITLB LOAD         ACCESS:    1291175 HIT:    1291175 MISS:          0 MSHR_MERGE:          0
cpu0->cpu0_ITLB RFO          ACCESS:          0 HIT:          0 MISS:          0 MSHR_MERGE:          0
cpu0->cpu0_ITLB PREFETCH     ACCESS:          0 HIT:          0 MISS:          0 MSHR_MERGE:          0
cpu0->cpu0_ITLB WRITE        ACCESS:          0 HIT:          0 MISS:          0 MSHR_MERGE:          0
cpu0->cpu0_ITLB TRANSLATION  ACCESS:          0 HIT:          0 MISS:          0 MSHR_MERGE:          0
cpu0->cpu0_ITLB PREFETCH REQUESTED:          0 ISSUED:          0 USEFUL:          0 USELESS:          0 LATE:          0 TOO_EARLY:          0
cpu0->cpu0_ITLB AVERAGE MISS LATENCY: - cycles
cpu0->cpu0_DTLB TOTAL        ACCESS:   35286150 HIT:   34170505 MISS:    1115645 MSHR_MERGE:      83720
cpu0->cpu0_DTLB LOAD         ACCESS:   35286150 HIT:   34170505 MISS:    1115645 MSHR_MERGE:      83720
cpu0->cpu0_DTLB RFO          ACCESS:          0 HIT:          0 MISS:          0 MSHR_MERGE:          0
cpu0->cpu0_DTLB PREFETCH     ACCESS:          0 HIT:          0 MISS:          0 MSHR_MERGE:          0
cpu0->cpu0_DTLB WRITE        ACCESS:          0 HIT:          0 MISS:          0 MSHR_MERGE:          0
cpu0->cpu0_DTLB TRANSLATION  ACCESS:          0 HIT:          0 MISS:          0 MSHR_MERGE:          0
cpu0->cpu0_DTLB PREFETCH REQUESTED:          0 ISSUED:          0 USEFUL:          0 USELESS:          0 LATE:          0 TOO_EARLY:          0
cpu0->cpu0_DTLB AVERAGE MISS LATENCY: 7.397 cycles
cpu0->LLC TOTAL        ACCESS:    1974213 HIT:     851439 MISS:    1122774 MSHR_MERGE:       9377
cpu0->LLC LOAD         ACCESS:    1158525 HIT:     412287 MISS:     746238 MSHR_MERGE:       3045
cpu0->LLC RFO          ACCESS:     167078 HIT:      84662 MISS:      82416 MSHR_MERGE:          0
cpu0->LLC PREFETCH     ACCESS:     359656 HIT:     136399 MISS:     223257 MSHR_MERGE:       6332
cpu0->LLC WRITE        ACCESS:     287336 HIT:     218064 MISS:      69272 MSHR_MERGE:          0
cpu0->LLC TRANSLATION  ACCESS:       1618 HIT:         27 MISS:       1591 MSHR_MERGE:          0
cpu0->LLC PREFETCH REQUESTED:          0 ISSUED:          0 USEFUL:          0 USELESS:          0 LATE:          0 TOO_EARLY:          0
cpu0->LLC AVERAGE MISS LATENCY: 186.8 cycles

DRAM Statistics

Channel 0 RQ ROW_BUFFER_HIT:      18499
  ROW_BUFFER_MISS:    1024981
  AVG DBUS CONGESTED CYCLE: 12.98
Channel 0 WQ ROW_BUFFER_HIT:      35080
  ROW_BUFFER_MISS:     112066
  FULL:        408
Channel 0 REFRESHES ISSUED:      16985

[ROI Statistics]
[System Configuration]
num_cpus 1
cpu_freq 4000
fetch_width 6
decode_width 6
dispatch_width 6
execute_width 6
lq_width 2
sq_width 2
retire_width 6
scheduler_size 128
branch_mispredict_penalty 15
rob_size 352
lq_size 128
sq_size 72
ifetch_buffer_size 64
decode_buffer_size 32
dispatch_buffer_size 32
register_file_size 288
decode_latency 1
dispatch_latency 1
schedule_latency 1
execute_latency 1
page_size 4096
block_size 64
core_0_itlb_set 16
core_0_itlb_way 4
core_0_itlb_rq_size 16
core_0_itlb_wq_size 16
core_0_itlb_pq_size 0
core_0_itlb_mshr_size 8
core_0_itlb_hit_latency 1
core_0_itlb_fill_latency 1
core_0_itlb_max_tag_check 2
core_0_itlb_max_fill 2
core_0_dtlb_set 16
core_0_dtlb_way 4
core_0_dtlb_rq_size 16
core_0_dtlb_wq_size 16
core_0_dtlb_pq_size 0
core_0_dtlb_mshr_size 8
core_0_dtlb_hit_latency 1
core_0_dtlb_fill_latency 1
core_0_dtlb_max_tag_check 2
core_0_dtlb_max_fill 2
core_0_stlb_set 128
core_0_stlb_way 12
core_0_stlb_rq_size 32
core_0_stlb_wq_size 32
core_0_stlb_pq_size 0
core_0_stlb_mshr_size 16
core_0_stlb_hit_latency 4
core_0_stlb_fill_latency 4
core_0_stlb_max_tag_check 1
core_0_stlb_max_fill 1
core_0_l1i_set 64
core_0_l1i_way 8
core_0_l1i_rq_size 64
core_0_l1i_wq_size 64
core_0_l1i_pq_size 32
core_0_l1i_mshr_size 8
core_0_l1i_hit_latency 2
core_0_l1i_fill_latency 2
core_0_l1i_max_tag_check 2
core_0_l1i_max_fill 2
core_0_l1d_set 64
core_0_l1d_way 12
core_0_l1d_rq_size 64
core_0_l1d_wq_size 64
core_0_l1d_pq_size 8
core_0_l1d_mshr_size 16
core_0_l1d_hit_latency 2
core_0_l1d_fill_latency 3
core_0_l1d_max_tag_check 2
core_0_l1d_max_fill 2
core_0_l2c_set 1024
core_0_l2c_way 8
core_0_l2c_rq_size 32
core_0_l2c_wq_size 32
core_0_l2c_pq_size 16
core_0_l2c_mshr_size 32
core_0_l2c_hit_latency 5
core_0_l2c_fill_latency 5
core_0_l2c_max_tag_check 1
core_0_l2c_max_fill 1
llc_set 2048
llc_way 16
llc_rq_size 32
llc_wq_size 32
llc_pq_size 32
llc_mshr_size 64
llc_hit_latency 10
llc_fill_latency 10
llc_max_tag_check 1
llc_max_fill 1
dram_channels 1
dram_ranks 1
dram_bankgroups 8
dram_banks 4
dram_rows 65536
dram_columns 1024
dram_channel_width 8
dram_rq_size 64
dram_wq_size 64
dram_size 17179869184
core_0_itlb_prefetcher no
core_0_dtlb_prefetcher no
core_0_stlb_prefetcher no
core_0_l1i_prefetcher next_line
core_0_l1d_prefetcher no
core_0_l2c_prefetcher ip_stride
llc_prefetcher no
llc_replacement drrip

Core_0_instructions 100000003
Core_0_cycles 203816424
Core_0_IPC 0.490638
Core_0_branch_prediction_accuracy 92.602
Core_0_branch_MPKI 18.0963
Core_0_average_ROB_occupancy_at_mispredict 31.1307

Core_0_ITLB_total_access 1291175
Core_0_ITLB_total_hit 1291175
Core_0_ITLB_total_miss 0
Core_0_ITLB_total_MPKI 0
Core_0_ITLB_total_miss_rate 0
Core_0_ITLB_demand_access 1291175
Core_0_ITLB_demand_hit 1291175
Core_0_ITLB_demand_miss 0
Core_0_ITLB_demand_MPKI 0
Core_0_ITLB_demand_miss_rate 0
Core_0_ITLB_load_access 1291175
Core_0_ITLB_load_hit 1291175
Core_0_ITLB_load_miss 0
Core_0_ITLB_load_MPKI 0
Core_0_ITLB_load_miss_rate 0
Core_0_ITLB_rfo_access 0
Core_0_ITLB_rfo_hit 0
Core_0_ITLB_rfo_miss 0
Core_0_ITLB_rfo_MPKI 0
Core_0_ITLB_rfo_miss_rate 0
Core_0_ITLB_prefetch_access 0
Core_0_ITLB_prefetch_hit 0
Core_0_ITLB_prefetch_miss 0
Core_0_ITLB_prefetch_MPKI 0
Core_0_ITLB_prefetch_miss_rate 0
Core_0_ITLB_writeback_access 0
Core_0_ITLB_writeback_hit 0
Core_0_ITLB_writeback_miss 0
Core_0_ITLB_writeback_MPKI 0
Core_0_ITLB_writeback_miss_rate 0
Core_0_ITLB_prefetch_requested 0
Core_0_ITLB_prefetch_issued 0
Core_0_ITLB_prefetch_useful 0
Core_0_ITLB_prefetch_useless 0
Core_0_ITLB_prefetch_late 0
Core_0_ITLB_prefetch_fill 0
Core_0_ITLB_prefetch_too_early 0
Core_0_ITLB_prefetch_too_early_among_fill 0
Core_0_ITLB_prefetch_too_early_among_useless 0
Core_0_ITLB_prefetch_pollution_evict 0
Core_0_ITLB_prefetch_pollution_demand 0
Core_0_ITLB_prefetch_pollution_among_prefetch_fill 0
Core_0_ITLB_prefetch_accuracy 0
Core_0_ITLB_prefetch_coverage 0

Core_0_DTLB_total_access 35286150
Core_0_DTLB_total_hit 34170505
Core_0_DTLB_total_miss 1115645
Core_0_DTLB_total_MPKI 11.1564
Core_0_DTLB_total_miss_rate 0.0316171
Core_0_DTLB_demand_access 35286150
Core_0_DTLB_demand_hit 34170505
Core_0_DTLB_demand_miss 1115645
Core_0_DTLB_demand_MPKI 11.1564
Core_0_DTLB_demand_miss_rate 0.0316171
Core_0_DTLB_load_access 35286150
Core_0_DTLB_load_hit 34170505
Core_0_DTLB_load_miss 1115645
Core_0_DTLB_load_MPKI 11.1564
Core_0_DTLB_load_miss_rate 0.0316171
Core_0_DTLB_rfo_access 0
Core_0_DTLB_rfo_hit 0
Core_0_DTLB_rfo_miss 0
Core_0_DTLB_rfo_MPKI 0
Core_0_DTLB_rfo_miss_rate 0
Core_0_DTLB_prefetch_access 0
Core_0_DTLB_prefetch_hit 0
Core_0_DTLB_prefetch_miss 0
Core_0_DTLB_prefetch_MPKI 0
Core_0_DTLB_prefetch_miss_rate 0
Core_0_DTLB_writeback_access 0
Core_0_DTLB_writeback_hit 0
Core_0_DTLB_writeback_miss 0
Core_0_DTLB_writeback_MPKI 0
Core_0_DTLB_writeback_miss_rate 0
Core_0_DTLB_prefetch_requested 0
Core_0_DTLB_prefetch_issued 0
Core_0_DTLB_prefetch_useful 0
Core_0_DTLB_prefetch_useless 0
Core_0_DTLB_prefetch_late 0
Core_0_DTLB_prefetch_fill 0
Core_0_DTLB_prefetch_too_early 0
Core_0_DTLB_prefetch_too_early_among_fill 0
Core_0_DTLB_prefetch_too_early_among_useless 0
Core_0_DTLB_prefetch_pollution_evict 0
Core_0_DTLB_prefetch_pollution_demand 0
Core_0_DTLB_prefetch_pollution_among_prefetch_fill 0
Core_0_DTLB_prefetch_accuracy 0
Core_0_DTLB_prefetch_coverage 0

Core_0_STLB_total_access 1031925
Core_0_STLB_total_hit 929071
Core_0_STLB_total_miss 102854
Core_0_STLB_total_MPKI 1.02854
Core_0_STLB_total_miss_rate 0.099672
Core_0_STLB_demand_access 1031925
Core_0_STLB_demand_hit 929071
Core_0_STLB_demand_miss 102854
Core_0_STLB_demand_MPKI 1.02854
Core_0_STLB_demand_miss_rate 0.099672
Core_0_STLB_load_access 1031925
Core_0_STLB_load_hit 929071
Core_0_STLB_load_miss 102854
Core_0_STLB_load_MPKI 1.02854
Core_0_STLB_load_miss_rate 0.099672
Core_0_STLB_rfo_access 0
Core_0_STLB_rfo_hit 0
Core_0_STLB_rfo_miss 0
Core_0_STLB_rfo_MPKI 0
Core_0_STLB_rfo_miss_rate 0
Core_0_STLB_prefetch_access 0
Core_0_STLB_prefetch_hit 0
Core_0_STLB_prefetch_miss 0
Core_0_STLB_prefetch_MPKI 0
Core_0_STLB_prefetch_miss_rate 0
Core_0_STLB_writeback_access 0
Core_0_STLB_writeback_hit 0
Core_0_STLB_writeback_miss 0
Core_0_STLB_writeback_MPKI 0
Core_0_STLB_writeback_miss_rate 0
Core_0_STLB_prefetch_requested 0
Core_0_STLB_prefetch_issued 0
Core_0_STLB_prefetch_useful 0
Core_0_STLB_prefetch_useless 0
Core_0_STLB_prefetch_late 0
Core_0_STLB_prefetch_fill 0
Core_0_STLB_prefetch_too_early 0
Core_0_STLB_prefetch_too_early_among_fill 0
Core_0_STLB_prefetch_too_early_among_useless 0
Core_0_STLB_prefetch_pollution_evict 0
Core_0_STLB_prefetch_pollution_demand 0
Core_0_STLB_prefetch_pollution_among_prefetch_fill 0
Core_0_STLB_prefetch_accuracy 0
Core_0_STLB_prefetch_coverage 0

Core_0_L1I_total_access 1372776
Core_0_L1I_total_hit 1372776
Core_0_L1I_total_miss 0
Core_0_L1I_total_MPKI 0
Core_0_L1I_total_miss_rate 0
Core_0_L1I_demand_access 1372776
Core_0_L1I_demand_hit 1372776
Core_0_L1I_demand_miss 0
Core_0_L1I_demand_MPKI 0
Core_0_L1I_demand_miss_rate 0
Core_0_L1I_load_access 1372776
Core_0_L1I_load_hit 1372776
Core_0_L1I_load_miss 0
Core_0_L1I_load_MPKI 0
Core_0_L1I_load_miss_rate 0
Core_0_L1I_rfo_access 0
Core_0_L1I_rfo_hit 0
Core_0_L1I_rfo_miss 0
Core_0_L1I_rfo_MPKI 0
Core_0_L1I_rfo_miss_rate 0
Core_0_L1I_prefetch_access 0
Core_0_L1I_prefetch_hit 0
Core_0_L1I_prefetch_miss 0
Core_0_L1I_prefetch_MPKI 0
Core_0_L1I_prefetch_miss_rate 0
Core_0_L1I_writeback_access 0
Core_0_L1I_writeback_hit 0
Core_0_L1I_writeback_miss 0
Core_0_L1I_writeback_MPKI 0
Core_0_L1I_writeback_miss_rate 0
Core_0_L1I_prefetch_requested 0
Core_0_L1I_prefetch_issued 0
Core_0_L1I_prefetch_useful 0
Core_0_L1I_prefetch_useless 0
Core_0_L1I_prefetch_late 0
Core_0_L1I_prefetch_fill 0
Core_0_L1I_prefetch_too_early 0
Core_0_L1I_prefetch_too_early_among_fill 0
Core_0_L1I_prefetch_too_early_among_useless 0
Core_0_L1I_prefetch_pollution_evict 0
Core_0_L1I_prefetch_pollution_demand 0
Core_0_L1I_prefetch_pollution_among_prefetch_fill 0
Core_0_L1I_prefetch_accuracy 0
Core_0_L1I_prefetch_coverage 0

Core_0_L1D_total_access 36416693
Core_0_L1D_total_hit 32715392
Core_0_L1D_total_miss 3701301
Core_0_L1D_total_MPKI 37.013
Core_0_L1D_total_miss_rate 0.101637
Core_0_L1D_demand_access 24110142
Core_0_L1D_demand_hit 21148051
Core_0_L1D_demand_miss 2962091
Core_0_L1D_demand_MPKI 29.6209
Core_0_L1D_demand_miss_rate 0.122857
Core_0_L1D_load_access 24110142
Core_0_L1D_load_hit 21148051
Core_0_L1D_load_miss 2962091
Core_0_L1D_load_MPKI 29.6209
Core_0_L1D_load_miss_rate 0.122857
Core_0_L1D_rfo_access 0
Core_0_L1D_rfo_hit 0
Core_0_L1D_rfo_miss 0
Core_0_L1D_rfo_MPKI 0
Core_0_L1D_rfo_miss_rate 0
Core_0_L1D_prefetch_access 0
Core_0_L1D_prefetch_hit 0
Core_0_L1D_prefetch_miss 0
Core_0_L1D_prefetch_MPKI 0
Core_0_L1D_prefetch_miss_rate 0
Core_0_L1D_writeback_access 12306551
Core_0_L1D_writeback_hit 11567341
Core_0_L1D_writeback_miss 739210
Core_0_L1D_writeback_MPKI 7.3921
Core_0_L1D_writeback_miss_rate 0.0600664
Core_0_L1D_prefetch_requested 0
Core_0_L1D_prefetch_issued 0
Core_0_L1D_prefetch_useful 0
Core_0_L1D_prefetch_useless 0
Core_0_L1D_prefetch_late 0
Core_0_L1D_prefetch_fill 0
Core_0_L1D_prefetch_too_early 0
Core_0_L1D_prefetch_too_early_among_fill 0
Core_0_L1D_prefetch_too_early_among_useless 0
Core_0_L1D_prefetch_pollution_evict 0
Core_0_L1D_prefetch_pollution_demand 0
Core_0_L1D_prefetch_pollution_among_prefetch_fill 0
Core_0_L1D_prefetch_accuracy 0
Core_0_L1D_prefetch_coverage 0

Core_0_L2C_total_access 4417511
Core_0_L2C_total_hit 2596652
Core_0_L2C_total_miss 1820859
Core_0_L2C_total_MPKI 18.2086
Core_0_L2C_total_miss_rate 0.412191
Core_0_L2C_demand_access 2653895
Core_0_L2C_demand_hit 1273025
Core_0_L2C_demand_miss 1380870
Core_0_L2C_demand_MPKI 13.8087
Core_0_L2C_demand_miss_rate 0.520318
Core_0_L2C_load_access 2363170
Core_0_L2C_load_hit 1149379
Core_0_L2C_load_miss 1213791
Core_0_L2C_load_MPKI 12.1379
Core_0_L2C_load_miss_rate 0.513628
Core_0_L2C_rfo_access 290725
Core_0_L2C_rfo_hit 123646
Core_0_L2C_rfo_miss 167079
Core_0_L2C_rfo_MPKI 1.67079
Core_0_L2C_rfo_miss_rate 0.574698
Core_0_L2C_prefetch_access 1306239
Core_0_L2C_prefetch_hit 866294
Core_0_L2C_prefetch_miss 439945
Core_0_L2C_prefetch_MPKI 4.39945
Core_0_L2C_prefetch_miss_rate 0.336803
Core_0_L2C_writeback_access 457377
Core_0_L2C_writeback_hit 457333
Core_0_L2C_writeback_miss 44
Core_0_L2C_writeback_MPKI 0.00044
Core_0_L2C_writeback_miss_rate 9.62007e-05
Core_0_L2C_prefetch_requested 1341226
Core_0_L2C_prefetch_issued 1306239
Core_0_L2C_prefetch_useful 344862
Core_0_L2C_prefetch_useless 458
Core_0_L2C_prefetch_late 55267
Core_0_L2C_prefetch_fill 290045
Core_0_L2C_prefetch_too_early 234
Core_0_L2C_prefetch_too_early_among_fill 0.000806771
Core_0_L2C_prefetch_too_early_among_useless 0.510917
Core_0_L2C_prefetch_pollution_evict 117027
Core_0_L2C_prefetch_pollution_demand 117002
Core_0_L2C_prefetch_pollution_among_prefetch_fill 0.403479
Core_0_L2C_prefetch_accuracy 0.264011
Core_0_L2C_prefetch_coverage 0.199835

Core_0_LLC_total_access 1972595
Core_0_LLC_total_hit 851412
Core_0_LLC_total_miss 1121183
Core_0_LLC_total_MPKI 11.2118
Core_0_LLC_total_miss_rate 0.56838
Core_0_LLC_demand_access 1325603
Core_0_LLC_demand_hit 496949
Core_0_LLC_demand_miss 828654
Core_0_LLC_demand_MPKI 8.28654
Core_0_LLC_demand_miss_rate 0.625115
Core_0_LLC_load_access 1158525
Core_0_LLC_load_hit 412287
Core_0_LLC_load_miss 746238
Core_0_LLC_load_MPKI 7.46238
Core_0_LLC_load_miss_rate 0.644128
Core_0_LLC_rfo_access 167078
Core_0_LLC_rfo_hit 84662
Core_0_LLC_rfo_miss 82416
Core_0_LLC_rfo_MPKI 0.82416
Core_0_LLC_rfo_miss_rate 0.493279
Core_0_LLC_prefetch_access 359656
Core_0_LLC_prefetch_hit 136399
Core_0_LLC_prefetch_miss 223257
Core_0_LLC_prefetch_MPKI 2.23257
Core_0_LLC_prefetch_miss_rate 0.620751
Core_0_LLC_writeback_access 287336
Core_0_LLC_writeback_hit 218064
Core_0_LLC_writeback_miss 69272
Core_0_LLC_writeback_MPKI 0.69272
Core_0_LLC_writeback_miss_rate 0.241084
Core_0_LLC_prefetch_requested 0
Core_0_LLC_prefetch_issued 0
Core_0_LLC_prefetch_useful 0
Core_0_LLC_prefetch_useless 0
Core_0_LLC_prefetch_late 0
Core_0_LLC_prefetch_fill 213880
Core_0_LLC_prefetch_too_early 0
Core_0_LLC_prefetch_too_early_among_fill 0
Core_0_LLC_prefetch_too_early_among_useless 0
Core_0_LLC_prefetch_pollution_evict 108045
Core_0_LLC_prefetch_pollution_demand 108045
Core_0_LLC_prefetch_pollution_among_prefetch_fill 0.505166
Core_0_LLC_prefetch_accuracy 0
Core_0_LLC_prefetch_coverage 0

[DRAM Statistics]
Channel_0_RQ_row_buffer_hit 18499
Channel_0_RQ_row_buffer_miss 1024981
Channel_0_WQ_row_buffer_hit 35080
Channel_0_WQ_row_buffer_miss 112066
Channel_0_WQ_full 408
Channel_0_dbus_congested 2452339
DRAM_total_RQ_row_buffer_hit 18499
DRAM_total_RQ_row_buffer_miss 1024981
DRAM_total_WQ_row_buffer_hit 35080
DRAM_total_WQ_row_buffer_miss 112066
DRAM_total_WQ_full 408
DRAM_total_dbus_congested 2452339
DRAM_avg_congested_cycle 12.9847

====== DRAM_RQ_TRAFFIC ========
DRAM_RQ_READ_TRAFFIC_BREAKDOWN:
data_demand_read.count = 825609
data_demand_read.share = 79.07%

inst_demand_read.count = 0
inst_demand_read.share = 0.00%

cache_inst_prefetch.count = 0
cache_inst_prefetch.share = 0.00%

cache_data_prefetch.count = 216925
cache_data_prefetch.share = 20.78%

stlb_data_demand.count = 1591
stlb_data_demand.share = 0.15%

stlb_inst_demand.count = 0
stlb_inst_demand.share = 0.00%

stlb_l1i_pref.count = 0
stlb_l1i_pref.share = 0.00%

stlb_l1d_pref.count = 0
stlb_l1d_pref.share = 0.00%

DRAM_RQ_READ_TRAFFIC_SUMMARY:
cache_demand.count = 825609
cache_demand.share = 79.07%

cache_prefetch.count = 216925
cache_prefetch.share = 20.78%

stlb_demand.count = 1591
stlb_demand.share = 0.15%

stlb_prefetch.count = 0
stlb_prefetch.share = 0.00%

DRAM_RQ_READ_TRAFFIC_DEBUG:
total_classified_read.count = 1044125
unclassified_read.count = 0
total_read_with_other.count = 1044125

classified_plus_unclassified_check.count = 1044125
dram_rq_read_total_observed.count = 1044125
dram_rq_read_total_observed.per_1K_instructions = 10.4412

STLB_MISS_PTW_DRAM_TOUCH_BREAKDOWN:
stlb_miss_total.count = 102854

stlb_miss_touch_dram.count = 1586
stlb_miss_touch_dram.share = 1.54%

stlb_miss_no_dram_touch.count = 101268
stlb_miss_no_dram_touch.share = 98.46%

STLB_MISS_PTW_DRAM_TOUCH_DEBUG:
stlb_miss_touch_plus_no_touch.count = 102854
stlb_miss_total_check.count = 102854

======STLB miss causes ========
Core_0_STLB_miss_cause_breakdown
Core_0_STLB_cause_Demand_Data_miss 102854
Core_0_STLB_cause_Demand_Data_miss_rate 0.099672
Core_0_STLB_cause_Demand_Instruction_miss 0
Core_0_STLB_cause_Demand_Instruction_miss_rate 0
Core_0_STLB_cause_L1D_Prefetch_miss 0
Core_0_STLB_cause_L1D_Prefetch_miss_rate 0
Core_0_STLB_cause_L1D_Prefetch_Same_Page_miss 0
Core_0_STLB_cause_L1D_Prefetch_Same_Page_miss_rate 0
Core_0_STLB_cause_L1D_Prefetch_Cross_Page_miss 0
Core_0_STLB_cause_L1D_Prefetch_Cross_Page_miss_rate 0
Core_0_STLB_cause_L1I_Prefetch_miss 0
Core_0_STLB_cause_L1I_Prefetch_miss_rate 0
Core_0_STLB_cause_Other_miss 0
Core_0_STLB_cause_Other_miss_rate 0
Core_0_STLB_Demand_miss 102854
Core_0_STLB_Demand_miss_rate 0.099672
Core_0_STLB_L1D_Prefetch_miss 0
Core_0_STLB_L1D_Prefetch_miss_rate 0
Core_0_STLB_Other_miss 0
Core_0_STLB_Other_miss_rate 0

========== vBerti-TLB Cross-page Flow Stats ==========

Core_0_vBerti_Requested 0
Core_0_vBerti_Cross_page_prefetch_in_Requested 0
Core_0_vBerti_Same_page_prefetch_in_Requested 0
Core_0_vBerti_Cross_page_prefetch_of_Requested 0
Core_0_vBerti_Issued 0
Core_0_vBerti_PQ_Drop_Rate 0
Core_0_vBerti_InPQ_Cross_page_prefetch_of_Requested 0
Core_0_vBerti_Cross_page_PQ_Drop_rate 0
Core_0_vBerti_Cross_page_prefetch_of_Issued 0

========= DTLB_vBerti Prefetch Stats =========
Core_0_DTLB_demand_access 35286150
Core_0_DTLB_demand_hit 34170505
Core_0_DTLB_demand_miss 1115645
Core_0_DTLB_demand_mshr_merge 83720
Core_0_DTLB_demand_fill 1031925
Core_0_DTLB_demand_miss_rate 0.0316171
Core_0_DTLB_demand_mpki 11.1564
Core_0_DTLB_vberti_prefetch_access 0
Core_0_DTLB_vberti_prefetch_hit 0
Core_0_DTLB_vberti_prefetch_miss 0
Core_0_DTLB_vberti_prefetch_mshr_merge 0
Core_0_DTLB_vberti_prefetch_fill 0
Core_0_DTLB_vberti_prefetch_miss_rate 0
Core_0_DTLB_vberti_prefetch_mpki 0

=== DTLB_vBerti Same/Cross-page Prefetch Stats ===
Core_0_DTLB_vberti_same_page_prefetch 0
Core_0_DTLB_vberti_same_page_prefetch_hit 0
Core_0_DTLB_vberti_same_page_prefetch_miss 0
Core_0_DTLB_vberti_same_page_prefetch_mshr_merge 0
Core_0_DTLB_vberti_same_page_prefetch_fill 0
Core_0_DTLB_vberti_same_page_prefetch_miss_rate 0
Core_0_DTLB_vberti_same_page_prefetch_mpki 0
Core_0_DTLB_vberti_cross_page_prefetch 0
Core_0_DTLB_vberti_cross_page_prefetch_hit 0
Core_0_DTLB_vberti_cross_page_prefetch_miss 0
Core_0_DTLB_vberti_cross_page_prefetch_mshr_merge 0
Core_0_DTLB_vberti_cross_page_prefetch_fill 0
Core_0_DTLB_vberti_cross_page_prefetch_miss_rate 0
Core_0_DTLB_vberti_cross_page_prefetch_mpki 0
Core_0_DTLB_same_page_prefetch_miss_rate 0
Core_0_DTLB_same_page_prefetch_mpki 0
Core_0_DTLB_cross_page_prefetch_miss_rate 0
Core_0_DTLB_cross_page_prefetch_mpki 0
Core_0_DTLB_cross_page_prefetch_issued 0
Core_0_DTLB_cross_page_prefetch_lookups 0
Core_0_DTLB_cross_page_prefetch_useful 0
Core_0_DTLB_cross_page_prefetch_useless 0
Core_0_DTLB_cross_page_prefetch_late 0
Core_0_DTLB_cross_page_prefetch_too_early 0
Core_0_DTLB_cross_page_prefetch_too_early_among_fill 0
Core_0_DTLB_cross_page_prefetch_too_early_among_useless 0
Core_0_DTLB_cross_page_prefetch_pollution_evict 0
Core_0_DTLB_cross_page_prefetch_pollution_demand 0
Core_0_DTLB_cross_page_prefetch_pollution_among_prefetch_fill 0
Core_0_DTLB_cross_page_prefetch_accuracy 0
Core_0_DTLB_cross_page_prefetch_coverage 0

========= STLB_vBerti Prefetch Stats =========
Core_0_STLB_demand_access 1031925
Core_0_STLB_demand_hit 929071
Core_0_STLB_demand_miss 102854
Core_0_STLB_demand_mshr_merge 0
Core_0_STLB_demand_fill 102854
Core_0_STLB_demand_miss_rate 0.099672
Core_0_STLB_demand_mpki 1.02854
Core_0_STLB_vberti_prefetch_access 0
Core_0_STLB_vberti_prefetch_hit 0
Core_0_STLB_vberti_prefetch_miss 0
Core_0_STLB_vberti_prefetch_mshr_merge 0
Core_0_STLB_vberti_prefetch_fill 0
Core_0_STLB_vberti_prefetch_miss_rate 0
Core_0_STLB_vberti_prefetch_mpki 0

=== STLB_vBerti Same/Cross-page Prefetch Stats ===
Core_0_STLB_vberti_same_page_prefetch 0
Core_0_STLB_vberti_same_page_prefetch_hit 0
Core_0_STLB_vberti_same_page_prefetch_miss 0
Core_0_STLB_vberti_same_page_prefetch_mshr_merge 0
Core_0_STLB_vberti_same_page_prefetch_fill 0
Core_0_STLB_vberti_same_page_prefetch_miss_rate 0
Core_0_STLB_vberti_same_page_prefetch_mpki 0
Core_0_STLB_vberti_cross_page_prefetch 0
Core_0_STLB_vberti_cross_page_prefetch_hit 0
Core_0_STLB_vberti_cross_page_prefetch_miss 0
Core_0_STLB_vberti_cross_page_prefetch_mshr_merge 0
Core_0_STLB_vberti_cross_page_prefetch_fill 0
Core_0_STLB_vberti_cross_page_prefetch_miss_rate 0
Core_0_STLB_vberti_cross_page_prefetch_mpki 0
Core_0_STLB_same_page_prefetch_miss_rate 0
Core_0_STLB_same_page_prefetch_mpki 0
Core_0_STLB_cross_page_prefetch_miss_rate 0
Core_0_STLB_cross_page_prefetch_mpki 0
Core_0_STLB_cross_page_prefetch_issued 0
Core_0_STLB_cross_page_prefetch_lookups 0
Core_0_STLB_cross_page_prefetch_useful 0
Core_0_STLB_cross_page_prefetch_useless 0
Core_0_STLB_cross_page_prefetch_late 0
Core_0_STLB_cross_page_prefetch_too_early 0
Core_0_STLB_cross_page_prefetch_too_early_among_fill 0
Core_0_STLB_cross_page_prefetch_too_early_among_useless 0
Core_0_STLB_cross_page_prefetch_pollution_evict 0
Core_0_STLB_cross_page_prefetch_pollution_demand 0
Core_0_STLB_cross_page_prefetch_pollution_among_prefetch_fill 0
Core_0_STLB_cross_page_prefetch_accuracy 0
Core_0_STLB_cross_page_prefetch_coverage 0

========= STLB Cross-page Prefetch Buffer Stats =========
Core_0_STLB_raw_demand_miss 102854
Core_0_CP_PB_insert 0
Core_0_CP_PB_demand_hit 0
Core_0_STLB_PB_demand_miss 102854
Core_0_CP_PB_coverage 0
Core_0_STLB_raw_demand_mpki 1.02854
Core_0_STLB_PB_demand_mpki 1.02854
Core_0_CP_PB_demand_hit_mpki 0

Core_0_TLB_demand_miss_rate 0.00291485
Core_0_TLB_demand_mpki 1.02854
Core_0_TLB_same_page_prefetch_miss_rate 0
Core_0_TLB_same_page_prefetch_mpki 0
Core_0_TLB_cross_page_prefetch_miss_rate 0
Core_0_TLB_cross_page_prefetch_mpki 0
Core_0_TLB_cross_page_prefetch_issued 0
Core_0_TLB_cross_page_prefetch_lookups 0
Core_0_TLB_cross_page_prefetch_useful 0
Core_0_TLB_cross_page_prefetch_useless 0
Core_0_TLB_cross_page_prefetch_late 0
Core_0_TLB_cross_page_prefetch_too_early 0
Core_0_TLB_cross_page_prefetch_too_early_among_fill 0
Core_0_TLB_cross_page_prefetch_too_early_among_useless 0
Core_0_TLB_cross_page_prefetch_accuracy 0
Core_0_TLB_cross_page_prefetch_coverage 0
