[VMEM] WARNING: physical memory size is smaller than virtual memory size.

*** ChampSim Multicore Out-of-Order Simulator ***
Warmup Instructions: 50000000
Simulation Instructions: 100000000
Number of CPUs: 1
Page size: 4096
Core 0: /data2/zcq/champsim_traces_xsbench/xs.XXL100nuclide-861B.champsimtrace.xz
Off-chip DRAM Size: 16 GiB Channels: 1 Width: 64-bit Data Rate: 3205 MT/s
Warmup halting CPU 0 at instruction 50000002 cycle 36746676 for remainder of phase
Warmup finished CPU 0 instructions: 50000002 cycles: 36746676 cumulative IPC: 1.361 (Simulation time: 00 hr 05 min 50 sec)
Warmup complete CPU 0 instructions: 50000002 cycles: 36746676 cumulative IPC: 1.361 (Simulation time: 00 hr 05 min 50 sec)
Simulation finished CPU 0 instructions: 100000001 cycles: 691800914 cumulative IPC: 0.1446 (Simulation time: 00 hr 52 min 56 sec)
Simulation complete CPU 0 instructions: 100000001 cycles: 691800914 cumulative IPC: 0.1446 (Simulation time: 00 hr 52 min 56 sec)

ChampSim completed all CPUs

=== Simulation ===
CPU 0 runs /data2/zcq/champsim_traces_xsbench/xs.XXL100nuclide-861B.champsimtrace.xz

Region of Interest Statistics

CPU 0 cumulative IPC: 0.1446 instructions: 100000001 cycles: 691800914
CPU 0 Branch Prediction Accuracy: 87.26% MPKI: 21.5 Average ROB Occupancy at Mispredict: 25.79
Branch type MPKI
BRANCH_DIRECT_JUMP: 0
BRANCH_INDIRECT: 0
BRANCH_CONDITIONAL: 21.5
BRANCH_DIRECT_CALL: 0
BRANCH_INDIRECT_CALL: 0
BRANCH_RETURN: 0

cpu0->cpu0_STLB TOTAL        ACCESS:    3980496 HIT:     124252 MISS:    3856244 MSHR_MERGE:          0
cpu0->cpu0_STLB LOAD         ACCESS:    3980496 HIT:     124252 MISS:    3856244 MSHR_MERGE:          0
cpu0->cpu0_STLB RFO          ACCESS:          0 HIT:          0 MISS:          0 MSHR_MERGE:          0
cpu0->cpu0_STLB PREFETCH     ACCESS:          0 HIT:          0 MISS:          0 MSHR_MERGE:          0
cpu0->cpu0_STLB WRITE        ACCESS:          0 HIT:          0 MISS:          0 MSHR_MERGE:          0
cpu0->cpu0_STLB TRANSLATION  ACCESS:          0 HIT:          0 MISS:          0 MSHR_MERGE:          0
cpu0->cpu0_STLB PREFETCH REQUESTED:          0 ISSUED:          0 USEFUL:          0 USELESS:          0 LATE:          0 TOO_EARLY:          0
cpu0->cpu0_STLB AVERAGE MISS LATENCY: 174.5 cycles
cpu0->cpu0_L2C TOTAL        ACCESS:    9705536 HIT:     611695 MISS:    9093841 MSHR_MERGE:       5050
cpu0->cpu0_L2C LOAD         ACCESS:    6009989 HIT:     225576 MISS:    5784413 MSHR_MERGE:          0
cpu0->cpu0_L2C RFO          ACCESS:      22495 HIT:      21779 MISS:        716 MSHR_MERGE:          0
cpu0->cpu0_L2C PREFETCH     ACCESS:     328470 HIT:     158802 MISS:     169668 MSHR_MERGE:       5050
cpu0->cpu0_L2C WRITE        ACCESS:      27054 HIT:      27036 MISS:         18 MSHR_MERGE:          0
cpu0->cpu0_L2C TRANSLATION  ACCESS:    3317528 HIT:     178502 MISS:    3139026 MSHR_MERGE:          0
cpu0->cpu0_L2C PREFETCH REQUESTED:     328470 ISSUED:     328470 USEFUL:      32159 USELESS:     132474 LATE:          0 TOO_EARLY:         45
cpu0->cpu0_L2C AVERAGE MISS LATENCY: 149.1 cycles
cpu0->cpu0_L1I TOTAL        ACCESS:      21999 HIT:      21999 MISS:          0 MSHR_MERGE:          0
cpu0->cpu0_L1I LOAD         ACCESS:      21999 HIT:      21999 MISS:          0 MSHR_MERGE:          0
cpu0->cpu0_L1I RFO          ACCESS:          0 HIT:          0 MISS:          0 MSHR_MERGE:          0
cpu0->cpu0_L1I PREFETCH     ACCESS:          0 HIT:          0 MISS:          0 MSHR_MERGE:          0
cpu0->cpu0_L1I WRITE        ACCESS:          0 HIT:          0 MISS:          0 MSHR_MERGE:          0
cpu0->cpu0_L1I TRANSLATION  ACCESS:          0 HIT:          0 MISS:          0 MSHR_MERGE:          0
cpu0->cpu0_L1I PREFETCH REQUESTED:          0 ISSUED:          0 USEFUL:          0 USELESS:          0 LATE:          0 TOO_EARLY:          0
cpu0->cpu0_L1I AVERAGE MISS LATENCY: - cycles
cpu0->cpu0_L1D TOTAL        ACCESS:   19835717 HIT:    8545393 MISS:   11290324 MSHR_MERGE:    1940296
cpu0->cpu0_L1D LOAD         ACCESS:    9562858 HIT:    3453610 MISS:    6109248 MSHR_MERGE:      99259
cpu0->cpu0_L1D RFO          ACCESS:          0 HIT:          0 MISS:          0 MSHR_MERGE:          0
cpu0->cpu0_L1D PREFETCH     ACCESS:          0 HIT:          0 MISS:          0 MSHR_MERGE:          0
cpu0->cpu0_L1D WRITE        ACCESS:    1814801 HIT:    1756924 MISS:      57877 MSHR_MERGE:      35366
cpu0->cpu0_L1D TRANSLATION  ACCESS:    8458058 HIT:    3334859 MISS:    5123199 MSHR_MERGE:    1805671
cpu0->cpu0_L1D PREFETCH REQUESTED:          0 ISSUED:          0 USEFUL:          0 USELESS:          0 LATE:          0 TOO_EARLY:          0
cpu0->cpu0_L1D AVERAGE MISS LATENCY: 151.4 cycles
cpu0->cpu0_ITLB TOTAL        ACCESS:      17884 HIT:      17884 MISS:          0 MSHR_MERGE:          0
cpu0->cpu0_ITLB LOAD         ACCESS:      17884 HIT:      17884 MISS:          0 MSHR_MERGE:          0
cpu0->cpu0_ITLB RFO          ACCESS:          0 HIT:          0 MISS:          0 MSHR_MERGE:          0
cpu0->cpu0_ITLB PREFETCH     ACCESS:          0 HIT:          0 MISS:          0 MSHR_MERGE:          0
cpu0->cpu0_ITLB WRITE        ACCESS:          0 HIT:          0 MISS:          0 MSHR_MERGE:          0
cpu0->cpu0_ITLB TRANSLATION  ACCESS:          0 HIT:          0 MISS:          0 MSHR_MERGE:          0
cpu0->cpu0_ITLB PREFETCH REQUESTED:          0 ISSUED:          0 USEFUL:          0 USELESS:          0 LATE:          0 TOO_EARLY:          0
cpu0->cpu0_ITLB AVERAGE MISS LATENCY: - cycles
cpu0->cpu0_DTLB TOTAL        ACCESS:   11268455 HIT:    7086378 MISS:    4182077 MSHR_MERGE:     201581
cpu0->cpu0_DTLB LOAD         ACCESS:   11268455 HIT:    7086378 MISS:    4182077 MSHR_MERGE:     201581
cpu0->cpu0_DTLB RFO          ACCESS:          0 HIT:          0 MISS:          0 MSHR_MERGE:          0
cpu0->cpu0_DTLB PREFETCH     ACCESS:          0 HIT:          0 MISS:          0 MSHR_MERGE:          0
cpu0->cpu0_DTLB WRITE        ACCESS:          0 HIT:          0 MISS:          0 MSHR_MERGE:          0
cpu0->cpu0_DTLB TRANSLATION  ACCESS:          0 HIT:          0 MISS:          0 MSHR_MERGE:          0
cpu0->cpu0_DTLB PREFETCH REQUESTED:          0 ISSUED:          0 USEFUL:          0 USELESS:          0 LATE:          0 TOO_EARLY:          0
cpu0->cpu0_DTLB AVERAGE MISS LATENCY: 175.1 cycles
cpu0->LLC TOTAL        ACCESS:    9091561 HIT:    3056139 MISS:    6035422 MSHR_MERGE:          0
cpu0->LLC LOAD         ACCESS:    5784413 HIT:    1343140 MISS:    4441273 MSHR_MERGE:          0
cpu0->LLC RFO          ACCESS:        716 HIT:        714 MISS:          2 MSHR_MERGE:          0
cpu0->LLC PREFETCH     ACCESS:     164618 HIT:      39109 MISS:     125509 MSHR_MERGE:          0
cpu0->LLC WRITE        ACCESS:       2788 HIT:       2766 MISS:         22 MSHR_MERGE:          0
cpu0->LLC TRANSLATION  ACCESS:    3139026 HIT:    1670410 MISS:    1468616 MSHR_MERGE:          0
cpu0->LLC PREFETCH REQUESTED:          0 ISSUED:          0 USEFUL:          0 USELESS:          0 LATE:          0 TOO_EARLY:          0
cpu0->LLC AVERAGE MISS LATENCY: 201.5 cycles

DRAM Statistics

Channel 0 RQ ROW_BUFFER_HIT:      30738
  ROW_BUFFER_MISS:    6004662
  AVG DBUS CONGESTED CYCLE: 2.933
Channel 0 WQ ROW_BUFFER_HIT:          5
  ROW_BUFFER_MISS:         17
  FULL:          0
Channel 0 REFRESHES ISSUED:      57650

[ROI Statistics]
[System Configuration]
num_cpus 1
cpu_freq 4000
fetch_width 6
decode_width 6
dispatch_width 6
execute_width 6
lq_width 2
sq_width 2
retire_width 6
scheduler_size 128
branch_mispredict_penalty 15
rob_size 352
lq_size 128
sq_size 72
ifetch_buffer_size 64
decode_buffer_size 32
dispatch_buffer_size 32
register_file_size 288
decode_latency 1
dispatch_latency 1
schedule_latency 1
execute_latency 1
page_size 4096
block_size 64
core_0_itlb_set 16
core_0_itlb_way 4
core_0_itlb_rq_size 16
core_0_itlb_wq_size 16
core_0_itlb_pq_size 0
core_0_itlb_mshr_size 8
core_0_itlb_hit_latency 1
core_0_itlb_fill_latency 1
core_0_itlb_max_tag_check 2
core_0_itlb_max_fill 2
core_0_dtlb_set 16
core_0_dtlb_way 4
core_0_dtlb_rq_size 16
core_0_dtlb_wq_size 16
core_0_dtlb_pq_size 0
core_0_dtlb_mshr_size 8
core_0_dtlb_hit_latency 1
core_0_dtlb_fill_latency 1
core_0_dtlb_max_tag_check 2
core_0_dtlb_max_fill 2
core_0_stlb_set 128
core_0_stlb_way 12
core_0_stlb_rq_size 32
core_0_stlb_wq_size 32
core_0_stlb_pq_size 0
core_0_stlb_mshr_size 16
core_0_stlb_hit_latency 4
core_0_stlb_fill_latency 4
core_0_stlb_max_tag_check 1
core_0_stlb_max_fill 1
core_0_l1i_set 64
core_0_l1i_way 8
core_0_l1i_rq_size 64
core_0_l1i_wq_size 64
core_0_l1i_pq_size 32
core_0_l1i_mshr_size 8
core_0_l1i_hit_latency 2
core_0_l1i_fill_latency 2
core_0_l1i_max_tag_check 2
core_0_l1i_max_fill 2
core_0_l1d_set 64
core_0_l1d_way 12
core_0_l1d_rq_size 64
core_0_l1d_wq_size 64
core_0_l1d_pq_size 8
core_0_l1d_mshr_size 16
core_0_l1d_hit_latency 2
core_0_l1d_fill_latency 3
core_0_l1d_max_tag_check 2
core_0_l1d_max_fill 2
core_0_l2c_set 1024
core_0_l2c_way 8
core_0_l2c_rq_size 32
core_0_l2c_wq_size 32
core_0_l2c_pq_size 16
core_0_l2c_mshr_size 32
core_0_l2c_hit_latency 5
core_0_l2c_fill_latency 5
core_0_l2c_max_tag_check 1
core_0_l2c_max_fill 1
llc_set 2048
llc_way 16
llc_rq_size 32
llc_wq_size 32
llc_pq_size 32
llc_mshr_size 64
llc_hit_latency 10
llc_fill_latency 10
llc_max_tag_check 1
llc_max_fill 1
dram_channels 1
dram_ranks 1
dram_bankgroups 8
dram_banks 4
dram_rows 65536
dram_columns 1024
dram_channel_width 8
dram_rq_size 64
dram_wq_size 64
dram_size 17179869184
core_0_itlb_prefetcher no
core_0_dtlb_prefetcher no
core_0_stlb_prefetcher no
core_0_l1i_prefetcher next_line
core_0_l1d_prefetcher no
core_0_l2c_prefetcher ip_stride
llc_prefetcher no
llc_replacement drrip

Core_0_instructions 100000001
Core_0_cycles 691800914
Core_0_IPC 0.14455
Core_0_branch_prediction_accuracy 87.2628
Core_0_branch_MPKI 21.5018
Core_0_average_ROB_occupancy_at_mispredict 25.7891

Core_0_ITLB_total_access 17884
Core_0_ITLB_total_hit 17884
Core_0_ITLB_total_miss 0
Core_0_ITLB_total_MPKI 0
Core_0_ITLB_total_miss_rate 0
Core_0_ITLB_demand_access 17884
Core_0_ITLB_demand_hit 17884
Core_0_ITLB_demand_miss 0
Core_0_ITLB_demand_MPKI 0
Core_0_ITLB_demand_miss_rate 0
Core_0_ITLB_load_access 17884
Core_0_ITLB_load_hit 17884
Core_0_ITLB_load_miss 0
Core_0_ITLB_load_MPKI 0
Core_0_ITLB_load_miss_rate 0
Core_0_ITLB_rfo_access 0
Core_0_ITLB_rfo_hit 0
Core_0_ITLB_rfo_miss 0
Core_0_ITLB_rfo_MPKI 0
Core_0_ITLB_rfo_miss_rate 0
Core_0_ITLB_prefetch_access 0
Core_0_ITLB_prefetch_hit 0
Core_0_ITLB_prefetch_miss 0
Core_0_ITLB_prefetch_MPKI 0
Core_0_ITLB_prefetch_miss_rate 0
Core_0_ITLB_writeback_access 0
Core_0_ITLB_writeback_hit 0
Core_0_ITLB_writeback_miss 0
Core_0_ITLB_writeback_MPKI 0
Core_0_ITLB_writeback_miss_rate 0
Core_0_ITLB_prefetch_requested 0
Core_0_ITLB_prefetch_issued 0
Core_0_ITLB_prefetch_useful 0
Core_0_ITLB_prefetch_useless 0
Core_0_ITLB_prefetch_late 0
Core_0_ITLB_prefetch_fill 0
Core_0_ITLB_prefetch_too_early 0
Core_0_ITLB_prefetch_too_early_among_fill 0
Core_0_ITLB_prefetch_too_early_among_useless 0
Core_0_ITLB_prefetch_pollution_evict 0
Core_0_ITLB_prefetch_pollution_demand 0
Core_0_ITLB_prefetch_pollution_among_prefetch_fill 0
Core_0_ITLB_prefetch_accuracy 0
Core_0_ITLB_prefetch_coverage 0

Core_0_DTLB_total_access 11268455
Core_0_DTLB_total_hit 7086378
Core_0_DTLB_total_miss 4182077
Core_0_DTLB_total_MPKI 41.8208
Core_0_DTLB_total_miss_rate 0.371131
Core_0_DTLB_demand_access 11268455
Core_0_DTLB_demand_hit 7086378
Core_0_DTLB_demand_miss 4182077
Core_0_DTLB_demand_MPKI 41.8208
Core_0_DTLB_demand_miss_rate 0.371131
Core_0_DTLB_load_access 11268455
Core_0_DTLB_load_hit 7086378
Core_0_DTLB_load_miss 4182077
Core_0_DTLB_load_MPKI 41.8208
Core_0_DTLB_load_miss_rate 0.371131
Core_0_DTLB_rfo_access 0
Core_0_DTLB_rfo_hit 0
Core_0_DTLB_rfo_miss 0
Core_0_DTLB_rfo_MPKI 0
Core_0_DTLB_rfo_miss_rate 0
Core_0_DTLB_prefetch_access 0
Core_0_DTLB_prefetch_hit 0
Core_0_DTLB_prefetch_miss 0
Core_0_DTLB_prefetch_MPKI 0
Core_0_DTLB_prefetch_miss_rate 0
Core_0_DTLB_writeback_access 0
Core_0_DTLB_writeback_hit 0
Core_0_DTLB_writeback_miss 0
Core_0_DTLB_writeback_MPKI 0
Core_0_DTLB_writeback_miss_rate 0
Core_0_DTLB_prefetch_requested 0
Core_0_DTLB_prefetch_issued 0
Core_0_DTLB_prefetch_useful 0
Core_0_DTLB_prefetch_useless 0
Core_0_DTLB_prefetch_late 0
Core_0_DTLB_prefetch_fill 0
Core_0_DTLB_prefetch_too_early 0
Core_0_DTLB_prefetch_too_early_among_fill 0
Core_0_DTLB_prefetch_too_early_among_useless 0
Core_0_DTLB_prefetch_pollution_evict 0
Core_0_DTLB_prefetch_pollution_demand 0
Core_0_DTLB_prefetch_pollution_among_prefetch_fill 0
Core_0_DTLB_prefetch_accuracy 0
Core_0_DTLB_prefetch_coverage 0

Core_0_STLB_total_access 3980496
Core_0_STLB_total_hit 124252
Core_0_STLB_total_miss 3856244
Core_0_STLB_total_MPKI 38.5624
Core_0_STLB_total_miss_rate 0.968785
Core_0_STLB_demand_access 3980496
Core_0_STLB_demand_hit 124252
Core_0_STLB_demand_miss 3856244
Core_0_STLB_demand_MPKI 38.5624
Core_0_STLB_demand_miss_rate 0.968785
Core_0_STLB_load_access 3980496
Core_0_STLB_load_hit 124252
Core_0_STLB_load_miss 3856244
Core_0_STLB_load_MPKI 38.5624
Core_0_STLB_load_miss_rate 0.968785
Core_0_STLB_rfo_access 0
Core_0_STLB_rfo_hit 0
Core_0_STLB_rfo_miss 0
Core_0_STLB_rfo_MPKI 0
Core_0_STLB_rfo_miss_rate 0
Core_0_STLB_prefetch_access 0
Core_0_STLB_prefetch_hit 0
Core_0_STLB_prefetch_miss 0
Core_0_STLB_prefetch_MPKI 0
Core_0_STLB_prefetch_miss_rate 0
Core_0_STLB_writeback_access 0
Core_0_STLB_writeback_hit 0
Core_0_STLB_writeback_miss 0
Core_0_STLB_writeback_MPKI 0
Core_0_STLB_writeback_miss_rate 0
Core_0_STLB_prefetch_requested 0
Core_0_STLB_prefetch_issued 0
Core_0_STLB_prefetch_useful 0
Core_0_STLB_prefetch_useless 0
Core_0_STLB_prefetch_late 0
Core_0_STLB_prefetch_fill 0
Core_0_STLB_prefetch_too_early 0
Core_0_STLB_prefetch_too_early_among_fill 0
Core_0_STLB_prefetch_too_early_among_useless 0
Core_0_STLB_prefetch_pollution_evict 0
Core_0_STLB_prefetch_pollution_demand 0
Core_0_STLB_prefetch_pollution_among_prefetch_fill 0
Core_0_STLB_prefetch_accuracy 0
Core_0_STLB_prefetch_coverage 0

Core_0_L1I_total_access 21999
Core_0_L1I_total_hit 21999
Core_0_L1I_total_miss 0
Core_0_L1I_total_MPKI 0
Core_0_L1I_total_miss_rate 0
Core_0_L1I_demand_access 21999
Core_0_L1I_demand_hit 21999
Core_0_L1I_demand_miss 0
Core_0_L1I_demand_MPKI 0
Core_0_L1I_demand_miss_rate 0
Core_0_L1I_load_access 21999
Core_0_L1I_load_hit 21999
Core_0_L1I_load_miss 0
Core_0_L1I_load_MPKI 0
Core_0_L1I_load_miss_rate 0
Core_0_L1I_rfo_access 0
Core_0_L1I_rfo_hit 0
Core_0_L1I_rfo_miss 0
Core_0_L1I_rfo_MPKI 0
Core_0_L1I_rfo_miss_rate 0
Core_0_L1I_prefetch_access 0
Core_0_L1I_prefetch_hit 0
Core_0_L1I_prefetch_miss 0
Core_0_L1I_prefetch_MPKI 0
Core_0_L1I_prefetch_miss_rate 0
Core_0_L1I_writeback_access 0
Core_0_L1I_writeback_hit 0
Core_0_L1I_writeback_miss 0
Core_0_L1I_writeback_MPKI 0
Core_0_L1I_writeback_miss_rate 0
Core_0_L1I_prefetch_requested 0
Core_0_L1I_prefetch_issued 0
Core_0_L1I_prefetch_useful 0
Core_0_L1I_prefetch_useless 0
Core_0_L1I_prefetch_late 0
Core_0_L1I_prefetch_fill 0
Core_0_L1I_prefetch_too_early 0
Core_0_L1I_prefetch_too_early_among_fill 0
Core_0_L1I_prefetch_too_early_among_useless 0
Core_0_L1I_prefetch_pollution_evict 0
Core_0_L1I_prefetch_pollution_demand 0
Core_0_L1I_prefetch_pollution_among_prefetch_fill 0
Core_0_L1I_prefetch_accuracy 0
Core_0_L1I_prefetch_coverage 0

Core_0_L1D_total_access 11377659
Core_0_L1D_total_hit 5210534
Core_0_L1D_total_miss 6167125
Core_0_L1D_total_MPKI 61.6712
Core_0_L1D_total_miss_rate 0.542038
Core_0_L1D_demand_access 9562858
Core_0_L1D_demand_hit 3453610
Core_0_L1D_demand_miss 6109248
Core_0_L1D_demand_MPKI 61.0925
Core_0_L1D_demand_miss_rate 0.638852
Core_0_L1D_load_access 9562858
Core_0_L1D_load_hit 3453610
Core_0_L1D_load_miss 6109248
Core_0_L1D_load_MPKI 61.0925
Core_0_L1D_load_miss_rate 0.638852
Core_0_L1D_rfo_access 0
Core_0_L1D_rfo_hit 0
Core_0_L1D_rfo_miss 0
Core_0_L1D_rfo_MPKI 0
Core_0_L1D_rfo_miss_rate 0
Core_0_L1D_prefetch_access 0
Core_0_L1D_prefetch_hit 0
Core_0_L1D_prefetch_miss 0
Core_0_L1D_prefetch_MPKI 0
Core_0_L1D_prefetch_miss_rate 0
Core_0_L1D_writeback_access 1814801
Core_0_L1D_writeback_hit 1756924
Core_0_L1D_writeback_miss 57877
Core_0_L1D_writeback_MPKI 0.57877
Core_0_L1D_writeback_miss_rate 0.0318917
Core_0_L1D_prefetch_requested 0
Core_0_L1D_prefetch_issued 0
Core_0_L1D_prefetch_useful 0
Core_0_L1D_prefetch_useless 0
Core_0_L1D_prefetch_late 0
Core_0_L1D_prefetch_fill 0
Core_0_L1D_prefetch_too_early 0
Core_0_L1D_prefetch_too_early_among_fill 0
Core_0_L1D_prefetch_too_early_among_useless 0
Core_0_L1D_prefetch_pollution_evict 0
Core_0_L1D_prefetch_pollution_demand 0
Core_0_L1D_prefetch_pollution_among_prefetch_fill 0
Core_0_L1D_prefetch_accuracy 0
Core_0_L1D_prefetch_coverage 0

Core_0_L2C_total_access 6388008
Core_0_L2C_total_hit 433193
Core_0_L2C_total_miss 5954815
Core_0_L2C_total_MPKI 59.5481
Core_0_L2C_total_miss_rate 0.932187
Core_0_L2C_demand_access 6032484
Core_0_L2C_demand_hit 247355
Core_0_L2C_demand_miss 5785129
Core_0_L2C_demand_MPKI 57.8513
Core_0_L2C_demand_miss_rate 0.958996
Core_0_L2C_load_access 6009989
Core_0_L2C_load_hit 225576
Core_0_L2C_load_miss 5784413
Core_0_L2C_load_MPKI 57.8441
Core_0_L2C_load_miss_rate 0.962466
Core_0_L2C_rfo_access 22495
Core_0_L2C_rfo_hit 21779
Core_0_L2C_rfo_miss 716
Core_0_L2C_rfo_MPKI 0.00716
Core_0_L2C_rfo_miss_rate 0.0318293
Core_0_L2C_prefetch_access 328470
Core_0_L2C_prefetch_hit 158802
Core_0_L2C_prefetch_miss 169668
Core_0_L2C_prefetch_MPKI 1.69668
Core_0_L2C_prefetch_miss_rate 0.51654
Core_0_L2C_writeback_access 27054
Core_0_L2C_writeback_hit 27036
Core_0_L2C_writeback_miss 18
Core_0_L2C_writeback_MPKI 0.00018
Core_0_L2C_writeback_miss_rate 0.000665336
Core_0_L2C_prefetch_requested 328470
Core_0_L2C_prefetch_issued 328470
Core_0_L2C_prefetch_useful 32159
Core_0_L2C_prefetch_useless 132474
Core_0_L2C_prefetch_late 0
Core_0_L2C_prefetch_fill 164618
Core_0_L2C_prefetch_too_early 45
Core_0_L2C_prefetch_too_early_among_fill 0.00027336
Core_0_L2C_prefetch_too_early_among_useless 0.000339689
Core_0_L2C_prefetch_pollution_evict 35824
Core_0_L2C_prefetch_pollution_demand 35823
Core_0_L2C_prefetch_pollution_among_prefetch_fill 0.217619
Core_0_L2C_prefetch_accuracy 0.0979054
Core_0_L2C_prefetch_coverage 0.00552818

Core_0_LLC_total_access 5952535
Core_0_LLC_total_hit 1385729
Core_0_LLC_total_miss 4566806
Core_0_LLC_total_MPKI 45.6681
Core_0_LLC_total_miss_rate 0.767204
Core_0_LLC_demand_access 5785129
Core_0_LLC_demand_hit 1343854
Core_0_LLC_demand_miss 4441275
Core_0_LLC_demand_MPKI 44.4127
Core_0_LLC_demand_miss_rate 0.767705
Core_0_LLC_load_access 5784413
Core_0_LLC_load_hit 1343140
Core_0_LLC_load_miss 4441273
Core_0_LLC_load_MPKI 44.4127
Core_0_LLC_load_miss_rate 0.7678
Core_0_LLC_rfo_access 716
Core_0_LLC_rfo_hit 714
Core_0_LLC_rfo_miss 2
Core_0_LLC_rfo_MPKI 2e-05
Core_0_LLC_rfo_miss_rate 0.0027933
Core_0_LLC_prefetch_access 164618
Core_0_LLC_prefetch_hit 39109
Core_0_LLC_prefetch_miss 125509
Core_0_LLC_prefetch_MPKI 1.25509
Core_0_LLC_prefetch_miss_rate 0.762426
Core_0_LLC_writeback_access 2788
Core_0_LLC_writeback_hit 2766
Core_0_LLC_writeback_miss 22
Core_0_LLC_writeback_MPKI 0.00022
Core_0_LLC_writeback_miss_rate 0.00789096
Core_0_LLC_prefetch_requested 0
Core_0_LLC_prefetch_issued 0
Core_0_LLC_prefetch_useful 0
Core_0_LLC_prefetch_useless 0
Core_0_LLC_prefetch_late 0
Core_0_LLC_prefetch_fill 125509
Core_0_LLC_prefetch_too_early 0
Core_0_LLC_prefetch_too_early_among_fill 0
Core_0_LLC_prefetch_too_early_among_useless 0
Core_0_LLC_prefetch_pollution_evict 27673
Core_0_LLC_prefetch_pollution_demand 27673
Core_0_LLC_prefetch_pollution_among_prefetch_fill 0.220486
Core_0_LLC_prefetch_accuracy 0
Core_0_LLC_prefetch_coverage 0

[DRAM Statistics]
Channel_0_RQ_row_buffer_hit 30738
Channel_0_RQ_row_buffer_miss 6004662
Channel_0_WQ_row_buffer_hit 5
Channel_0_WQ_row_buffer_miss 17
Channel_0_WQ_full 0
Channel_0_dbus_congested 6294323
DRAM_total_RQ_row_buffer_hit 30738
DRAM_total_RQ_row_buffer_miss 6004662
DRAM_total_WQ_row_buffer_hit 5
DRAM_total_WQ_row_buffer_miss 17
DRAM_total_WQ_full 0
DRAM_total_dbus_congested 6294323
DRAM_avg_congested_cycle 2.93275

====== DRAM_RQ_TRAFFIC ========
DRAM_RQ_READ_TRAFFIC_BREAKDOWN:
data_demand_read.count = 4441275
data_demand_read.share = 73.59%

inst_demand_read.count = 0
inst_demand_read.share = 0.00%

cache_inst_prefetch.count = 0
cache_inst_prefetch.share = 0.00%

cache_data_prefetch.count = 125509
cache_data_prefetch.share = 2.08%

stlb_data_demand.count = 1468616
stlb_data_demand.share = 24.33%

stlb_inst_demand.count = 0
stlb_inst_demand.share = 0.00%

stlb_l1i_pref.count = 0
stlb_l1i_pref.share = 0.00%

stlb_l1d_pref.count = 0
stlb_l1d_pref.share = 0.00%

DRAM_RQ_READ_TRAFFIC_SUMMARY:
cache_demand.count = 4441275
cache_demand.share = 73.59%

cache_prefetch.count = 125509
cache_prefetch.share = 2.08%

stlb_demand.count = 1468616
stlb_demand.share = 24.33%

stlb_prefetch.count = 0
stlb_prefetch.share = 0.00%

DRAM_RQ_READ_TRAFFIC_DEBUG:
total_classified_read.count = 6035400
unclassified_read.count = 0
total_read_with_other.count = 6035400

classified_plus_unclassified_check.count = 6035400
dram_rq_read_total_observed.count = 6035400
dram_rq_read_total_observed.per_1K_instructions = 60.354

STLB_MISS_PTW_DRAM_TOUCH_BREAKDOWN:
stlb_miss_total.count = 3856244

stlb_miss_touch_dram.count = 1470271
stlb_miss_touch_dram.share = 38.13%

stlb_miss_no_dram_touch.count = 2385973
stlb_miss_no_dram_touch.share = 61.87%

STLB_MISS_PTW_DRAM_TOUCH_DEBUG:
stlb_miss_touch_plus_no_touch.count = 3856244
stlb_miss_total_check.count = 3856244

======STLB miss causes ========
Core_0_STLB_miss_cause_breakdown
Core_0_STLB_cause_Demand_Data_miss 3856244
Core_0_STLB_cause_Demand_Data_miss_rate 0.968785
Core_0_STLB_cause_Demand_Instruction_miss 0
Core_0_STLB_cause_Demand_Instruction_miss_rate 0
Core_0_STLB_cause_L1D_Prefetch_miss 0
Core_0_STLB_cause_L1D_Prefetch_miss_rate 0
Core_0_STLB_cause_L1D_Prefetch_Same_Page_miss 0
Core_0_STLB_cause_L1D_Prefetch_Same_Page_miss_rate 0
Core_0_STLB_cause_L1D_Prefetch_Cross_Page_miss 0
Core_0_STLB_cause_L1D_Prefetch_Cross_Page_miss_rate 0
Core_0_STLB_cause_L1I_Prefetch_miss 0
Core_0_STLB_cause_L1I_Prefetch_miss_rate 0
Core_0_STLB_cause_Other_miss 0
Core_0_STLB_cause_Other_miss_rate 0
Core_0_STLB_Demand_miss 3856244
Core_0_STLB_Demand_miss_rate 0.968785
Core_0_STLB_L1D_Prefetch_miss 0
Core_0_STLB_L1D_Prefetch_miss_rate 0
Core_0_STLB_Other_miss 0
Core_0_STLB_Other_miss_rate 0

========== vBerti-TLB Cross-page Flow Stats ==========

Core_0_vBerti_Requested 0
Core_0_vBerti_Cross_page_prefetch_in_Requested 0
Core_0_vBerti_Same_page_prefetch_in_Requested 0
Core_0_vBerti_Cross_page_prefetch_of_Requested 0
Core_0_vBerti_Issued 0
Core_0_vBerti_PQ_Drop_Rate 0
Core_0_vBerti_InPQ_Cross_page_prefetch_of_Requested 0
Core_0_vBerti_Cross_page_PQ_Drop_rate 0
Core_0_vBerti_Cross_page_prefetch_of_Issued 0

========= DTLB_vBerti Prefetch Stats =========
Core_0_DTLB_demand_access 11268455
Core_0_DTLB_demand_hit 7086378
Core_0_DTLB_demand_miss 4182077
Core_0_DTLB_demand_mshr_merge 201581
Core_0_DTLB_demand_fill 3980501
Core_0_DTLB_demand_miss_rate 0.371131
Core_0_DTLB_demand_mpki 41.8208
Core_0_DTLB_vberti_prefetch_access 0
Core_0_DTLB_vberti_prefetch_hit 0
Core_0_DTLB_vberti_prefetch_miss 0
Core_0_DTLB_vberti_prefetch_mshr_merge 0
Core_0_DTLB_vberti_prefetch_fill 0
Core_0_DTLB_vberti_prefetch_miss_rate 0
Core_0_DTLB_vberti_prefetch_mpki 0

=== DTLB_vBerti Same/Cross-page Prefetch Stats ===
Core_0_DTLB_vberti_same_page_prefetch 0
Core_0_DTLB_vberti_same_page_prefetch_hit 0
Core_0_DTLB_vberti_same_page_prefetch_miss 0
Core_0_DTLB_vberti_same_page_prefetch_mshr_merge 0
Core_0_DTLB_vberti_same_page_prefetch_fill 0
Core_0_DTLB_vberti_same_page_prefetch_miss_rate 0
Core_0_DTLB_vberti_same_page_prefetch_mpki 0
Core_0_DTLB_vberti_cross_page_prefetch 0
Core_0_DTLB_vberti_cross_page_prefetch_hit 0
Core_0_DTLB_vberti_cross_page_prefetch_miss 0
Core_0_DTLB_vberti_cross_page_prefetch_mshr_merge 0
Core_0_DTLB_vberti_cross_page_prefetch_fill 0
Core_0_DTLB_vberti_cross_page_prefetch_miss_rate 0
Core_0_DTLB_vberti_cross_page_prefetch_mpki 0
Core_0_DTLB_same_page_prefetch_miss_rate 0
Core_0_DTLB_same_page_prefetch_mpki 0
Core_0_DTLB_cross_page_prefetch_miss_rate 0
Core_0_DTLB_cross_page_prefetch_mpki 0
Core_0_DTLB_cross_page_prefetch_issued 0
Core_0_DTLB_cross_page_prefetch_lookups 0
Core_0_DTLB_cross_page_prefetch_useful 0
Core_0_DTLB_cross_page_prefetch_useless 0
Core_0_DTLB_cross_page_prefetch_late 0
Core_0_DTLB_cross_page_prefetch_too_early 0
Core_0_DTLB_cross_page_prefetch_too_early_among_fill 0
Core_0_DTLB_cross_page_prefetch_too_early_among_useless 0
Core_0_DTLB_cross_page_prefetch_pollution_evict 0
Core_0_DTLB_cross_page_prefetch_pollution_demand 0
Core_0_DTLB_cross_page_prefetch_pollution_among_prefetch_fill 0
Core_0_DTLB_cross_page_prefetch_accuracy 0
Core_0_DTLB_cross_page_prefetch_coverage 0

========= STLB_vBerti Prefetch Stats =========
Core_0_STLB_demand_access 3980496
Core_0_STLB_demand_hit 124252
Core_0_STLB_demand_miss 3856244
Core_0_STLB_demand_mshr_merge 0
Core_0_STLB_demand_fill 3856249
Core_0_STLB_demand_miss_rate 0.968785
Core_0_STLB_demand_mpki 38.5624
Core_0_STLB_vberti_prefetch_access 0
Core_0_STLB_vberti_prefetch_hit 0
Core_0_STLB_vberti_prefetch_miss 0
Core_0_STLB_vberti_prefetch_mshr_merge 0
Core_0_STLB_vberti_prefetch_fill 0
Core_0_STLB_vberti_prefetch_miss_rate 0
Core_0_STLB_vberti_prefetch_mpki 0

=== STLB_vBerti Same/Cross-page Prefetch Stats ===
Core_0_STLB_vberti_same_page_prefetch 0
Core_0_STLB_vberti_same_page_prefetch_hit 0
Core_0_STLB_vberti_same_page_prefetch_miss 0
Core_0_STLB_vberti_same_page_prefetch_mshr_merge 0
Core_0_STLB_vberti_same_page_prefetch_fill 0
Core_0_STLB_vberti_same_page_prefetch_miss_rate 0
Core_0_STLB_vberti_same_page_prefetch_mpki 0
Core_0_STLB_vberti_cross_page_prefetch 0
Core_0_STLB_vberti_cross_page_prefetch_hit 0
Core_0_STLB_vberti_cross_page_prefetch_miss 0
Core_0_STLB_vberti_cross_page_prefetch_mshr_merge 0
Core_0_STLB_vberti_cross_page_prefetch_fill 0
Core_0_STLB_vberti_cross_page_prefetch_miss_rate 0
Core_0_STLB_vberti_cross_page_prefetch_mpki 0
Core_0_STLB_same_page_prefetch_miss_rate 0
Core_0_STLB_same_page_prefetch_mpki 0
Core_0_STLB_cross_page_prefetch_miss_rate 0
Core_0_STLB_cross_page_prefetch_mpki 0
Core_0_STLB_cross_page_prefetch_issued 0
Core_0_STLB_cross_page_prefetch_lookups 0
Core_0_STLB_cross_page_prefetch_useful 0
Core_0_STLB_cross_page_prefetch_useless 0
Core_0_STLB_cross_page_prefetch_late 0
Core_0_STLB_cross_page_prefetch_too_early 0
Core_0_STLB_cross_page_prefetch_too_early_among_fill 0
Core_0_STLB_cross_page_prefetch_too_early_among_useless 0
Core_0_STLB_cross_page_prefetch_pollution_evict 0
Core_0_STLB_cross_page_prefetch_pollution_demand 0
Core_0_STLB_cross_page_prefetch_pollution_among_prefetch_fill 0
Core_0_STLB_cross_page_prefetch_accuracy 0
Core_0_STLB_cross_page_prefetch_coverage 0

========= STLB Cross-page Prefetch Buffer Stats =========
Core_0_STLB_raw_demand_miss 3856244
Core_0_CP_PB_insert 0
Core_0_CP_PB_demand_hit 0
Core_0_STLB_PB_demand_miss 3856244
Core_0_CP_PB_coverage 0
Core_0_STLB_raw_demand_mpki 38.5624
Core_0_STLB_PB_demand_mpki 38.5624
Core_0_CP_PB_demand_hit_mpki 0

Core_0_TLB_demand_miss_rate 0.342216
Core_0_TLB_demand_mpki 38.5624
Core_0_TLB_same_page_prefetch_miss_rate 0
Core_0_TLB_same_page_prefetch_mpki 0
Core_0_TLB_cross_page_prefetch_miss_rate 0
Core_0_TLB_cross_page_prefetch_mpki 0
Core_0_TLB_cross_page_prefetch_issued 0
Core_0_TLB_cross_page_prefetch_lookups 0
Core_0_TLB_cross_page_prefetch_useful 0
Core_0_TLB_cross_page_prefetch_useless 0
Core_0_TLB_cross_page_prefetch_late 0
Core_0_TLB_cross_page_prefetch_too_early 0
Core_0_TLB_cross_page_prefetch_too_early_among_fill 0
Core_0_TLB_cross_page_prefetch_too_early_among_useless 0
Core_0_TLB_cross_page_prefetch_accuracy 0
Core_0_TLB_cross_page_prefetch_coverage 0
