[VMEM] WARNING: physical memory size is smaller than virtual memory size.

*** ChampSim Multicore Out-of-Order Simulator ***
Warmup Instructions: 50000000
Simulation Instructions: 100000000
Number of CPUs: 1
Page size: 4096
Core 0: /data2/zcq/champsim_traces_xsbench/xs.XL64hash-49B.champsimtrace.xz
Off-chip DRAM Size: 16 GiB Channels: 1 Width: 64-bit Data Rate: 3205 MT/s
Warmup halting CPU 0 at instruction 50000000 cycle 12600444 for remainder of phase
Warmup finished CPU 0 instructions: 50000000 cycles: 12600444 cumulative IPC: 3.968 (Simulation time: 00 hr 02 min 29 sec)
Warmup complete CPU 0 instructions: 50000000 cycles: 12600444 cumulative IPC: 3.968 (Simulation time: 00 hr 02 min 29 sec)
Simulation finished CPU 0 instructions: 100000004 cycles: 249151182 cumulative IPC: 0.4014 (Simulation time: 00 hr 22 min 08 sec)
Simulation complete CPU 0 instructions: 100000004 cycles: 249151182 cumulative IPC: 0.4014 (Simulation time: 00 hr 22 min 08 sec)

ChampSim completed all CPUs

=== Simulation ===
CPU 0 runs /data2/zcq/champsim_traces_xsbench/xs.XL64hash-49B.champsimtrace.xz

Region of Interest Statistics

CPU 0 cumulative IPC: 0.4014 instructions: 100000004 cycles: 249151182
CPU 0 Branch Prediction Accuracy: 92.92% MPKI: 17.05 Average ROB Occupancy at Mispredict: 36.55
Branch type MPKI
BRANCH_DIRECT_JUMP: 0
BRANCH_INDIRECT: 0
BRANCH_CONDITIONAL: 17.05
BRANCH_DIRECT_CALL: 0
BRANCH_INDIRECT_CALL: 1e-05
BRANCH_RETURN: 0.00049

cpu0->cpu0_STLB TOTAL        ACCESS:    1364626 HIT:    1086317 MISS:     278309 MSHR_MERGE:          0
cpu0->cpu0_STLB LOAD         ACCESS:    1364626 HIT:    1086317 MISS:     278309 MSHR_MERGE:          0
cpu0->cpu0_STLB RFO          ACCESS:          0 HIT:          0 MISS:          0 MSHR_MERGE:          0
cpu0->cpu0_STLB PREFETCH     ACCESS:          0 HIT:          0 MISS:          0 MSHR_MERGE:          0
cpu0->cpu0_STLB WRITE        ACCESS:          0 HIT:          0 MISS:          0 MSHR_MERGE:          0
cpu0->cpu0_STLB TRANSLATION  ACCESS:          0 HIT:          0 MISS:          0 MSHR_MERGE:          0
cpu0->cpu0_STLB PREFETCH REQUESTED:          0 ISSUED:          0 USEFUL:          0 USELESS:          0 LATE:          0 TOO_EARLY:          0
cpu0->cpu0_STLB AVERAGE MISS LATENCY: 21.56 cycles
cpu0->cpu0_L2C TOTAL        ACCESS:    5331899 HIT:    2967789 MISS:    2364110 MSHR_MERGE:     202632
cpu0->cpu0_L2C LOAD         ACCESS:    2611832 HIT:     958229 MISS:    1653603 MSHR_MERGE:      76854
cpu0->cpu0_L2C RFO          ACCESS:     296108 HIT:      96829 MISS:     199279 MSHR_MERGE:          0
cpu0->cpu0_L2C PREFETCH     ACCESS:    1223168 HIT:     716857 MISS:     506311 MSHR_MERGE:     125778
cpu0->cpu0_L2C WRITE        ACCESS:    1026322 HIT:    1026293 MISS:         29 MSHR_MERGE:          0
cpu0->cpu0_L2C TRANSLATION  ACCESS:     174469 HIT:     169581 MISS:       4888 MSHR_MERGE:          0
cpu0->cpu0_L2C PREFETCH REQUESTED:    1249824 ISSUED:    1223168 USEFUL:     339014 USELESS:        307 LATE:      76854 TOO_EARLY:        162
cpu0->cpu0_L2C AVERAGE MISS LATENCY: 183.6 cycles
cpu0->cpu0_L1I TOTAL        ACCESS:    1972044 HIT:    1972044 MISS:          0 MSHR_MERGE:          0
cpu0->cpu0_L1I LOAD         ACCESS:    1972044 HIT:    1972044 MISS:          0 MSHR_MERGE:          0
cpu0->cpu0_L1I RFO          ACCESS:          0 HIT:          0 MISS:          0 MSHR_MERGE:          0
cpu0->cpu0_L1I PREFETCH     ACCESS:          0 HIT:          0 MISS:          0 MSHR_MERGE:          0
cpu0->cpu0_L1I WRITE        ACCESS:          0 HIT:          0 MISS:          0 MSHR_MERGE:          0
cpu0->cpu0_L1I TRANSLATION  ACCESS:          0 HIT:          0 MISS:          0 MSHR_MERGE:          0
cpu0->cpu0_L1I PREFETCH REQUESTED:          0 ISSUED:          0 USEFUL:          0 USELESS:          0 LATE:          0 TOO_EARLY:          0
cpu0->cpu0_L1I AVERAGE MISS LATENCY: - cycles
cpu0->cpu0_L1D TOTAL        ACCESS:   34712435 HIT:   29969038 MISS:    4743397 MSHR_MERGE:    1660986
cpu0->cpu0_L1D LOAD         ACCESS:   21188321 HIT:   17683745 MISS:    3504576 MSHR_MERGE:     892744
cpu0->cpu0_L1D RFO          ACCESS:          0 HIT:          0 MISS:          0 MSHR_MERGE:          0
cpu0->cpu0_L1D PREFETCH     ACCESS:          0 HIT:          0 MISS:          0 MSHR_MERGE:          0
cpu0->cpu0_L1D WRITE        ACCESS:   12968169 HIT:   11904305 MISS:    1063864 MSHR_MERGE:     767754
cpu0->cpu0_L1D TRANSLATION  ACCESS:     555945 HIT:     380988 MISS:     174957 MSHR_MERGE:        488
cpu0->cpu0_L1D PREFETCH REQUESTED:          0 ISSUED:          0 USEFUL:          0 USELESS:          0 LATE:          0 TOO_EARLY:          0
cpu0->cpu0_L1D AVERAGE MISS LATENCY: 119.3 cycles
cpu0->cpu0_ITLB TOTAL        ACCESS:    1744026 HIT:    1744026 MISS:          0 MSHR_MERGE:          0
cpu0->cpu0_ITLB LOAD         ACCESS:    1744026 HIT:    1744026 MISS:          0 MSHR_MERGE:          0
cpu0->cpu0_ITLB RFO          ACCESS:          0 HIT:          0 MISS:          0 MSHR_MERGE:          0
cpu0->cpu0_ITLB PREFETCH     ACCESS:          0 HIT:          0 MISS:          0 MSHR_MERGE:          0
cpu0->cpu0_ITLB WRITE        ACCESS:          0 HIT:          0 MISS:          0 MSHR_MERGE:          0
cpu0->cpu0_ITLB TRANSLATION  ACCESS:          0 HIT:          0 MISS:          0 MSHR_MERGE:          0
cpu0->cpu0_ITLB PREFETCH REQUESTED:          0 ISSUED:          0 USEFUL:          0 USELESS:          0 LATE:          0 TOO_EARLY:          0
cpu0->cpu0_ITLB AVERAGE MISS LATENCY: - cycles
cpu0->cpu0_DTLB TOTAL        ACCESS:   33085620 HIT:   31163665 MISS:    1921955 MSHR_MERGE:     557329
cpu0->cpu0_DTLB LOAD         ACCESS:   33085620 HIT:   31163665 MISS:    1921955 MSHR_MERGE:     557329
cpu0->cpu0_DTLB RFO          ACCESS:          0 HIT:          0 MISS:          0 MSHR_MERGE:          0
cpu0->cpu0_DTLB PREFETCH     ACCESS:          0 HIT:          0 MISS:          0 MSHR_MERGE:          0
cpu0->cpu0_DTLB WRITE        ACCESS:          0 HIT:          0 MISS:          0 MSHR_MERGE:          0
cpu0->cpu0_DTLB TRANSLATION  ACCESS:          0 HIT:          0 MISS:          0 MSHR_MERGE:          0
cpu0->cpu0_DTLB PREFETCH REQUESTED:          0 ISSUED:          0 USEFUL:          0 USELESS:          0 LATE:          0 TOO_EARLY:          0
cpu0->cpu0_DTLB AVERAGE MISS LATENCY: 9.603 cycles
cpu0->LLC TOTAL        ACCESS:    3027892 HIT:     981161 MISS:    2046731 MSHR_MERGE:      31583
cpu0->LLC LOAD         ACCESS:    1576749 HIT:     416190 MISS:    1160559 MSHR_MERGE:       7971
cpu0->LLC RFO          ACCESS:     199278 HIT:      81418 MISS:     117860 MSHR_MERGE:          0
cpu0->LLC PREFETCH     ACCESS:     380528 HIT:     119413 MISS:     261115 MSHR_MERGE:      23612
cpu0->LLC WRITE        ACCESS:     866449 HIT:     363755 MISS:     502694 MSHR_MERGE:          0
cpu0->LLC TRANSLATION  ACCESS:       4888 HIT:        385 MISS:       4503 MSHR_MERGE:          0
cpu0->LLC PREFETCH REQUESTED:          0 ISSUED:          0 USEFUL:          0 USELESS:          0 LATE:          0 TOO_EARLY:          0
cpu0->LLC AVERAGE MISS LATENCY: 168.3 cycles

DRAM Statistics

Channel 0 RQ ROW_BUFFER_HIT:      21981
  ROW_BUFFER_MISS:    1489679
  AVG DBUS CONGESTED CYCLE: 7.847
Channel 0 WQ ROW_BUFFER_HIT:     184884
  ROW_BUFFER_MISS:     459498
  FULL:       2208
Channel 0 REFRESHES ISSUED:      20762

[ROI Statistics]
[System Configuration]
num_cpus 1
cpu_freq 4000
fetch_width 6
decode_width 6
dispatch_width 6
execute_width 6
lq_width 2
sq_width 2
retire_width 6
scheduler_size 128
branch_mispredict_penalty 15
rob_size 352
lq_size 128
sq_size 72
ifetch_buffer_size 64
decode_buffer_size 32
dispatch_buffer_size 32
register_file_size 288
decode_latency 1
dispatch_latency 1
schedule_latency 1
execute_latency 1
page_size 4096
block_size 64
core_0_itlb_set 16
core_0_itlb_way 4
core_0_itlb_rq_size 16
core_0_itlb_wq_size 16
core_0_itlb_pq_size 0
core_0_itlb_mshr_size 8
core_0_itlb_hit_latency 1
core_0_itlb_fill_latency 1
core_0_itlb_max_tag_check 2
core_0_itlb_max_fill 2
core_0_dtlb_set 16
core_0_dtlb_way 4
core_0_dtlb_rq_size 16
core_0_dtlb_wq_size 16
core_0_dtlb_pq_size 0
core_0_dtlb_mshr_size 8
core_0_dtlb_hit_latency 1
core_0_dtlb_fill_latency 1
core_0_dtlb_max_tag_check 2
core_0_dtlb_max_fill 2
core_0_stlb_set 128
core_0_stlb_way 12
core_0_stlb_rq_size 32
core_0_stlb_wq_size 32
core_0_stlb_pq_size 0
core_0_stlb_mshr_size 16
core_0_stlb_hit_latency 4
core_0_stlb_fill_latency 4
core_0_stlb_max_tag_check 1
core_0_stlb_max_fill 1
core_0_l1i_set 64
core_0_l1i_way 8
core_0_l1i_rq_size 64
core_0_l1i_wq_size 64
core_0_l1i_pq_size 32
core_0_l1i_mshr_size 8
core_0_l1i_hit_latency 2
core_0_l1i_fill_latency 2
core_0_l1i_max_tag_check 2
core_0_l1i_max_fill 2
core_0_l1d_set 64
core_0_l1d_way 12
core_0_l1d_rq_size 64
core_0_l1d_wq_size 64
core_0_l1d_pq_size 8
core_0_l1d_mshr_size 16
core_0_l1d_hit_latency 2
core_0_l1d_fill_latency 3
core_0_l1d_max_tag_check 2
core_0_l1d_max_fill 2
core_0_l2c_set 1024
core_0_l2c_way 8
core_0_l2c_rq_size 32
core_0_l2c_wq_size 32
core_0_l2c_pq_size 16
core_0_l2c_mshr_size 32
core_0_l2c_hit_latency 5
core_0_l2c_fill_latency 5
core_0_l2c_max_tag_check 1
core_0_l2c_max_fill 1
llc_set 2048
llc_way 16
llc_rq_size 32
llc_wq_size 32
llc_pq_size 32
llc_mshr_size 64
llc_hit_latency 10
llc_fill_latency 10
llc_max_tag_check 1
llc_max_fill 1
dram_channels 1
dram_ranks 1
dram_bankgroups 8
dram_banks 4
dram_rows 65536
dram_columns 1024
dram_channel_width 8
dram_rq_size 64
dram_wq_size 64
dram_size 17179869184
core_0_itlb_prefetcher no
core_0_dtlb_prefetcher no
core_0_stlb_prefetcher no
core_0_l1i_prefetcher next_line
core_0_l1d_prefetcher no
core_0_l2c_prefetcher ip_stride
llc_prefetcher no
llc_replacement drrip

Core_0_instructions 100000004
Core_0_cycles 249151182
Core_0_IPC 0.401363
Core_0_branch_prediction_accuracy 92.9238
Core_0_branch_MPKI 17.0549
Core_0_average_ROB_occupancy_at_mispredict 36.5523

Core_0_ITLB_total_access 1744026
Core_0_ITLB_total_hit 1744026
Core_0_ITLB_total_miss 0
Core_0_ITLB_total_MPKI 0
Core_0_ITLB_total_miss_rate 0
Core_0_ITLB_demand_access 1744026
Core_0_ITLB_demand_hit 1744026
Core_0_ITLB_demand_miss 0
Core_0_ITLB_demand_MPKI 0
Core_0_ITLB_demand_miss_rate 0
Core_0_ITLB_load_access 1744026
Core_0_ITLB_load_hit 1744026
Core_0_ITLB_load_miss 0
Core_0_ITLB_load_MPKI 0
Core_0_ITLB_load_miss_rate 0
Core_0_ITLB_rfo_access 0
Core_0_ITLB_rfo_hit 0
Core_0_ITLB_rfo_miss 0
Core_0_ITLB_rfo_MPKI 0
Core_0_ITLB_rfo_miss_rate 0
Core_0_ITLB_prefetch_access 0
Core_0_ITLB_prefetch_hit 0
Core_0_ITLB_prefetch_miss 0
Core_0_ITLB_prefetch_MPKI 0
Core_0_ITLB_prefetch_miss_rate 0
Core_0_ITLB_writeback_access 0
Core_0_ITLB_writeback_hit 0
Core_0_ITLB_writeback_miss 0
Core_0_ITLB_writeback_MPKI 0
Core_0_ITLB_writeback_miss_rate 0
Core_0_ITLB_prefetch_requested 0
Core_0_ITLB_prefetch_issued 0
Core_0_ITLB_prefetch_useful 0
Core_0_ITLB_prefetch_useless 0
Core_0_ITLB_prefetch_late 0
Core_0_ITLB_prefetch_fill 0
Core_0_ITLB_prefetch_too_early 0
Core_0_ITLB_prefetch_too_early_among_fill 0
Core_0_ITLB_prefetch_too_early_among_useless 0
Core_0_ITLB_prefetch_pollution_evict 0
Core_0_ITLB_prefetch_pollution_demand 0
Core_0_ITLB_prefetch_pollution_among_prefetch_fill 0
Core_0_ITLB_prefetch_accuracy 0
Core_0_ITLB_prefetch_coverage 0

Core_0_DTLB_total_access 33085620
Core_0_DTLB_total_hit 31163665
Core_0_DTLB_total_miss 1921955
Core_0_DTLB_total_MPKI 19.2195
Core_0_DTLB_total_miss_rate 0.0580903
Core_0_DTLB_demand_access 33085620
Core_0_DTLB_demand_hit 31163665
Core_0_DTLB_demand_miss 1921955
Core_0_DTLB_demand_MPKI 19.2195
Core_0_DTLB_demand_miss_rate 0.0580903
Core_0_DTLB_load_access 33085620
Core_0_DTLB_load_hit 31163665
Core_0_DTLB_load_miss 1921955
Core_0_DTLB_load_MPKI 19.2195
Core_0_DTLB_load_miss_rate 0.0580903
Core_0_DTLB_rfo_access 0
Core_0_DTLB_rfo_hit 0
Core_0_DTLB_rfo_miss 0
Core_0_DTLB_rfo_MPKI 0
Core_0_DTLB_rfo_miss_rate 0
Core_0_DTLB_prefetch_access 0
Core_0_DTLB_prefetch_hit 0
Core_0_DTLB_prefetch_miss 0
Core_0_DTLB_prefetch_MPKI 0
Core_0_DTLB_prefetch_miss_rate 0
Core_0_DTLB_writeback_access 0
Core_0_DTLB_writeback_hit 0
Core_0_DTLB_writeback_miss 0
Core_0_DTLB_writeback_MPKI 0
Core_0_DTLB_writeback_miss_rate 0
Core_0_DTLB_prefetch_requested 0
Core_0_DTLB_prefetch_issued 0
Core_0_DTLB_prefetch_useful 0
Core_0_DTLB_prefetch_useless 0
Core_0_DTLB_prefetch_late 0
Core_0_DTLB_prefetch_fill 0
Core_0_DTLB_prefetch_too_early 0
Core_0_DTLB_prefetch_too_early_among_fill 0
Core_0_DTLB_prefetch_too_early_among_useless 0
Core_0_DTLB_prefetch_pollution_evict 0
Core_0_DTLB_prefetch_pollution_demand 0
Core_0_DTLB_prefetch_pollution_among_prefetch_fill 0
Core_0_DTLB_prefetch_accuracy 0
Core_0_DTLB_prefetch_coverage 0

Core_0_STLB_total_access 1364626
Core_0_STLB_total_hit 1086317
Core_0_STLB_total_miss 278309
Core_0_STLB_total_MPKI 2.78309
Core_0_STLB_total_miss_rate 0.203945
Core_0_STLB_demand_access 1364626
Core_0_STLB_demand_hit 1086317
Core_0_STLB_demand_miss 278309
Core_0_STLB_demand_MPKI 2.78309
Core_0_STLB_demand_miss_rate 0.203945
Core_0_STLB_load_access 1364626
Core_0_STLB_load_hit 1086317
Core_0_STLB_load_miss 278309
Core_0_STLB_load_MPKI 2.78309
Core_0_STLB_load_miss_rate 0.203945
Core_0_STLB_rfo_access 0
Core_0_STLB_rfo_hit 0
Core_0_STLB_rfo_miss 0
Core_0_STLB_rfo_MPKI 0
Core_0_STLB_rfo_miss_rate 0
Core_0_STLB_prefetch_access 0
Core_0_STLB_prefetch_hit 0
Core_0_STLB_prefetch_miss 0
Core_0_STLB_prefetch_MPKI 0
Core_0_STLB_prefetch_miss_rate 0
Core_0_STLB_writeback_access 0
Core_0_STLB_writeback_hit 0
Core_0_STLB_writeback_miss 0
Core_0_STLB_writeback_MPKI 0
Core_0_STLB_writeback_miss_rate 0
Core_0_STLB_prefetch_requested 0
Core_0_STLB_prefetch_issued 0
Core_0_STLB_prefetch_useful 0
Core_0_STLB_prefetch_useless 0
Core_0_STLB_prefetch_late 0
Core_0_STLB_prefetch_fill 0
Core_0_STLB_prefetch_too_early 0
Core_0_STLB_prefetch_too_early_among_fill 0
Core_0_STLB_prefetch_too_early_among_useless 0
Core_0_STLB_prefetch_pollution_evict 0
Core_0_STLB_prefetch_pollution_demand 0
Core_0_STLB_prefetch_pollution_among_prefetch_fill 0
Core_0_STLB_prefetch_accuracy 0
Core_0_STLB_prefetch_coverage 0

Core_0_L1I_total_access 1972044
Core_0_L1I_total_hit 1972044
Core_0_L1I_total_miss 0
Core_0_L1I_total_MPKI 0
Core_0_L1I_total_miss_rate 0
Core_0_L1I_demand_access 1972044
Core_0_L1I_demand_hit 1972044
Core_0_L1I_demand_miss 0
Core_0_L1I_demand_MPKI 0
Core_0_L1I_demand_miss_rate 0
Core_0_L1I_load_access 1972044
Core_0_L1I_load_hit 1972044
Core_0_L1I_load_miss 0
Core_0_L1I_load_MPKI 0
Core_0_L1I_load_miss_rate 0
Core_0_L1I_rfo_access 0
Core_0_L1I_rfo_hit 0
Core_0_L1I_rfo_miss 0
Core_0_L1I_rfo_MPKI 0
Core_0_L1I_rfo_miss_rate 0
Core_0_L1I_prefetch_access 0
Core_0_L1I_prefetch_hit 0
Core_0_L1I_prefetch_miss 0
Core_0_L1I_prefetch_MPKI 0
Core_0_L1I_prefetch_miss_rate 0
Core_0_L1I_writeback_access 0
Core_0_L1I_writeback_hit 0
Core_0_L1I_writeback_miss 0
Core_0_L1I_writeback_MPKI 0
Core_0_L1I_writeback_miss_rate 0
Core_0_L1I_prefetch_requested 0
Core_0_L1I_prefetch_issued 0
Core_0_L1I_prefetch_useful 0
Core_0_L1I_prefetch_useless 0
Core_0_L1I_prefetch_late 0
Core_0_L1I_prefetch_fill 0
Core_0_L1I_prefetch_too_early 0
Core_0_L1I_prefetch_too_early_among_fill 0
Core_0_L1I_prefetch_too_early_among_useless 0
Core_0_L1I_prefetch_pollution_evict 0
Core_0_L1I_prefetch_pollution_demand 0
Core_0_L1I_prefetch_pollution_among_prefetch_fill 0
Core_0_L1I_prefetch_accuracy 0
Core_0_L1I_prefetch_coverage 0

Core_0_L1D_total_access 34156490
Core_0_L1D_total_hit 29588050
Core_0_L1D_total_miss 4568440
Core_0_L1D_total_MPKI 45.6844
Core_0_L1D_total_miss_rate 0.13375
Core_0_L1D_demand_access 21188321
Core_0_L1D_demand_hit 17683745
Core_0_L1D_demand_miss 3504576
Core_0_L1D_demand_MPKI 35.0458
Core_0_L1D_demand_miss_rate 0.165401
Core_0_L1D_load_access 21188321
Core_0_L1D_load_hit 17683745
Core_0_L1D_load_miss 3504576
Core_0_L1D_load_MPKI 35.0458
Core_0_L1D_load_miss_rate 0.165401
Core_0_L1D_rfo_access 0
Core_0_L1D_rfo_hit 0
Core_0_L1D_rfo_miss 0
Core_0_L1D_rfo_MPKI 0
Core_0_L1D_rfo_miss_rate 0
Core_0_L1D_prefetch_access 0
Core_0_L1D_prefetch_hit 0
Core_0_L1D_prefetch_miss 0
Core_0_L1D_prefetch_MPKI 0
Core_0_L1D_prefetch_miss_rate 0
Core_0_L1D_writeback_access 12968169
Core_0_L1D_writeback_hit 11904305
Core_0_L1D_writeback_miss 1063864
Core_0_L1D_writeback_MPKI 10.6386
Core_0_L1D_writeback_miss_rate 0.0820366
Core_0_L1D_prefetch_requested 0
Core_0_L1D_prefetch_issued 0
Core_0_L1D_prefetch_useful 0
Core_0_L1D_prefetch_useless 0
Core_0_L1D_prefetch_late 0
Core_0_L1D_prefetch_fill 0
Core_0_L1D_prefetch_too_early 0
Core_0_L1D_prefetch_too_early_among_fill 0
Core_0_L1D_prefetch_too_early_among_useless 0
Core_0_L1D_prefetch_pollution_evict 0
Core_0_L1D_prefetch_pollution_demand 0
Core_0_L1D_prefetch_pollution_among_prefetch_fill 0
Core_0_L1D_prefetch_accuracy 0
Core_0_L1D_prefetch_coverage 0

Core_0_L2C_total_access 5157430
Core_0_L2C_total_hit 2798208
Core_0_L2C_total_miss 2359222
Core_0_L2C_total_MPKI 23.5922
Core_0_L2C_total_miss_rate 0.457441
Core_0_L2C_demand_access 2907940
Core_0_L2C_demand_hit 1055058
Core_0_L2C_demand_miss 1852882
Core_0_L2C_demand_MPKI 18.5288
Core_0_L2C_demand_miss_rate 0.63718
Core_0_L2C_load_access 2611832
Core_0_L2C_load_hit 958229
Core_0_L2C_load_miss 1653603
Core_0_L2C_load_MPKI 16.536
Core_0_L2C_load_miss_rate 0.63312
Core_0_L2C_rfo_access 296108
Core_0_L2C_rfo_hit 96829
Core_0_L2C_rfo_miss 199279
Core_0_L2C_rfo_MPKI 1.99279
Core_0_L2C_rfo_miss_rate 0.672994
Core_0_L2C_prefetch_access 1223168
Core_0_L2C_prefetch_hit 716857
Core_0_L2C_prefetch_miss 506311
Core_0_L2C_prefetch_MPKI 5.06311
Core_0_L2C_prefetch_miss_rate 0.413934
Core_0_L2C_writeback_access 1026322
Core_0_L2C_writeback_hit 1026293
Core_0_L2C_writeback_miss 29
Core_0_L2C_writeback_MPKI 0.00029
Core_0_L2C_writeback_miss_rate 2.82562e-05
Core_0_L2C_prefetch_requested 1249824
Core_0_L2C_prefetch_issued 1223168
Core_0_L2C_prefetch_useful 339014
Core_0_L2C_prefetch_useless 307
Core_0_L2C_prefetch_late 76854
Core_0_L2C_prefetch_fill 262474
Core_0_L2C_prefetch_too_early 162
Core_0_L2C_prefetch_too_early_among_fill 0.000617204
Core_0_L2C_prefetch_too_early_among_useless 0.527687
Core_0_L2C_prefetch_pollution_evict 103543
Core_0_L2C_prefetch_pollution_demand 103531
Core_0_L2C_prefetch_pollution_among_prefetch_fill 0.394489
Core_0_L2C_prefetch_accuracy 0.277161
Core_0_L2C_prefetch_coverage 0.154667

Core_0_LLC_total_access 3023004
Core_0_LLC_total_hit 980776
Core_0_LLC_total_miss 2042228
Core_0_LLC_total_MPKI 20.4223
Core_0_LLC_total_miss_rate 0.675562
Core_0_LLC_demand_access 1776027
Core_0_LLC_demand_hit 497608
Core_0_LLC_demand_miss 1278419
Core_0_LLC_demand_MPKI 12.7842
Core_0_LLC_demand_miss_rate 0.71982
Core_0_LLC_load_access 1576749
Core_0_LLC_load_hit 416190
Core_0_LLC_load_miss 1160559
Core_0_LLC_load_MPKI 11.6056
Core_0_LLC_load_miss_rate 0.736045
Core_0_LLC_rfo_access 199278
Core_0_LLC_rfo_hit 81418
Core_0_LLC_rfo_miss 117860
Core_0_LLC_rfo_MPKI 1.1786
Core_0_LLC_rfo_miss_rate 0.591435
Core_0_LLC_prefetch_access 380528
Core_0_LLC_prefetch_hit 119413
Core_0_LLC_prefetch_miss 261115
Core_0_LLC_prefetch_MPKI 2.61115
Core_0_LLC_prefetch_miss_rate 0.686191
Core_0_LLC_writeback_access 866449
Core_0_LLC_writeback_hit 363755
Core_0_LLC_writeback_miss 502694
Core_0_LLC_writeback_MPKI 5.02694
Core_0_LLC_writeback_miss_rate 0.580177
Core_0_LLC_prefetch_requested 0
Core_0_LLC_prefetch_issued 0
Core_0_LLC_prefetch_useful 0
Core_0_LLC_prefetch_useless 0
Core_0_LLC_prefetch_late 0
Core_0_LLC_prefetch_fill 229532
Core_0_LLC_prefetch_too_early 0
Core_0_LLC_prefetch_too_early_among_fill 0
Core_0_LLC_prefetch_too_early_among_useless 0
Core_0_LLC_prefetch_pollution_evict 115256
Core_0_LLC_prefetch_pollution_demand 115256
Core_0_LLC_prefetch_pollution_among_prefetch_fill 0.502135
Core_0_LLC_prefetch_accuracy 0
Core_0_LLC_prefetch_coverage 0

[DRAM Statistics]
Channel_0_RQ_row_buffer_hit 21981
Channel_0_RQ_row_buffer_miss 1489679
Channel_0_WQ_row_buffer_hit 184884
Channel_0_WQ_row_buffer_miss 459498
Channel_0_WQ_full 2208
Channel_0_dbus_congested 6285536
DRAM_total_RQ_row_buffer_hit 21981
DRAM_total_RQ_row_buffer_miss 1489679
DRAM_total_WQ_row_buffer_hit 184884
DRAM_total_WQ_row_buffer_miss 459498
DRAM_total_WQ_full 2208
DRAM_total_dbus_congested 6285536
DRAM_avg_congested_cycle 7.84733

====== DRAM_RQ_TRAFFIC ========
DRAM_RQ_READ_TRAFFIC_BREAKDOWN:
data_demand_read.count = 1270448
data_demand_read.share = 84.00%

inst_demand_read.count = 0
inst_demand_read.share = 0.00%

cache_inst_prefetch.count = 0
cache_inst_prefetch.share = 0.00%

cache_data_prefetch.count = 237503
cache_data_prefetch.share = 15.70%

stlb_data_demand.count = 4503
stlb_data_demand.share = 0.30%

stlb_inst_demand.count = 0
stlb_inst_demand.share = 0.00%

stlb_l1i_pref.count = 0
stlb_l1i_pref.share = 0.00%

stlb_l1d_pref.count = 0
stlb_l1d_pref.share = 0.00%

DRAM_RQ_READ_TRAFFIC_SUMMARY:
cache_demand.count = 1270448
cache_demand.share = 84.00%

cache_prefetch.count = 237503
cache_prefetch.share = 15.70%

stlb_demand.count = 4503
stlb_demand.share = 0.30%

stlb_prefetch.count = 0
stlb_prefetch.share = 0.00%

DRAM_RQ_READ_TRAFFIC_DEBUG:
total_classified_read.count = 1512454
unclassified_read.count = 0
total_read_with_other.count = 1512454

classified_plus_unclassified_check.count = 1512454
dram_rq_read_total_observed.count = 1512454
dram_rq_read_total_observed.per_1K_instructions = 15.1245

STLB_MISS_PTW_DRAM_TOUCH_BREAKDOWN:
stlb_miss_total.count = 278309

stlb_miss_touch_dram.count = 4500
stlb_miss_touch_dram.share = 1.62%

stlb_miss_no_dram_touch.count = 273809
stlb_miss_no_dram_touch.share = 98.38%

STLB_MISS_PTW_DRAM_TOUCH_DEBUG:
stlb_miss_touch_plus_no_touch.count = 278309
stlb_miss_total_check.count = 278309

======STLB miss causes ========
Core_0_STLB_miss_cause_breakdown
Core_0_STLB_cause_Demand_Data_miss 278309
Core_0_STLB_cause_Demand_Data_miss_rate 0.203945
Core_0_STLB_cause_Demand_Instruction_miss 0
Core_0_STLB_cause_Demand_Instruction_miss_rate 0
Core_0_STLB_cause_L1D_Prefetch_miss 0
Core_0_STLB_cause_L1D_Prefetch_miss_rate 0
Core_0_STLB_cause_L1D_Prefetch_Same_Page_miss 0
Core_0_STLB_cause_L1D_Prefetch_Same_Page_miss_rate 0
Core_0_STLB_cause_L1D_Prefetch_Cross_Page_miss 0
Core_0_STLB_cause_L1D_Prefetch_Cross_Page_miss_rate 0
Core_0_STLB_cause_L1I_Prefetch_miss 0
Core_0_STLB_cause_L1I_Prefetch_miss_rate 0
Core_0_STLB_cause_Other_miss 0
Core_0_STLB_cause_Other_miss_rate 0
Core_0_STLB_Demand_miss 278309
Core_0_STLB_Demand_miss_rate 0.203945
Core_0_STLB_L1D_Prefetch_miss 0
Core_0_STLB_L1D_Prefetch_miss_rate 0
Core_0_STLB_Other_miss 0
Core_0_STLB_Other_miss_rate 0

========== vBerti-TLB Cross-page Flow Stats ==========

Core_0_vBerti_Requested 0
Core_0_vBerti_Cross_page_prefetch_in_Requested 0
Core_0_vBerti_Same_page_prefetch_in_Requested 0
Core_0_vBerti_Cross_page_prefetch_of_Requested 0
Core_0_vBerti_Issued 0
Core_0_vBerti_PQ_Drop_Rate 0
Core_0_vBerti_InPQ_Cross_page_prefetch_of_Requested 0
Core_0_vBerti_Cross_page_PQ_Drop_rate 0
Core_0_vBerti_Cross_page_prefetch_of_Issued 0

========= DTLB_vBerti Prefetch Stats =========
Core_0_DTLB_demand_access 33085620
Core_0_DTLB_demand_hit 31163665
Core_0_DTLB_demand_miss 1921955
Core_0_DTLB_demand_mshr_merge 557329
Core_0_DTLB_demand_fill 1364626
Core_0_DTLB_demand_miss_rate 0.0580903
Core_0_DTLB_demand_mpki 19.2195
Core_0_DTLB_vberti_prefetch_access 0
Core_0_DTLB_vberti_prefetch_hit 0
Core_0_DTLB_vberti_prefetch_miss 0
Core_0_DTLB_vberti_prefetch_mshr_merge 0
Core_0_DTLB_vberti_prefetch_fill 0
Core_0_DTLB_vberti_prefetch_miss_rate 0
Core_0_DTLB_vberti_prefetch_mpki 0

=== DTLB_vBerti Same/Cross-page Prefetch Stats ===
Core_0_DTLB_vberti_same_page_prefetch 0
Core_0_DTLB_vberti_same_page_prefetch_hit 0
Core_0_DTLB_vberti_same_page_prefetch_miss 0
Core_0_DTLB_vberti_same_page_prefetch_mshr_merge 0
Core_0_DTLB_vberti_same_page_prefetch_fill 0
Core_0_DTLB_vberti_same_page_prefetch_miss_rate 0
Core_0_DTLB_vberti_same_page_prefetch_mpki 0
Core_0_DTLB_vberti_cross_page_prefetch 0
Core_0_DTLB_vberti_cross_page_prefetch_hit 0
Core_0_DTLB_vberti_cross_page_prefetch_miss 0
Core_0_DTLB_vberti_cross_page_prefetch_mshr_merge 0
Core_0_DTLB_vberti_cross_page_prefetch_fill 0
Core_0_DTLB_vberti_cross_page_prefetch_miss_rate 0
Core_0_DTLB_vberti_cross_page_prefetch_mpki 0
Core_0_DTLB_same_page_prefetch_miss_rate 0
Core_0_DTLB_same_page_prefetch_mpki 0
Core_0_DTLB_cross_page_prefetch_miss_rate 0
Core_0_DTLB_cross_page_prefetch_mpki 0
Core_0_DTLB_cross_page_prefetch_issued 0
Core_0_DTLB_cross_page_prefetch_lookups 0
Core_0_DTLB_cross_page_prefetch_useful 0
Core_0_DTLB_cross_page_prefetch_useless 0
Core_0_DTLB_cross_page_prefetch_late 0
Core_0_DTLB_cross_page_prefetch_too_early 0
Core_0_DTLB_cross_page_prefetch_too_early_among_fill 0
Core_0_DTLB_cross_page_prefetch_too_early_among_useless 0
Core_0_DTLB_cross_page_prefetch_pollution_evict 0
Core_0_DTLB_cross_page_prefetch_pollution_demand 0
Core_0_DTLB_cross_page_prefetch_pollution_among_prefetch_fill 0
Core_0_DTLB_cross_page_prefetch_accuracy 0
Core_0_DTLB_cross_page_prefetch_coverage 0

========= STLB_vBerti Prefetch Stats =========
Core_0_STLB_demand_access 1364626
Core_0_STLB_demand_hit 1086317
Core_0_STLB_demand_miss 278309
Core_0_STLB_demand_mshr_merge 0
Core_0_STLB_demand_fill 278309
Core_0_STLB_demand_miss_rate 0.203945
Core_0_STLB_demand_mpki 2.78309
Core_0_STLB_vberti_prefetch_access 0
Core_0_STLB_vberti_prefetch_hit 0
Core_0_STLB_vberti_prefetch_miss 0
Core_0_STLB_vberti_prefetch_mshr_merge 0
Core_0_STLB_vberti_prefetch_fill 0
Core_0_STLB_vberti_prefetch_miss_rate 0
Core_0_STLB_vberti_prefetch_mpki 0

=== STLB_vBerti Same/Cross-page Prefetch Stats ===
Core_0_STLB_vberti_same_page_prefetch 0
Core_0_STLB_vberti_same_page_prefetch_hit 0
Core_0_STLB_vberti_same_page_prefetch_miss 0
Core_0_STLB_vberti_same_page_prefetch_mshr_merge 0
Core_0_STLB_vberti_same_page_prefetch_fill 0
Core_0_STLB_vberti_same_page_prefetch_miss_rate 0
Core_0_STLB_vberti_same_page_prefetch_mpki 0
Core_0_STLB_vberti_cross_page_prefetch 0
Core_0_STLB_vberti_cross_page_prefetch_hit 0
Core_0_STLB_vberti_cross_page_prefetch_miss 0
Core_0_STLB_vberti_cross_page_prefetch_mshr_merge 0
Core_0_STLB_vberti_cross_page_prefetch_fill 0
Core_0_STLB_vberti_cross_page_prefetch_miss_rate 0
Core_0_STLB_vberti_cross_page_prefetch_mpki 0
Core_0_STLB_same_page_prefetch_miss_rate 0
Core_0_STLB_same_page_prefetch_mpki 0
Core_0_STLB_cross_page_prefetch_miss_rate 0
Core_0_STLB_cross_page_prefetch_mpki 0
Core_0_STLB_cross_page_prefetch_issued 0
Core_0_STLB_cross_page_prefetch_lookups 0
Core_0_STLB_cross_page_prefetch_useful 0
Core_0_STLB_cross_page_prefetch_useless 0
Core_0_STLB_cross_page_prefetch_late 0
Core_0_STLB_cross_page_prefetch_too_early 0
Core_0_STLB_cross_page_prefetch_too_early_among_fill 0
Core_0_STLB_cross_page_prefetch_too_early_among_useless 0
Core_0_STLB_cross_page_prefetch_pollution_evict 0
Core_0_STLB_cross_page_prefetch_pollution_demand 0
Core_0_STLB_cross_page_prefetch_pollution_among_prefetch_fill 0
Core_0_STLB_cross_page_prefetch_accuracy 0
Core_0_STLB_cross_page_prefetch_coverage 0

========= STLB Cross-page Prefetch Buffer Stats =========
Core_0_STLB_raw_demand_miss 278309
Core_0_CP_PB_insert 0
Core_0_CP_PB_demand_hit 0
Core_0_STLB_PB_demand_miss 278309
Core_0_CP_PB_coverage 0
Core_0_STLB_raw_demand_mpki 2.78309
Core_0_STLB_PB_demand_mpki 2.78309
Core_0_CP_PB_demand_hit_mpki 0

Core_0_TLB_demand_miss_rate 0.00841178
Core_0_TLB_demand_mpki 2.78309
Core_0_TLB_same_page_prefetch_miss_rate 0
Core_0_TLB_same_page_prefetch_mpki 0
Core_0_TLB_cross_page_prefetch_miss_rate 0
Core_0_TLB_cross_page_prefetch_mpki 0
Core_0_TLB_cross_page_prefetch_issued 0
Core_0_TLB_cross_page_prefetch_lookups 0
Core_0_TLB_cross_page_prefetch_useful 0
Core_0_TLB_cross_page_prefetch_useless 0
Core_0_TLB_cross_page_prefetch_late 0
Core_0_TLB_cross_page_prefetch_too_early 0
Core_0_TLB_cross_page_prefetch_too_early_among_fill 0
Core_0_TLB_cross_page_prefetch_too_early_among_useless 0
Core_0_TLB_cross_page_prefetch_accuracy 0
Core_0_TLB_cross_page_prefetch_coverage 0
