[VMEM] WARNING: physical memory size is smaller than virtual memory size.

*** ChampSim Multicore Out-of-Order Simulator ***
Warmup Instructions: 50000000
Simulation Instructions: 100000000
Number of CPUs: 1
Page size: 4096
Core 0: /data2/zcq/champsim_traces_xsbench/xs.XL100nuclide-577B.champsimtrace.xz
Off-chip DRAM Size: 16 GiB Channels: 1 Width: 64-bit Data Rate: 3205 MT/s
Warmup halting CPU 0 at instruction 50000000 cycle 34020593 for remainder of phase
Warmup finished CPU 0 instructions: 50000000 cycles: 34020593 cumulative IPC: 1.47 (Simulation time: 00 hr 05 min 32 sec)
Warmup complete CPU 0 instructions: 50000000 cycles: 34020593 cumulative IPC: 1.47 (Simulation time: 00 hr 05 min 32 sec)
Simulation finished CPU 0 instructions: 100000001 cycles: 644443418 cumulative IPC: 0.1552 (Simulation time: 00 hr 43 min 05 sec)
Simulation complete CPU 0 instructions: 100000001 cycles: 644443418 cumulative IPC: 0.1552 (Simulation time: 00 hr 43 min 05 sec)

ChampSim completed all CPUs

=== Simulation ===
CPU 0 runs /data2/zcq/champsim_traces_xsbench/xs.XL100nuclide-577B.champsimtrace.xz

Region of Interest Statistics

CPU 0 cumulative IPC: 0.1552 instructions: 100000001 cycles: 644443418
CPU 0 Branch Prediction Accuracy: 87.2% MPKI: 21.41 Average ROB Occupancy at Mispredict: 25.94
Branch type MPKI
BRANCH_DIRECT_JUMP: 0
BRANCH_INDIRECT: 0
BRANCH_CONDITIONAL: 21.41
BRANCH_DIRECT_CALL: 0
BRANCH_INDIRECT_CALL: 0
BRANCH_RETURN: 0

cpu0->cpu0_STLB TOTAL        ACCESS:    3807762 HIT:     140782 MISS:    3666980 MSHR_MERGE:          0
cpu0->cpu0_STLB LOAD         ACCESS:    3807762 HIT:     140782 MISS:    3666980 MSHR_MERGE:          0
cpu0->cpu0_STLB RFO          ACCESS:          0 HIT:          0 MISS:          0 MSHR_MERGE:          0
cpu0->cpu0_STLB PREFETCH     ACCESS:          0 HIT:          0 MISS:          0 MSHR_MERGE:          0
cpu0->cpu0_STLB WRITE        ACCESS:          0 HIT:          0 MISS:          0 MSHR_MERGE:          0
cpu0->cpu0_STLB TRANSLATION  ACCESS:          0 HIT:          0 MISS:          0 MSHR_MERGE:          0
cpu0->cpu0_STLB PREFETCH REQUESTED:          0 ISSUED:          0 USEFUL:          0 USELESS:          0 LATE:          0 TOO_EARLY:          0
cpu0->cpu0_STLB AVERAGE MISS LATENCY: 147.5 cycles
cpu0->cpu0_L2C TOTAL        ACCESS:    9188411 HIT:     698847 MISS:    8489564 MSHR_MERGE:       4559
cpu0->cpu0_L2C LOAD         ACCESS:    5911123 HIT:     286776 MISS:    5624347 MSHR_MERGE:        119
cpu0->cpu0_L2C RFO          ACCESS:      13694 HIT:      12709 MISS:        985 MSHR_MERGE:          0
cpu0->cpu0_L2C PREFETCH     ACCESS:     355615 HIT:     157348 MISS:     198267 MSHR_MERGE:       4440
cpu0->cpu0_L2C WRITE        ACCESS:      18300 HIT:      18234 MISS:         66 MSHR_MERGE:          0
cpu0->cpu0_L2C TRANSLATION  ACCESS:    2889679 HIT:     223780 MISS:    2665899 MSHR_MERGE:          0
cpu0->cpu0_L2C PREFETCH REQUESTED:     355615 ISSUED:     355615 USEFUL:      35011 USELESS:     158799 LATE:        119 TOO_EARLY:        200
cpu0->cpu0_L2C AVERAGE MISS LATENCY: 146.6 cycles
cpu0->cpu0_L1I TOTAL        ACCESS:      22140 HIT:      22140 MISS:          0 MSHR_MERGE:          0
cpu0->cpu0_L1I LOAD         ACCESS:      22140 HIT:      22140 MISS:          0 MSHR_MERGE:          0
cpu0->cpu0_L1I RFO          ACCESS:          0 HIT:          0 MISS:          0 MSHR_MERGE:          0
cpu0->cpu0_L1I PREFETCH     ACCESS:          0 HIT:          0 MISS:          0 MSHR_MERGE:          0
cpu0->cpu0_L1I WRITE        ACCESS:          0 HIT:          0 MISS:          0 MSHR_MERGE:          0
cpu0->cpu0_L1I TRANSLATION  ACCESS:          0 HIT:          0 MISS:          0 MSHR_MERGE:          0
cpu0->cpu0_L1I PREFETCH REQUESTED:          0 ISSUED:          0 USEFUL:          0 USELESS:          0 LATE:          0 TOO_EARLY:          0
cpu0->cpu0_L1I AVERAGE MISS LATENCY: - cycles
cpu0->cpu0_L1D TOTAL        ACCESS:   19329954 HIT:    9077620 MISS:   10252334 MSHR_MERGE:    1437820
cpu0->cpu0_L1D LOAD         ACCESS:    9633438 HIT:    3614305 MISS:    6019133 MSHR_MERGE:     108011
cpu0->cpu0_L1D RFO          ACCESS:          0 HIT:          0 MISS:          0 MSHR_MERGE:          0
cpu0->cpu0_L1D PREFETCH     ACCESS:          0 HIT:          0 MISS:          0 MSHR_MERGE:          0
cpu0->cpu0_L1D WRITE        ACCESS:    1893204 HIT:    1839999 MISS:      53205 MSHR_MERGE:      39492
cpu0->cpu0_L1D TRANSLATION  ACCESS:    7803312 HIT:    3623316 MISS:    4179996 MSHR_MERGE:    1290317
cpu0->cpu0_L1D PREFETCH REQUESTED:          0 ISSUED:          0 USEFUL:          0 USELESS:          0 LATE:          0 TOO_EARLY:          0
cpu0->cpu0_L1D AVERAGE MISS LATENCY: 146.9 cycles
cpu0->cpu0_ITLB TOTAL        ACCESS:      17984 HIT:      17984 MISS:          0 MSHR_MERGE:          0
cpu0->cpu0_ITLB LOAD         ACCESS:      17984 HIT:      17984 MISS:          0 MSHR_MERGE:          0
cpu0->cpu0_ITLB RFO          ACCESS:          0 HIT:          0 MISS:          0 MSHR_MERGE:          0
cpu0->cpu0_ITLB PREFETCH     ACCESS:          0 HIT:          0 MISS:          0 MSHR_MERGE:          0
cpu0->cpu0_ITLB WRITE        ACCESS:          0 HIT:          0 MISS:          0 MSHR_MERGE:          0
cpu0->cpu0_ITLB TRANSLATION  ACCESS:          0 HIT:          0 MISS:          0 MSHR_MERGE:          0
cpu0->cpu0_ITLB PREFETCH REQUESTED:          0 ISSUED:          0 USEFUL:          0 USELESS:          0 LATE:          0 TOO_EARLY:          0
cpu0->cpu0_ITLB AVERAGE MISS LATENCY: - cycles
cpu0->cpu0_DTLB TOTAL        ACCESS:   11407517 HIT:    7376101 MISS:    4031416 MSHR_MERGE:     223654
cpu0->cpu0_DTLB LOAD         ACCESS:   11407517 HIT:    7376101 MISS:    4031416 MSHR_MERGE:     223654
cpu0->cpu0_DTLB RFO          ACCESS:          0 HIT:          0 MISS:          0 MSHR_MERGE:          0
cpu0->cpu0_DTLB PREFETCH     ACCESS:          0 HIT:          0 MISS:          0 MSHR_MERGE:          0
cpu0->cpu0_DTLB WRITE        ACCESS:          0 HIT:          0 MISS:          0 MSHR_MERGE:          0
cpu0->cpu0_DTLB TRANSLATION  ACCESS:          0 HIT:          0 MISS:          0 MSHR_MERGE:          0
cpu0->cpu0_DTLB PREFETCH REQUESTED:          0 ISSUED:          0 USEFUL:          0 USELESS:          0 LATE:          0 TOO_EARLY:          0
cpu0->cpu0_DTLB AVERAGE MISS LATENCY: 148 cycles
cpu0->LLC TOTAL        ACCESS:    8488240 HIT:    2918816 MISS:    5569424 MSHR_MERGE:          0
cpu0->LLC LOAD         ACCESS:    5624228 HIT:    1374643 MISS:    4249585 MSHR_MERGE:          0
cpu0->LLC RFO          ACCESS:        985 HIT:        984 MISS:          1 MSHR_MERGE:          0
cpu0->LLC PREFETCH     ACCESS:     193826 HIT:      37398 MISS:     156428 MSHR_MERGE:          0
cpu0->LLC WRITE        ACCESS:       3302 HIT:       3286 MISS:         16 MSHR_MERGE:          0
cpu0->LLC TRANSLATION  ACCESS:    2665899 HIT:    1502505 MISS:    1163394 MSHR_MERGE:          0
cpu0->LLC PREFETCH REQUESTED:          0 ISSUED:          0 USEFUL:          0 USELESS:          0 LATE:          0 TOO_EARLY:          0
cpu0->LLC AVERAGE MISS LATENCY: 200.6 cycles

DRAM Statistics

Channel 0 RQ ROW_BUFFER_HIT:      57405
  ROW_BUFFER_MISS:    5512003
  AVG DBUS CONGESTED CYCLE: 2.939
Channel 0 WQ ROW_BUFFER_HIT:          5
  ROW_BUFFER_MISS:         11
  FULL:          0
Channel 0 REFRESHES ISSUED:      53703

[ROI Statistics]
[System Configuration]
num_cpus 1
cpu_freq 4000
fetch_width 6
decode_width 6
dispatch_width 6
execute_width 6
lq_width 2
sq_width 2
retire_width 6
scheduler_size 128
branch_mispredict_penalty 15
rob_size 352
lq_size 128
sq_size 72
ifetch_buffer_size 64
decode_buffer_size 32
dispatch_buffer_size 32
register_file_size 288
decode_latency 1
dispatch_latency 1
schedule_latency 1
execute_latency 1
page_size 4096
block_size 64
core_0_itlb_set 16
core_0_itlb_way 4
core_0_itlb_rq_size 16
core_0_itlb_wq_size 16
core_0_itlb_pq_size 0
core_0_itlb_mshr_size 8
core_0_itlb_hit_latency 1
core_0_itlb_fill_latency 1
core_0_itlb_max_tag_check 2
core_0_itlb_max_fill 2
core_0_dtlb_set 16
core_0_dtlb_way 4
core_0_dtlb_rq_size 16
core_0_dtlb_wq_size 16
core_0_dtlb_pq_size 0
core_0_dtlb_mshr_size 8
core_0_dtlb_hit_latency 1
core_0_dtlb_fill_latency 1
core_0_dtlb_max_tag_check 2
core_0_dtlb_max_fill 2
core_0_stlb_set 128
core_0_stlb_way 12
core_0_stlb_rq_size 32
core_0_stlb_wq_size 32
core_0_stlb_pq_size 0
core_0_stlb_mshr_size 16
core_0_stlb_hit_latency 4
core_0_stlb_fill_latency 4
core_0_stlb_max_tag_check 1
core_0_stlb_max_fill 1
core_0_l1i_set 64
core_0_l1i_way 8
core_0_l1i_rq_size 64
core_0_l1i_wq_size 64
core_0_l1i_pq_size 32
core_0_l1i_mshr_size 8
core_0_l1i_hit_latency 2
core_0_l1i_fill_latency 2
core_0_l1i_max_tag_check 2
core_0_l1i_max_fill 2
core_0_l1d_set 64
core_0_l1d_way 12
core_0_l1d_rq_size 64
core_0_l1d_wq_size 64
core_0_l1d_pq_size 8
core_0_l1d_mshr_size 16
core_0_l1d_hit_latency 2
core_0_l1d_fill_latency 3
core_0_l1d_max_tag_check 2
core_0_l1d_max_fill 2
core_0_l2c_set 1024
core_0_l2c_way 8
core_0_l2c_rq_size 32
core_0_l2c_wq_size 32
core_0_l2c_pq_size 16
core_0_l2c_mshr_size 32
core_0_l2c_hit_latency 5
core_0_l2c_fill_latency 5
core_0_l2c_max_tag_check 1
core_0_l2c_max_fill 1
llc_set 2048
llc_way 16
llc_rq_size 32
llc_wq_size 32
llc_pq_size 32
llc_mshr_size 64
llc_hit_latency 10
llc_fill_latency 10
llc_max_tag_check 1
llc_max_fill 1
dram_channels 1
dram_ranks 1
dram_bankgroups 8
dram_banks 4
dram_rows 65536
dram_columns 1024
dram_channel_width 8
dram_rq_size 64
dram_wq_size 64
dram_size 17179869184
core_0_itlb_prefetcher no
core_0_dtlb_prefetcher no
core_0_stlb_prefetcher no
core_0_l1i_prefetcher next_line
core_0_l1d_prefetcher no
core_0_l2c_prefetcher ip_stride
llc_prefetcher no
llc_replacement drrip

Core_0_instructions 100000001
Core_0_cycles 644443418
Core_0_IPC 0.155173
Core_0_branch_prediction_accuracy 87.198
Core_0_branch_MPKI 21.4067
Core_0_average_ROB_occupancy_at_mispredict 25.9413

Core_0_ITLB_total_access 17984
Core_0_ITLB_total_hit 17984
Core_0_ITLB_total_miss 0
Core_0_ITLB_total_MPKI 0
Core_0_ITLB_total_miss_rate 0
Core_0_ITLB_demand_access 17984
Core_0_ITLB_demand_hit 17984
Core_0_ITLB_demand_miss 0
Core_0_ITLB_demand_MPKI 0
Core_0_ITLB_demand_miss_rate 0
Core_0_ITLB_load_access 17984
Core_0_ITLB_load_hit 17984
Core_0_ITLB_load_miss 0
Core_0_ITLB_load_MPKI 0
Core_0_ITLB_load_miss_rate 0
Core_0_ITLB_rfo_access 0
Core_0_ITLB_rfo_hit 0
Core_0_ITLB_rfo_miss 0
Core_0_ITLB_rfo_MPKI 0
Core_0_ITLB_rfo_miss_rate 0
Core_0_ITLB_prefetch_access 0
Core_0_ITLB_prefetch_hit 0
Core_0_ITLB_prefetch_miss 0
Core_0_ITLB_prefetch_MPKI 0
Core_0_ITLB_prefetch_miss_rate 0
Core_0_ITLB_writeback_access 0
Core_0_ITLB_writeback_hit 0
Core_0_ITLB_writeback_miss 0
Core_0_ITLB_writeback_MPKI 0
Core_0_ITLB_writeback_miss_rate 0
Core_0_ITLB_prefetch_requested 0
Core_0_ITLB_prefetch_issued 0
Core_0_ITLB_prefetch_useful 0
Core_0_ITLB_prefetch_useless 0
Core_0_ITLB_prefetch_late 0
Core_0_ITLB_prefetch_fill 0
Core_0_ITLB_prefetch_too_early 0
Core_0_ITLB_prefetch_too_early_among_fill 0
Core_0_ITLB_prefetch_too_early_among_useless 0
Core_0_ITLB_prefetch_pollution_evict 0
Core_0_ITLB_prefetch_pollution_demand 0
Core_0_ITLB_prefetch_pollution_among_prefetch_fill 0
Core_0_ITLB_prefetch_accuracy 0
Core_0_ITLB_prefetch_coverage 0

Core_0_DTLB_total_access 11407517
Core_0_DTLB_total_hit 7376101
Core_0_DTLB_total_miss 4031416
Core_0_DTLB_total_MPKI 40.3142
Core_0_DTLB_total_miss_rate 0.3534
Core_0_DTLB_demand_access 11407517
Core_0_DTLB_demand_hit 7376101
Core_0_DTLB_demand_miss 4031416
Core_0_DTLB_demand_MPKI 40.3142
Core_0_DTLB_demand_miss_rate 0.3534
Core_0_DTLB_load_access 11407517
Core_0_DTLB_load_hit 7376101
Core_0_DTLB_load_miss 4031416
Core_0_DTLB_load_MPKI 40.3142
Core_0_DTLB_load_miss_rate 0.3534
Core_0_DTLB_rfo_access 0
Core_0_DTLB_rfo_hit 0
Core_0_DTLB_rfo_miss 0
Core_0_DTLB_rfo_MPKI 0
Core_0_DTLB_rfo_miss_rate 0
Core_0_DTLB_prefetch_access 0
Core_0_DTLB_prefetch_hit 0
Core_0_DTLB_prefetch_miss 0
Core_0_DTLB_prefetch_MPKI 0
Core_0_DTLB_prefetch_miss_rate 0
Core_0_DTLB_writeback_access 0
Core_0_DTLB_writeback_hit 0
Core_0_DTLB_writeback_miss 0
Core_0_DTLB_writeback_MPKI 0
Core_0_DTLB_writeback_miss_rate 0
Core_0_DTLB_prefetch_requested 0
Core_0_DTLB_prefetch_issued 0
Core_0_DTLB_prefetch_useful 0
Core_0_DTLB_prefetch_useless 0
Core_0_DTLB_prefetch_late 0
Core_0_DTLB_prefetch_fill 0
Core_0_DTLB_prefetch_too_early 0
Core_0_DTLB_prefetch_too_early_among_fill 0
Core_0_DTLB_prefetch_too_early_among_useless 0
Core_0_DTLB_prefetch_pollution_evict 0
Core_0_DTLB_prefetch_pollution_demand 0
Core_0_DTLB_prefetch_pollution_among_prefetch_fill 0
Core_0_DTLB_prefetch_accuracy 0
Core_0_DTLB_prefetch_coverage 0

Core_0_STLB_total_access 3807762
Core_0_STLB_total_hit 140782
Core_0_STLB_total_miss 3666980
Core_0_STLB_total_MPKI 36.6698
Core_0_STLB_total_miss_rate 0.963028
Core_0_STLB_demand_access 3807762
Core_0_STLB_demand_hit 140782
Core_0_STLB_demand_miss 3666980
Core_0_STLB_demand_MPKI 36.6698
Core_0_STLB_demand_miss_rate 0.963028
Core_0_STLB_load_access 3807762
Core_0_STLB_load_hit 140782
Core_0_STLB_load_miss 3666980
Core_0_STLB_load_MPKI 36.6698
Core_0_STLB_load_miss_rate 0.963028
Core_0_STLB_rfo_access 0
Core_0_STLB_rfo_hit 0
Core_0_STLB_rfo_miss 0
Core_0_STLB_rfo_MPKI 0
Core_0_STLB_rfo_miss_rate 0
Core_0_STLB_prefetch_access 0
Core_0_STLB_prefetch_hit 0
Core_0_STLB_prefetch_miss 0
Core_0_STLB_prefetch_MPKI 0
Core_0_STLB_prefetch_miss_rate 0
Core_0_STLB_writeback_access 0
Core_0_STLB_writeback_hit 0
Core_0_STLB_writeback_miss 0
Core_0_STLB_writeback_MPKI 0
Core_0_STLB_writeback_miss_rate 0
Core_0_STLB_prefetch_requested 0
Core_0_STLB_prefetch_issued 0
Core_0_STLB_prefetch_useful 0
Core_0_STLB_prefetch_useless 0
Core_0_STLB_prefetch_late 0
Core_0_STLB_prefetch_fill 0
Core_0_STLB_prefetch_too_early 0
Core_0_STLB_prefetch_too_early_among_fill 0
Core_0_STLB_prefetch_too_early_among_useless 0
Core_0_STLB_prefetch_pollution_evict 0
Core_0_STLB_prefetch_pollution_demand 0
Core_0_STLB_prefetch_pollution_among_prefetch_fill 0
Core_0_STLB_prefetch_accuracy 0
Core_0_STLB_prefetch_coverage 0

Core_0_L1I_total_access 22140
Core_0_L1I_total_hit 22140
Core_0_L1I_total_miss 0
Core_0_L1I_total_MPKI 0
Core_0_L1I_total_miss_rate 0
Core_0_L1I_demand_access 22140
Core_0_L1I_demand_hit 22140
Core_0_L1I_demand_miss 0
Core_0_L1I_demand_MPKI 0
Core_0_L1I_demand_miss_rate 0
Core_0_L1I_load_access 22140
Core_0_L1I_load_hit 22140
Core_0_L1I_load_miss 0
Core_0_L1I_load_MPKI 0
Core_0_L1I_load_miss_rate 0
Core_0_L1I_rfo_access 0
Core_0_L1I_rfo_hit 0
Core_0_L1I_rfo_miss 0
Core_0_L1I_rfo_MPKI 0
Core_0_L1I_rfo_miss_rate 0
Core_0_L1I_prefetch_access 0
Core_0_L1I_prefetch_hit 0
Core_0_L1I_prefetch_miss 0
Core_0_L1I_prefetch_MPKI 0
Core_0_L1I_prefetch_miss_rate 0
Core_0_L1I_writeback_access 0
Core_0_L1I_writeback_hit 0
Core_0_L1I_writeback_miss 0
Core_0_L1I_writeback_MPKI 0
Core_0_L1I_writeback_miss_rate 0
Core_0_L1I_prefetch_requested 0
Core_0_L1I_prefetch_issued 0
Core_0_L1I_prefetch_useful 0
Core_0_L1I_prefetch_useless 0
Core_0_L1I_prefetch_late 0
Core_0_L1I_prefetch_fill 0
Core_0_L1I_prefetch_too_early 0
Core_0_L1I_prefetch_too_early_among_fill 0
Core_0_L1I_prefetch_too_early_among_useless 0
Core_0_L1I_prefetch_pollution_evict 0
Core_0_L1I_prefetch_pollution_demand 0
Core_0_L1I_prefetch_pollution_among_prefetch_fill 0
Core_0_L1I_prefetch_accuracy 0
Core_0_L1I_prefetch_coverage 0

Core_0_L1D_total_access 11526642
Core_0_L1D_total_hit 5454304
Core_0_L1D_total_miss 6072338
Core_0_L1D_total_MPKI 60.7234
Core_0_L1D_total_miss_rate 0.526809
Core_0_L1D_demand_access 9633438
Core_0_L1D_demand_hit 3614305
Core_0_L1D_demand_miss 6019133
Core_0_L1D_demand_MPKI 60.1913
Core_0_L1D_demand_miss_rate 0.624817
Core_0_L1D_load_access 9633438
Core_0_L1D_load_hit 3614305
Core_0_L1D_load_miss 6019133
Core_0_L1D_load_MPKI 60.1913
Core_0_L1D_load_miss_rate 0.624817
Core_0_L1D_rfo_access 0
Core_0_L1D_rfo_hit 0
Core_0_L1D_rfo_miss 0
Core_0_L1D_rfo_MPKI 0
Core_0_L1D_rfo_miss_rate 0
Core_0_L1D_prefetch_access 0
Core_0_L1D_prefetch_hit 0
Core_0_L1D_prefetch_miss 0
Core_0_L1D_prefetch_MPKI 0
Core_0_L1D_prefetch_miss_rate 0
Core_0_L1D_writeback_access 1893204
Core_0_L1D_writeback_hit 1839999
Core_0_L1D_writeback_miss 53205
Core_0_L1D_writeback_MPKI 0.53205
Core_0_L1D_writeback_miss_rate 0.0281032
Core_0_L1D_prefetch_requested 0
Core_0_L1D_prefetch_issued 0
Core_0_L1D_prefetch_useful 0
Core_0_L1D_prefetch_useless 0
Core_0_L1D_prefetch_late 0
Core_0_L1D_prefetch_fill 0
Core_0_L1D_prefetch_too_early 0
Core_0_L1D_prefetch_too_early_among_fill 0
Core_0_L1D_prefetch_too_early_among_useless 0
Core_0_L1D_prefetch_pollution_evict 0
Core_0_L1D_prefetch_pollution_demand 0
Core_0_L1D_prefetch_pollution_among_prefetch_fill 0
Core_0_L1D_prefetch_accuracy 0
Core_0_L1D_prefetch_coverage 0

Core_0_L2C_total_access 6298732
Core_0_L2C_total_hit 475067
Core_0_L2C_total_miss 5823665
Core_0_L2C_total_MPKI 58.2366
Core_0_L2C_total_miss_rate 0.924577
Core_0_L2C_demand_access 5924817
Core_0_L2C_demand_hit 299485
Core_0_L2C_demand_miss 5625332
Core_0_L2C_demand_MPKI 56.2533
Core_0_L2C_demand_miss_rate 0.949452
Core_0_L2C_load_access 5911123
Core_0_L2C_load_hit 286776
Core_0_L2C_load_miss 5624347
Core_0_L2C_load_MPKI 56.2435
Core_0_L2C_load_miss_rate 0.951485
Core_0_L2C_rfo_access 13694
Core_0_L2C_rfo_hit 12709
Core_0_L2C_rfo_miss 985
Core_0_L2C_rfo_MPKI 0.00985
Core_0_L2C_rfo_miss_rate 0.0719293
Core_0_L2C_prefetch_access 355615
Core_0_L2C_prefetch_hit 157348
Core_0_L2C_prefetch_miss 198267
Core_0_L2C_prefetch_MPKI 1.98267
Core_0_L2C_prefetch_miss_rate 0.557533
Core_0_L2C_writeback_access 18300
Core_0_L2C_writeback_hit 18234
Core_0_L2C_writeback_miss 66
Core_0_L2C_writeback_MPKI 0.00066
Core_0_L2C_writeback_miss_rate 0.00360656
Core_0_L2C_prefetch_requested 355615
Core_0_L2C_prefetch_issued 355615
Core_0_L2C_prefetch_useful 35011
Core_0_L2C_prefetch_useless 158799
Core_0_L2C_prefetch_late 119
Core_0_L2C_prefetch_fill 193707
Core_0_L2C_prefetch_too_early 200
Core_0_L2C_prefetch_too_early_among_fill 0.00103249
Core_0_L2C_prefetch_too_early_among_useless 0.00125945
Core_0_L2C_prefetch_pollution_evict 45357
Core_0_L2C_prefetch_pollution_demand 45355
Core_0_L2C_prefetch_pollution_among_prefetch_fill 0.234153
Core_0_L2C_prefetch_accuracy 0.098452
Core_0_L2C_prefetch_coverage 0.00618531

Core_0_LLC_total_access 5822341
Core_0_LLC_total_hit 1416311
Core_0_LLC_total_miss 4406030
Core_0_LLC_total_MPKI 44.0603
Core_0_LLC_total_miss_rate 0.756745
Core_0_LLC_demand_access 5625213
Core_0_LLC_demand_hit 1375627
Core_0_LLC_demand_miss 4249586
Core_0_LLC_demand_MPKI 42.4959
Core_0_LLC_demand_miss_rate 0.755453
Core_0_LLC_load_access 5624228
Core_0_LLC_load_hit 1374643
Core_0_LLC_load_miss 4249585
Core_0_LLC_load_MPKI 42.4958
Core_0_LLC_load_miss_rate 0.755585
Core_0_LLC_rfo_access 985
Core_0_LLC_rfo_hit 984
Core_0_LLC_rfo_miss 1
Core_0_LLC_rfo_MPKI 1e-05
Core_0_LLC_rfo_miss_rate 0.00101523
Core_0_LLC_prefetch_access 193826
Core_0_LLC_prefetch_hit 37398
Core_0_LLC_prefetch_miss 156428
Core_0_LLC_prefetch_MPKI 1.56428
Core_0_LLC_prefetch_miss_rate 0.807054
Core_0_LLC_writeback_access 3302
Core_0_LLC_writeback_hit 3286
Core_0_LLC_writeback_miss 16
Core_0_LLC_writeback_MPKI 0.00016
Core_0_LLC_writeback_miss_rate 0.00484555
Core_0_LLC_prefetch_requested 0
Core_0_LLC_prefetch_issued 0
Core_0_LLC_prefetch_useful 0
Core_0_LLC_prefetch_useless 0
Core_0_LLC_prefetch_late 0
Core_0_LLC_prefetch_fill 156428
Core_0_LLC_prefetch_too_early 0
Core_0_LLC_prefetch_too_early_among_fill 0
Core_0_LLC_prefetch_too_early_among_useless 0
Core_0_LLC_prefetch_pollution_evict 36177
Core_0_LLC_prefetch_pollution_demand 36177
Core_0_LLC_prefetch_pollution_among_prefetch_fill 0.231269
Core_0_LLC_prefetch_accuracy 0
Core_0_LLC_prefetch_coverage 0

[DRAM Statistics]
Channel_0_RQ_row_buffer_hit 57405
Channel_0_RQ_row_buffer_miss 5512003
Channel_0_WQ_row_buffer_hit 5
Channel_0_WQ_row_buffer_miss 11
Channel_0_WQ_full 0
Channel_0_dbus_congested 5940948
DRAM_total_RQ_row_buffer_hit 57405
DRAM_total_RQ_row_buffer_miss 5512003
DRAM_total_WQ_row_buffer_hit 5
DRAM_total_WQ_row_buffer_miss 11
DRAM_total_WQ_full 0
DRAM_total_dbus_congested 5940948
DRAM_avg_congested_cycle 2.93869

====== DRAM_RQ_TRAFFIC ========
DRAM_RQ_READ_TRAFFIC_BREAKDOWN:
data_demand_read.count = 4249586
data_demand_read.share = 76.30%

inst_demand_read.count = 0
inst_demand_read.share = 0.00%

cache_inst_prefetch.count = 0
cache_inst_prefetch.share = 0.00%

cache_data_prefetch.count = 156428
cache_data_prefetch.share = 2.81%

stlb_data_demand.count = 1163394
stlb_data_demand.share = 20.89%

stlb_inst_demand.count = 0
stlb_inst_demand.share = 0.00%

stlb_l1i_pref.count = 0
stlb_l1i_pref.share = 0.00%

stlb_l1d_pref.count = 0
stlb_l1d_pref.share = 0.00%

DRAM_RQ_READ_TRAFFIC_SUMMARY:
cache_demand.count = 4249586
cache_demand.share = 76.30%

cache_prefetch.count = 156428
cache_prefetch.share = 2.81%

stlb_demand.count = 1163394
stlb_demand.share = 20.89%

stlb_prefetch.count = 0
stlb_prefetch.share = 0.00%

DRAM_RQ_READ_TRAFFIC_DEBUG:
total_classified_read.count = 5569408
unclassified_read.count = 0
total_read_with_other.count = 5569408

classified_plus_unclassified_check.count = 5569408
dram_rq_read_total_observed.count = 5569408
dram_rq_read_total_observed.per_1K_instructions = 55.6941

STLB_MISS_PTW_DRAM_TOUCH_BREAKDOWN:
stlb_miss_total.count = 3666980

stlb_miss_touch_dram.count = 1168804
stlb_miss_touch_dram.share = 31.87%

stlb_miss_no_dram_touch.count = 2498176
stlb_miss_no_dram_touch.share = 68.13%

STLB_MISS_PTW_DRAM_TOUCH_DEBUG:
stlb_miss_touch_plus_no_touch.count = 3666980
stlb_miss_total_check.count = 3666980

======STLB miss causes ========
Core_0_STLB_miss_cause_breakdown
Core_0_STLB_cause_Demand_Data_miss 3666980
Core_0_STLB_cause_Demand_Data_miss_rate 0.963028
Core_0_STLB_cause_Demand_Instruction_miss 0
Core_0_STLB_cause_Demand_Instruction_miss_rate 0
Core_0_STLB_cause_L1D_Prefetch_miss 0
Core_0_STLB_cause_L1D_Prefetch_miss_rate 0
Core_0_STLB_cause_L1D_Prefetch_Same_Page_miss 0
Core_0_STLB_cause_L1D_Prefetch_Same_Page_miss_rate 0
Core_0_STLB_cause_L1D_Prefetch_Cross_Page_miss 0
Core_0_STLB_cause_L1D_Prefetch_Cross_Page_miss_rate 0
Core_0_STLB_cause_L1I_Prefetch_miss 0
Core_0_STLB_cause_L1I_Prefetch_miss_rate 0
Core_0_STLB_cause_Other_miss 0
Core_0_STLB_cause_Other_miss_rate 0
Core_0_STLB_Demand_miss 3666980
Core_0_STLB_Demand_miss_rate 0.963028
Core_0_STLB_L1D_Prefetch_miss 0
Core_0_STLB_L1D_Prefetch_miss_rate 0
Core_0_STLB_Other_miss 0
Core_0_STLB_Other_miss_rate 0

========== vBerti-TLB Cross-page Flow Stats ==========

Core_0_vBerti_Requested 0
Core_0_vBerti_Cross_page_prefetch_in_Requested 0
Core_0_vBerti_Same_page_prefetch_in_Requested 0
Core_0_vBerti_Cross_page_prefetch_of_Requested 0
Core_0_vBerti_Issued 0
Core_0_vBerti_PQ_Drop_Rate 0
Core_0_vBerti_InPQ_Cross_page_prefetch_of_Requested 0
Core_0_vBerti_Cross_page_PQ_Drop_rate 0
Core_0_vBerti_Cross_page_prefetch_of_Issued 0

========= DTLB_vBerti Prefetch Stats =========
Core_0_DTLB_demand_access 11407517
Core_0_DTLB_demand_hit 7376101
Core_0_DTLB_demand_miss 4031416
Core_0_DTLB_demand_mshr_merge 223654
Core_0_DTLB_demand_fill 3807762
Core_0_DTLB_demand_miss_rate 0.3534
Core_0_DTLB_demand_mpki 40.3142
Core_0_DTLB_vberti_prefetch_access 0
Core_0_DTLB_vberti_prefetch_hit 0
Core_0_DTLB_vberti_prefetch_miss 0
Core_0_DTLB_vberti_prefetch_mshr_merge 0
Core_0_DTLB_vberti_prefetch_fill 0
Core_0_DTLB_vberti_prefetch_miss_rate 0
Core_0_DTLB_vberti_prefetch_mpki 0

=== DTLB_vBerti Same/Cross-page Prefetch Stats ===
Core_0_DTLB_vberti_same_page_prefetch 0
Core_0_DTLB_vberti_same_page_prefetch_hit 0
Core_0_DTLB_vberti_same_page_prefetch_miss 0
Core_0_DTLB_vberti_same_page_prefetch_mshr_merge 0
Core_0_DTLB_vberti_same_page_prefetch_fill 0
Core_0_DTLB_vberti_same_page_prefetch_miss_rate 0
Core_0_DTLB_vberti_same_page_prefetch_mpki 0
Core_0_DTLB_vberti_cross_page_prefetch 0
Core_0_DTLB_vberti_cross_page_prefetch_hit 0
Core_0_DTLB_vberti_cross_page_prefetch_miss 0
Core_0_DTLB_vberti_cross_page_prefetch_mshr_merge 0
Core_0_DTLB_vberti_cross_page_prefetch_fill 0
Core_0_DTLB_vberti_cross_page_prefetch_miss_rate 0
Core_0_DTLB_vberti_cross_page_prefetch_mpki 0
Core_0_DTLB_same_page_prefetch_miss_rate 0
Core_0_DTLB_same_page_prefetch_mpki 0
Core_0_DTLB_cross_page_prefetch_miss_rate 0
Core_0_DTLB_cross_page_prefetch_mpki 0
Core_0_DTLB_cross_page_prefetch_issued 0
Core_0_DTLB_cross_page_prefetch_lookups 0
Core_0_DTLB_cross_page_prefetch_useful 0
Core_0_DTLB_cross_page_prefetch_useless 0
Core_0_DTLB_cross_page_prefetch_late 0
Core_0_DTLB_cross_page_prefetch_too_early 0
Core_0_DTLB_cross_page_prefetch_too_early_among_fill 0
Core_0_DTLB_cross_page_prefetch_too_early_among_useless 0
Core_0_DTLB_cross_page_prefetch_pollution_evict 0
Core_0_DTLB_cross_page_prefetch_pollution_demand 0
Core_0_DTLB_cross_page_prefetch_pollution_among_prefetch_fill 0
Core_0_DTLB_cross_page_prefetch_accuracy 0
Core_0_DTLB_cross_page_prefetch_coverage 0

========= STLB_vBerti Prefetch Stats =========
Core_0_STLB_demand_access 3807762
Core_0_STLB_demand_hit 140782
Core_0_STLB_demand_miss 3666980
Core_0_STLB_demand_mshr_merge 0
Core_0_STLB_demand_fill 3666980
Core_0_STLB_demand_miss_rate 0.963028
Core_0_STLB_demand_mpki 36.6698
Core_0_STLB_vberti_prefetch_access 0
Core_0_STLB_vberti_prefetch_hit 0
Core_0_STLB_vberti_prefetch_miss 0
Core_0_STLB_vberti_prefetch_mshr_merge 0
Core_0_STLB_vberti_prefetch_fill 0
Core_0_STLB_vberti_prefetch_miss_rate 0
Core_0_STLB_vberti_prefetch_mpki 0

=== STLB_vBerti Same/Cross-page Prefetch Stats ===
Core_0_STLB_vberti_same_page_prefetch 0
Core_0_STLB_vberti_same_page_prefetch_hit 0
Core_0_STLB_vberti_same_page_prefetch_miss 0
Core_0_STLB_vberti_same_page_prefetch_mshr_merge 0
Core_0_STLB_vberti_same_page_prefetch_fill 0
Core_0_STLB_vberti_same_page_prefetch_miss_rate 0
Core_0_STLB_vberti_same_page_prefetch_mpki 0
Core_0_STLB_vberti_cross_page_prefetch 0
Core_0_STLB_vberti_cross_page_prefetch_hit 0
Core_0_STLB_vberti_cross_page_prefetch_miss 0
Core_0_STLB_vberti_cross_page_prefetch_mshr_merge 0
Core_0_STLB_vberti_cross_page_prefetch_fill 0
Core_0_STLB_vberti_cross_page_prefetch_miss_rate 0
Core_0_STLB_vberti_cross_page_prefetch_mpki 0
Core_0_STLB_same_page_prefetch_miss_rate 0
Core_0_STLB_same_page_prefetch_mpki 0
Core_0_STLB_cross_page_prefetch_miss_rate 0
Core_0_STLB_cross_page_prefetch_mpki 0
Core_0_STLB_cross_page_prefetch_issued 0
Core_0_STLB_cross_page_prefetch_lookups 0
Core_0_STLB_cross_page_prefetch_useful 0
Core_0_STLB_cross_page_prefetch_useless 0
Core_0_STLB_cross_page_prefetch_late 0
Core_0_STLB_cross_page_prefetch_too_early 0
Core_0_STLB_cross_page_prefetch_too_early_among_fill 0
Core_0_STLB_cross_page_prefetch_too_early_among_useless 0
Core_0_STLB_cross_page_prefetch_pollution_evict 0
Core_0_STLB_cross_page_prefetch_pollution_demand 0
Core_0_STLB_cross_page_prefetch_pollution_among_prefetch_fill 0
Core_0_STLB_cross_page_prefetch_accuracy 0
Core_0_STLB_cross_page_prefetch_coverage 0

========= STLB Cross-page Prefetch Buffer Stats =========
Core_0_STLB_raw_demand_miss 3666980
Core_0_CP_PB_insert 0
Core_0_CP_PB_demand_hit 0
Core_0_STLB_PB_demand_miss 3666980
Core_0_CP_PB_coverage 0
Core_0_STLB_raw_demand_mpki 36.6698
Core_0_STLB_PB_demand_mpki 36.6698
Core_0_CP_PB_demand_hit_mpki 0

Core_0_TLB_demand_miss_rate 0.321453
Core_0_TLB_demand_mpki 36.6698
Core_0_TLB_same_page_prefetch_miss_rate 0
Core_0_TLB_same_page_prefetch_mpki 0
Core_0_TLB_cross_page_prefetch_miss_rate 0
Core_0_TLB_cross_page_prefetch_mpki 0
Core_0_TLB_cross_page_prefetch_issued 0
Core_0_TLB_cross_page_prefetch_lookups 0
Core_0_TLB_cross_page_prefetch_useful 0
Core_0_TLB_cross_page_prefetch_useless 0
Core_0_TLB_cross_page_prefetch_late 0
Core_0_TLB_cross_page_prefetch_too_early 0
Core_0_TLB_cross_page_prefetch_too_early_among_fill 0
Core_0_TLB_cross_page_prefetch_too_early_among_useless 0
Core_0_TLB_cross_page_prefetch_accuracy 0
Core_0_TLB_cross_page_prefetch_coverage 0
