[VMEM] WARNING: physical memory size is smaller than virtual memory size.

*** ChampSim Multicore Out-of-Order Simulator ***
Warmup Instructions: 20000000
Simulation Instructions: 50000000
Number of CPUs: 1
Page size: 4096
Core 0: /data0/tzh/champsim_traces/SPEC06/481.wrf-1170B.champsimtrace.xz
Off-chip DRAM Size: 16 GiB Channels: 1 Width: 64-bit Data Rate: 3205 MT/s
Warmup halting CPU 0 at instruction 20000005 cycle 4723135 for remainder of phase
Warmup finished CPU 0 instructions: 20000005 cycles: 4723135 cumulative IPC: 4.234 (Simulation time: 00 hr 01 min 13 sec)
Warmup complete CPU 0 instructions: 20000005 cycles: 4723135 cumulative IPC: 4.234 (Simulation time: 00 hr 01 min 13 sec)
Simulation finished CPU 0 instructions: 50000005 cycles: 20835670 cumulative IPC: 2.4 (Simulation time: 00 hr 05 min 45 sec)
Simulation complete CPU 0 instructions: 50000005 cycles: 20835670 cumulative IPC: 2.4 (Simulation time: 00 hr 05 min 45 sec)

ChampSim completed all CPUs

=== Simulation ===
CPU 0 runs /data0/tzh/champsim_traces/SPEC06/481.wrf-1170B.champsimtrace.xz

Region of Interest Statistics

CPU 0 cumulative IPC: 2.4 instructions: 50000005 cycles: 20835670
CPU 0 Branch Prediction Accuracy: 99.96% MPKI: 0.06014 Average ROB Occupancy at Mispredict: 339.5
Branch type MPKI
BRANCH_DIRECT_JUMP: 0
BRANCH_INDIRECT: 0
BRANCH_CONDITIONAL: 0.06014
BRANCH_DIRECT_CALL: 0
BRANCH_INDIRECT_CALL: 0
BRANCH_RETURN: 0

cpu0->cpu0_STLB TOTAL        ACCESS:      73006 HIT:      72606 MISS:        400 MSHR_MERGE:          0
cpu0->cpu0_STLB LOAD         ACCESS:      73006 HIT:      72606 MISS:        400 MSHR_MERGE:          0
cpu0->cpu0_STLB RFO          ACCESS:          0 HIT:          0 MISS:          0 MSHR_MERGE:          0
cpu0->cpu0_STLB PREFETCH     ACCESS:          0 HIT:          0 MISS:          0 MSHR_MERGE:          0
cpu0->cpu0_STLB WRITE        ACCESS:          0 HIT:          0 MISS:          0 MSHR_MERGE:          0
cpu0->cpu0_STLB TRANSLATION  ACCESS:          0 HIT:          0 MISS:          0 MSHR_MERGE:          0
cpu0->cpu0_STLB PREFETCH REQUESTED:          0 ISSUED:          0 USEFUL:          0 USELESS:          0 LATE:          0
cpu0->cpu0_STLB AVERAGE MISS LATENCY: 246.8 cycles
cpu0->cpu0_L2C TOTAL        ACCESS:     362438 HIT:     338955 MISS:      23483 MSHR_MERGE:          0
cpu0->cpu0_L2C LOAD         ACCESS:     199712 HIT:     176587 MISS:      23125 MSHR_MERGE:          0
cpu0->cpu0_L2C RFO          ACCESS:      58187 HIT:      57918 MISS:        269 MSHR_MERGE:          0
cpu0->cpu0_L2C PREFETCH     ACCESS:          0 HIT:          0 MISS:          0 MSHR_MERGE:          0
cpu0->cpu0_L2C WRITE        ACCESS:     104381 HIT:     104349 MISS:         32 MSHR_MERGE:          0
cpu0->cpu0_L2C TRANSLATION  ACCESS:        158 HIT:        101 MISS:         57 MSHR_MERGE:          0
cpu0->cpu0_L2C PREFETCH REQUESTED:          0 ISSUED:          0 USEFUL:          0 USELESS:          0 LATE:          0
cpu0->cpu0_L2C AVERAGE MISS LATENCY: 203.4 cycles
cpu0->cpu0_L1I TOTAL        ACCESS:    9598419 HIT:    9503991 MISS:      94428 MSHR_MERGE:      31833
cpu0->cpu0_L1I LOAD         ACCESS:    9598419 HIT:    9503991 MISS:      94428 MSHR_MERGE:      31833
cpu0->cpu0_L1I RFO          ACCESS:          0 HIT:          0 MISS:          0 MSHR_MERGE:          0
cpu0->cpu0_L1I PREFETCH     ACCESS:          0 HIT:          0 MISS:          0 MSHR_MERGE:          0
cpu0->cpu0_L1I WRITE        ACCESS:          0 HIT:          0 MISS:          0 MSHR_MERGE:          0
cpu0->cpu0_L1I TRANSLATION  ACCESS:          0 HIT:          0 MISS:          0 MSHR_MERGE:          0
cpu0->cpu0_L1I PREFETCH REQUESTED:          0 ISSUED:          0 USEFUL:          0 USELESS:          0 LATE:          0
cpu0->cpu0_L1I AVERAGE MISS LATENCY: 7.013 cycles
cpu0->cpu0_L1D TOTAL        ACCESS:   16221092 HIT:   15983533 MISS:     237559 MSHR_MERGE:      42040
cpu0->cpu0_L1D LOAD         ACCESS:    8447786 HIT:    8306451 MISS:     141335 MSHR_MERGE:       4212
cpu0->cpu0_L1D RFO          ACCESS:          0 HIT:          0 MISS:          0 MSHR_MERGE:          0
cpu0->cpu0_L1D PREFETCH     ACCESS:          0 HIT:          0 MISS:          0 MSHR_MERGE:          0
cpu0->cpu0_L1D WRITE        ACCESS:    7772507 HIT:    7676442 MISS:      96065 MSHR_MERGE:      37827
cpu0->cpu0_L1D TRANSLATION  ACCESS:        799 HIT:        640 MISS:        159 MSHR_MERGE:          1
cpu0->cpu0_L1D PREFETCH REQUESTED:          0 ISSUED:          0 USEFUL:          0 USELESS:          0 LATE:          0
cpu0->cpu0_L1D AVERAGE MISS LATENCY: 32.59 cycles
cpu0->cpu0_ITLB TOTAL        ACCESS:    8216971 HIT:    8216971 MISS:          0 MSHR_MERGE:          0
cpu0->cpu0_ITLB LOAD         ACCESS:    8216971 HIT:    8216971 MISS:          0 MSHR_MERGE:          0
cpu0->cpu0_ITLB RFO          ACCESS:          0 HIT:          0 MISS:          0 MSHR_MERGE:          0
cpu0->cpu0_ITLB PREFETCH     ACCESS:          0 HIT:          0 MISS:          0 MSHR_MERGE:          0
cpu0->cpu0_ITLB WRITE        ACCESS:          0 HIT:          0 MISS:          0 MSHR_MERGE:          0
cpu0->cpu0_ITLB TRANSLATION  ACCESS:          0 HIT:          0 MISS:          0 MSHR_MERGE:          0
cpu0->cpu0_ITLB PREFETCH REQUESTED:          0 ISSUED:          0 USEFUL:          0 USELESS:          0 LATE:          0
cpu0->cpu0_ITLB AVERAGE MISS LATENCY: - cycles
cpu0->cpu0_DTLB TOTAL        ACCESS:   14600450 HIT:   14515308 MISS:      85142 MSHR_MERGE:      12136
cpu0->cpu0_DTLB LOAD         ACCESS:   14600450 HIT:   14515308 MISS:      85142 MSHR_MERGE:      12136
cpu0->cpu0_DTLB RFO          ACCESS:          0 HIT:          0 MISS:          0 MSHR_MERGE:          0
cpu0->cpu0_DTLB PREFETCH     ACCESS:          0 HIT:          0 MISS:          0 MSHR_MERGE:          0
cpu0->cpu0_DTLB WRITE        ACCESS:          0 HIT:          0 MISS:          0 MSHR_MERGE:          0
cpu0->cpu0_DTLB TRANSLATION  ACCESS:          0 HIT:          0 MISS:          0 MSHR_MERGE:          0
cpu0->cpu0_DTLB PREFETCH REQUESTED:          0 ISSUED:          0 USEFUL:          0 USELESS:          0 LATE:          0
cpu0->cpu0_DTLB AVERAGE MISS LATENCY: 6.358 cycles
cpu0->LLC TOTAL        ACCESS:      34616 HIT:      10932 MISS:      23684 MSHR_MERGE:          0
cpu0->LLC LOAD         ACCESS:      23125 HIT:         18 MISS:      23107 MSHR_MERGE:          0
cpu0->LLC RFO          ACCESS:        269 HIT:          0 MISS:        269 MSHR_MERGE:          0
cpu0->LLC PREFETCH     ACCESS:          0 HIT:          0 MISS:          0 MSHR_MERGE:          0
cpu0->LLC WRITE        ACCESS:      11165 HIT:      10909 MISS:        256 MSHR_MERGE:          0
cpu0->LLC TRANSLATION  ACCESS:         57 HIT:          5 MISS:         52 MSHR_MERGE:          0
cpu0->LLC PREFETCH REQUESTED:          0 ISSUED:          0 USEFUL:          0 USELESS:          0 LATE:          0
cpu0->LLC AVERAGE MISS LATENCY: 186 cycles

DRAM Statistics

Channel 0 RQ ROW_BUFFER_HIT:          0
  ROW_BUFFER_MISS:      23428
  AVG DBUS CONGESTED CYCLE: 4.91
Channel 0 WQ ROW_BUFFER_HIT:         20
  ROW_BUFFER_MISS:        136
  FULL:          0
Channel 0 REFRESHES ISSUED:       1736

[ROI Statistics]
[System Configuration]
num_cpus 1
cpu_freq 4000
fetch_width 6
decode_width 6
dispatch_width 6
execute_width 6
lq_width 2
sq_width 2
retire_width 6
scheduler_size 128
branch_mispredict_penalty 15
rob_size 352
lq_size 128
sq_size 72
ifetch_buffer_size 64
decode_buffer_size 32
dispatch_buffer_size 32
register_file_size 288
decode_latency 1
dispatch_latency 1
schedule_latency 1
execute_latency 1
page_size 4096
block_size 64
core_0_itlb_set 16
core_0_itlb_way 4
core_0_itlb_rq_size 16
core_0_itlb_wq_size 16
core_0_itlb_pq_size 0
core_0_itlb_mshr_size 8
core_0_itlb_hit_latency 1
core_0_itlb_fill_latency 1
core_0_itlb_max_tag_check 2
core_0_itlb_max_fill 2
core_0_dtlb_set 16
core_0_dtlb_way 4
core_0_dtlb_rq_size 16
core_0_dtlb_wq_size 16
core_0_dtlb_pq_size 0
core_0_dtlb_mshr_size 8
core_0_dtlb_hit_latency 1
core_0_dtlb_fill_latency 1
core_0_dtlb_max_tag_check 2
core_0_dtlb_max_fill 2
core_0_stlb_set 128
core_0_stlb_way 12
core_0_stlb_rq_size 32
core_0_stlb_wq_size 32
core_0_stlb_pq_size 0
core_0_stlb_mshr_size 16
core_0_stlb_hit_latency 4
core_0_stlb_fill_latency 4
core_0_stlb_max_tag_check 1
core_0_stlb_max_fill 1
core_0_l1i_set 64
core_0_l1i_way 8
core_0_l1i_rq_size 64
core_0_l1i_wq_size 64
core_0_l1i_pq_size 32
core_0_l1i_mshr_size 8
core_0_l1i_hit_latency 2
core_0_l1i_fill_latency 2
core_0_l1i_max_tag_check 2
core_0_l1i_max_fill 2
core_0_l1d_set 64
core_0_l1d_way 12
core_0_l1d_rq_size 64
core_0_l1d_wq_size 64
core_0_l1d_pq_size 8
core_0_l1d_mshr_size 16
core_0_l1d_hit_latency 2
core_0_l1d_fill_latency 3
core_0_l1d_max_tag_check 2
core_0_l1d_max_fill 2
core_0_l2c_set 1024
core_0_l2c_way 8
core_0_l2c_rq_size 32
core_0_l2c_wq_size 32
core_0_l2c_pq_size 16
core_0_l2c_mshr_size 32
core_0_l2c_hit_latency 5
core_0_l2c_fill_latency 5
core_0_l2c_max_tag_check 1
core_0_l2c_max_fill 1
llc_set 2048
llc_way 16
llc_rq_size 32
llc_wq_size 32
llc_pq_size 32
llc_mshr_size 64
llc_hit_latency 10
llc_fill_latency 10
llc_max_tag_check 1
llc_max_fill 1
dram_channels 1
dram_ranks 1
dram_bankgroups 8
dram_banks 4
dram_rows 65536
dram_columns 1024
dram_channel_width 8
dram_rq_size 64
dram_wq_size 64
dram_size 17179869184
core_0_itlb_prefetcher no
core_0_dtlb_prefetcher no
core_0_stlb_prefetcher no
core_0_l1i_prefetcher no
core_0_l1d_prefetcher no
core_0_l2c_prefetcher no
llc_prefetcher no
llc_replacement drrip

Core_0_instructions 50000005
Core_0_cycles 20835670
Core_0_IPC 2.39973
Core_0_branch_prediction_accuracy 99.9564
Core_0_branch_MPKI 0.06014
Core_0_average_ROB_occupancy_at_mispredict 339.519

Core_0_ITLB_total_access 8216971
Core_0_ITLB_total_hit 8216971
Core_0_ITLB_total_miss 0
Core_0_ITLB_total_MPKI 0
Core_0_ITLB_total_miss_rate 0
Core_0_ITLB_demand_access 8216971
Core_0_ITLB_demand_hit 8216971
Core_0_ITLB_demand_miss 0
Core_0_ITLB_demand_MPKI 0
Core_0_ITLB_demand_miss_rate 0
Core_0_ITLB_load_access 8216971
Core_0_ITLB_load_hit 8216971
Core_0_ITLB_load_miss 0
Core_0_ITLB_load_MPKI 0
Core_0_ITLB_load_miss_rate 0
Core_0_ITLB_rfo_access 0
Core_0_ITLB_rfo_hit 0
Core_0_ITLB_rfo_miss 0
Core_0_ITLB_rfo_MPKI 0
Core_0_ITLB_rfo_miss_rate 0
Core_0_ITLB_prefetch_access 0
Core_0_ITLB_prefetch_hit 0
Core_0_ITLB_prefetch_miss 0
Core_0_ITLB_prefetch_MPKI 0
Core_0_ITLB_prefetch_miss_rate 0
Core_0_ITLB_writeback_access 0
Core_0_ITLB_writeback_hit 0
Core_0_ITLB_writeback_miss 0
Core_0_ITLB_writeback_MPKI 0
Core_0_ITLB_writeback_miss_rate 0
Core_0_ITLB_prefetch_requested 0
Core_0_ITLB_prefetch_issued 0
Core_0_ITLB_prefetch_useful 0
Core_0_ITLB_prefetch_useless 0
Core_0_ITLB_prefetch_late 0
Core_0_ITLB_prefetch_accuracy 0
Core_0_ITLB_prefetch_coverage 0

Core_0_DTLB_total_access 14600450
Core_0_DTLB_total_hit 14515308
Core_0_DTLB_total_miss 85142
Core_0_DTLB_total_MPKI 1.70284
Core_0_DTLB_total_miss_rate 0.00583146
Core_0_DTLB_demand_access 14600450
Core_0_DTLB_demand_hit 14515308
Core_0_DTLB_demand_miss 85142
Core_0_DTLB_demand_MPKI 1.70284
Core_0_DTLB_demand_miss_rate 0.00583146
Core_0_DTLB_load_access 14600450
Core_0_DTLB_load_hit 14515308
Core_0_DTLB_load_miss 85142
Core_0_DTLB_load_MPKI 1.70284
Core_0_DTLB_load_miss_rate 0.00583146
Core_0_DTLB_rfo_access 0
Core_0_DTLB_rfo_hit 0
Core_0_DTLB_rfo_miss 0
Core_0_DTLB_rfo_MPKI 0
Core_0_DTLB_rfo_miss_rate 0
Core_0_DTLB_prefetch_access 0
Core_0_DTLB_prefetch_hit 0
Core_0_DTLB_prefetch_miss 0
Core_0_DTLB_prefetch_MPKI 0
Core_0_DTLB_prefetch_miss_rate 0
Core_0_DTLB_writeback_access 0
Core_0_DTLB_writeback_hit 0
Core_0_DTLB_writeback_miss 0
Core_0_DTLB_writeback_MPKI 0
Core_0_DTLB_writeback_miss_rate 0
Core_0_DTLB_prefetch_requested 0
Core_0_DTLB_prefetch_issued 0
Core_0_DTLB_prefetch_useful 0
Core_0_DTLB_prefetch_useless 0
Core_0_DTLB_prefetch_late 0
Core_0_DTLB_prefetch_accuracy 0
Core_0_DTLB_prefetch_coverage 0

Core_0_STLB_total_access 73006
Core_0_STLB_total_hit 72606
Core_0_STLB_total_miss 400
Core_0_STLB_total_MPKI 0.008
Core_0_STLB_total_miss_rate 0.005479
Core_0_STLB_demand_access 73006
Core_0_STLB_demand_hit 72606
Core_0_STLB_demand_miss 400
Core_0_STLB_demand_MPKI 0.008
Core_0_STLB_demand_miss_rate 0.005479
Core_0_STLB_load_access 73006
Core_0_STLB_load_hit 72606
Core_0_STLB_load_miss 400
Core_0_STLB_load_MPKI 0.008
Core_0_STLB_load_miss_rate 0.005479
Core_0_STLB_rfo_access 0
Core_0_STLB_rfo_hit 0
Core_0_STLB_rfo_miss 0
Core_0_STLB_rfo_MPKI 0
Core_0_STLB_rfo_miss_rate 0
Core_0_STLB_prefetch_access 0
Core_0_STLB_prefetch_hit 0
Core_0_STLB_prefetch_miss 0
Core_0_STLB_prefetch_MPKI 0
Core_0_STLB_prefetch_miss_rate 0
Core_0_STLB_writeback_access 0
Core_0_STLB_writeback_hit 0
Core_0_STLB_writeback_miss 0
Core_0_STLB_writeback_MPKI 0
Core_0_STLB_writeback_miss_rate 0
Core_0_STLB_prefetch_requested 0
Core_0_STLB_prefetch_issued 0
Core_0_STLB_prefetch_useful 0
Core_0_STLB_prefetch_useless 0
Core_0_STLB_prefetch_late 0
Core_0_STLB_prefetch_accuracy 0
Core_0_STLB_prefetch_coverage 0

Core_0_L1I_total_access 9598419
Core_0_L1I_total_hit 9503991
Core_0_L1I_total_miss 94428
Core_0_L1I_total_MPKI 1.88856
Core_0_L1I_total_miss_rate 0.00983787
Core_0_L1I_demand_access 9598419
Core_0_L1I_demand_hit 9503991
Core_0_L1I_demand_miss 94428
Core_0_L1I_demand_MPKI 1.88856
Core_0_L1I_demand_miss_rate 0.00983787
Core_0_L1I_load_access 9598419
Core_0_L1I_load_hit 9503991
Core_0_L1I_load_miss 94428
Core_0_L1I_load_MPKI 1.88856
Core_0_L1I_load_miss_rate 0.00983787
Core_0_L1I_rfo_access 0
Core_0_L1I_rfo_hit 0
Core_0_L1I_rfo_miss 0
Core_0_L1I_rfo_MPKI 0
Core_0_L1I_rfo_miss_rate 0
Core_0_L1I_prefetch_access 0
Core_0_L1I_prefetch_hit 0
Core_0_L1I_prefetch_miss 0
Core_0_L1I_prefetch_MPKI 0
Core_0_L1I_prefetch_miss_rate 0
Core_0_L1I_writeback_access 0
Core_0_L1I_writeback_hit 0
Core_0_L1I_writeback_miss 0
Core_0_L1I_writeback_MPKI 0
Core_0_L1I_writeback_miss_rate 0
Core_0_L1I_prefetch_requested 0
Core_0_L1I_prefetch_issued 0
Core_0_L1I_prefetch_useful 0
Core_0_L1I_prefetch_useless 0
Core_0_L1I_prefetch_late 0
Core_0_L1I_prefetch_accuracy 0
Core_0_L1I_prefetch_coverage 0

Core_0_L1D_total_access 16220293
Core_0_L1D_total_hit 15982893
Core_0_L1D_total_miss 237400
Core_0_L1D_total_MPKI 4.748
Core_0_L1D_total_miss_rate 0.014636
Core_0_L1D_demand_access 8447786
Core_0_L1D_demand_hit 8306451
Core_0_L1D_demand_miss 141335
Core_0_L1D_demand_MPKI 2.8267
Core_0_L1D_demand_miss_rate 0.0167304
Core_0_L1D_load_access 8447786
Core_0_L1D_load_hit 8306451
Core_0_L1D_load_miss 141335
Core_0_L1D_load_MPKI 2.8267
Core_0_L1D_load_miss_rate 0.0167304
Core_0_L1D_rfo_access 0
Core_0_L1D_rfo_hit 0
Core_0_L1D_rfo_miss 0
Core_0_L1D_rfo_MPKI 0
Core_0_L1D_rfo_miss_rate 0
Core_0_L1D_prefetch_access 0
Core_0_L1D_prefetch_hit 0
Core_0_L1D_prefetch_miss 0
Core_0_L1D_prefetch_MPKI 0
Core_0_L1D_prefetch_miss_rate 0
Core_0_L1D_writeback_access 7772507
Core_0_L1D_writeback_hit 7676442
Core_0_L1D_writeback_miss 96065
Core_0_L1D_writeback_MPKI 1.9213
Core_0_L1D_writeback_miss_rate 0.0123596
Core_0_L1D_prefetch_requested 0
Core_0_L1D_prefetch_issued 0
Core_0_L1D_prefetch_useful 0
Core_0_L1D_prefetch_useless 0
Core_0_L1D_prefetch_late 0
Core_0_L1D_prefetch_accuracy 0
Core_0_L1D_prefetch_coverage 0

Core_0_L2C_total_access 362280
Core_0_L2C_total_hit 338854
Core_0_L2C_total_miss 23426
Core_0_L2C_total_MPKI 0.46852
Core_0_L2C_total_miss_rate 0.0646627
Core_0_L2C_demand_access 257899
Core_0_L2C_demand_hit 234505
Core_0_L2C_demand_miss 23394
Core_0_L2C_demand_MPKI 0.46788
Core_0_L2C_demand_miss_rate 0.0907099
Core_0_L2C_load_access 199712
Core_0_L2C_load_hit 176587
Core_0_L2C_load_miss 23125
Core_0_L2C_load_MPKI 0.4625
Core_0_L2C_load_miss_rate 0.115792
Core_0_L2C_rfo_access 58187
Core_0_L2C_rfo_hit 57918
Core_0_L2C_rfo_miss 269
Core_0_L2C_rfo_MPKI 0.00538
Core_0_L2C_rfo_miss_rate 0.00462303
Core_0_L2C_prefetch_access 0
Core_0_L2C_prefetch_hit 0
Core_0_L2C_prefetch_miss 0
Core_0_L2C_prefetch_MPKI 0
Core_0_L2C_prefetch_miss_rate 0
Core_0_L2C_writeback_access 104381
Core_0_L2C_writeback_hit 104349
Core_0_L2C_writeback_miss 32
Core_0_L2C_writeback_MPKI 0.00064
Core_0_L2C_writeback_miss_rate 0.000306569
Core_0_L2C_prefetch_requested 0
Core_0_L2C_prefetch_issued 0
Core_0_L2C_prefetch_useful 0
Core_0_L2C_prefetch_useless 0
Core_0_L2C_prefetch_late 0
Core_0_L2C_prefetch_accuracy 0
Core_0_L2C_prefetch_coverage 0

Core_0_LLC_total_access 34559
Core_0_LLC_total_hit 10927
Core_0_LLC_total_miss 23632
Core_0_LLC_total_MPKI 0.47264
Core_0_LLC_total_miss_rate 0.683816
Core_0_LLC_demand_access 23394
Core_0_LLC_demand_hit 18
Core_0_LLC_demand_miss 23376
Core_0_LLC_demand_MPKI 0.46752
Core_0_LLC_demand_miss_rate 0.999231
Core_0_LLC_load_access 23125
Core_0_LLC_load_hit 18
Core_0_LLC_load_miss 23107
Core_0_LLC_load_MPKI 0.46214
Core_0_LLC_load_miss_rate 0.999222
Core_0_LLC_rfo_access 269
Core_0_LLC_rfo_hit 0
Core_0_LLC_rfo_miss 269
Core_0_LLC_rfo_MPKI 0.00538
Core_0_LLC_rfo_miss_rate 1
Core_0_LLC_prefetch_access 0
Core_0_LLC_prefetch_hit 0
Core_0_LLC_prefetch_miss 0
Core_0_LLC_prefetch_MPKI 0
Core_0_LLC_prefetch_miss_rate 0
Core_0_LLC_writeback_access 11165
Core_0_LLC_writeback_hit 10909
Core_0_LLC_writeback_miss 256
Core_0_LLC_writeback_MPKI 0.00512
Core_0_LLC_writeback_miss_rate 0.0229288
Core_0_LLC_prefetch_requested 0
Core_0_LLC_prefetch_issued 0
Core_0_LLC_prefetch_useful 0
Core_0_LLC_prefetch_useless 0
Core_0_LLC_prefetch_late 0
Core_0_LLC_prefetch_accuracy 0
Core_0_LLC_prefetch_coverage 0

[DRAM Statistics]
Channel_0_RQ_row_buffer_hit 0
Channel_0_RQ_row_buffer_miss 23428
Channel_0_WQ_row_buffer_hit 20
Channel_0_WQ_row_buffer_miss 136
Channel_0_WQ_full 0
Channel_0_dbus_congested 12899
DRAM_total_RQ_row_buffer_hit 0
DRAM_total_RQ_row_buffer_miss 23428
DRAM_total_WQ_row_buffer_hit 20
DRAM_total_WQ_row_buffer_miss 136
DRAM_total_WQ_full 0
DRAM_total_dbus_congested 12899
DRAM_avg_congested_cycle 4.90961

======STLB miss causes ========
Core_0_STLB_miss_cause_breakdown
Core_0_STLB_cause_Demand_Data_miss 400
Core_0_STLB_cause_Demand_Data_miss_rate 0.005479
Core_0_STLB_cause_Demand_Instruction_miss 0
Core_0_STLB_cause_Demand_Instruction_miss_rate 0
Core_0_STLB_cause_L1D_Prefetch_miss 0
Core_0_STLB_cause_L1D_Prefetch_miss_rate 0
Core_0_STLB_cause_L1I_Prefetch_miss 0
Core_0_STLB_cause_L1I_Prefetch_miss_rate 0
Core_0_STLB_cause_Other_miss 0
Core_0_STLB_cause_Other_miss_rate 0
Core_0_STLB_Demand_miss 400
Core_0_STLB_Demand_miss_rate 0.005479
Core_0_STLB_L1D_Prefetch_miss 0
Core_0_STLB_L1D_Prefetch_miss_rate 0
Core_0_STLB_Other_miss 0
Core_0_STLB_Other_miss_rate 0
