[VMEM] WARNING: physical memory size is smaller than virtual memory size.

*** ChampSim Multicore Out-of-Order Simulator ***
Warmup Instructions: 20000000
Simulation Instructions: 50000000
Number of CPUs: 1
Page size: 4096
Core 0: /data0/tzh/champsim_traces/SPEC17/623.xalancbmk_s-165B.champsimtrace.xz
Off-chip DRAM Size: 16 GiB Channels: 1 Width: 64-bit Data Rate: 3205 MT/s
Warmup halting CPU 0 at instruction 20000001 cycle 4997424 for remainder of phase
Warmup finished CPU 0 instructions: 20000001 cycles: 4997424 cumulative IPC: 4.002 (Simulation time: 00 hr 00 min 42 sec)
Warmup complete CPU 0 instructions: 20000001 cycles: 4997424 cumulative IPC: 4.002 (Simulation time: 00 hr 00 min 42 sec)
Simulation finished CPU 0 instructions: 50000001 cycles: 42521656 cumulative IPC: 1.176 (Simulation time: 00 hr 06 min 04 sec)
Simulation complete CPU 0 instructions: 50000001 cycles: 42521656 cumulative IPC: 1.176 (Simulation time: 00 hr 06 min 04 sec)

ChampSim completed all CPUs

=== Simulation ===
CPU 0 runs /data0/tzh/champsim_traces/SPEC17/623.xalancbmk_s-165B.champsimtrace.xz

Region of Interest Statistics

CPU 0 cumulative IPC: 1.176 instructions: 50000001 cycles: 42521656
CPU 0 Branch Prediction Accuracy: 100% MPKI: 0.01202 Average ROB Occupancy at Mispredict: 324.9
Branch type MPKI
BRANCH_DIRECT_JUMP: 0
BRANCH_INDIRECT: 0
BRANCH_CONDITIONAL: 0.01202
BRANCH_DIRECT_CALL: 0
BRANCH_INDIRECT_CALL: 0
BRANCH_RETURN: 0

cpu0->cpu0_STLB TOTAL        ACCESS:      17949 HIT:      17883 MISS:         66 MSHR_MERGE:          0
cpu0->cpu0_STLB LOAD         ACCESS:      17949 HIT:      17883 MISS:         66 MSHR_MERGE:          0
cpu0->cpu0_STLB RFO          ACCESS:          0 HIT:          0 MISS:          0 MSHR_MERGE:          0
cpu0->cpu0_STLB PREFETCH     ACCESS:          0 HIT:          0 MISS:          0 MSHR_MERGE:          0
cpu0->cpu0_STLB WRITE        ACCESS:          0 HIT:          0 MISS:          0 MSHR_MERGE:          0
cpu0->cpu0_STLB TRANSLATION  ACCESS:          0 HIT:          0 MISS:          0 MSHR_MERGE:          0
cpu0->cpu0_STLB PREFETCH REQUESTED:          0 ISSUED:          0 USEFUL:          0 USELESS:          0 LATE:          0
cpu0->cpu0_STLB AVERAGE MISS LATENCY: 345.8 cycles
cpu0->cpu0_L2C TOTAL        ACCESS:     954142 HIT:       3205 MISS:     950937 MSHR_MERGE:          0
cpu0->cpu0_L2C LOAD         ACCESS:     950844 HIT:        247 MISS:     950597 MSHR_MERGE:          0
cpu0->cpu0_L2C RFO          ACCESS:       1557 HIT:       1266 MISS:        291 MSHR_MERGE:          0
cpu0->cpu0_L2C PREFETCH     ACCESS:          0 HIT:          0 MISS:          0 MSHR_MERGE:          0
cpu0->cpu0_L2C WRITE        ACCESS:       1693 HIT:       1692 MISS:          1 MSHR_MERGE:          0
cpu0->cpu0_L2C TRANSLATION  ACCESS:         48 HIT:          0 MISS:         48 MSHR_MERGE:          0
cpu0->cpu0_L2C PREFETCH REQUESTED:          0 ISSUED:          0 USEFUL:          0 USELESS:          0 LATE:          0
cpu0->cpu0_L2C AVERAGE MISS LATENCY: 46.61 cycles
cpu0->cpu0_L1I TOTAL        ACCESS:   10180044 HIT:   10180044 MISS:          0 MSHR_MERGE:          0
cpu0->cpu0_L1I LOAD         ACCESS:   10180044 HIT:   10180044 MISS:          0 MSHR_MERGE:          0
cpu0->cpu0_L1I RFO          ACCESS:          0 HIT:          0 MISS:          0 MSHR_MERGE:          0
cpu0->cpu0_L1I PREFETCH     ACCESS:          0 HIT:          0 MISS:          0 MSHR_MERGE:          0
cpu0->cpu0_L1I WRITE        ACCESS:          0 HIT:          0 MISS:          0 MSHR_MERGE:          0
cpu0->cpu0_L1I TRANSLATION  ACCESS:          0 HIT:          0 MISS:          0 MSHR_MERGE:          0
cpu0->cpu0_L1I PREFETCH REQUESTED:          0 ISSUED:          0 USEFUL:          0 USELESS:          0 LATE:          0
cpu0->cpu0_L1I AVERAGE MISS LATENCY: - cycles
cpu0->cpu0_L1D TOTAL        ACCESS:   11156494 HIT:    8236330 MISS:    2920164 MSHR_MERGE:    1967715
cpu0->cpu0_L1D LOAD         ACCESS:   10499853 HIT:    7582554 MISS:    2917299 MSHR_MERGE:    1966455
cpu0->cpu0_L1D RFO          ACCESS:          0 HIT:          0 MISS:          0 MSHR_MERGE:          0
cpu0->cpu0_L1D PREFETCH     ACCESS:          0 HIT:          0 MISS:          0 MSHR_MERGE:          0
cpu0->cpu0_L1D WRITE        ACCESS:     656512 HIT:     653698 MISS:       2814 MSHR_MERGE:       1257
cpu0->cpu0_L1D TRANSLATION  ACCESS:        129 HIT:         78 MISS:         51 MSHR_MERGE:          3
cpu0->cpu0_L1D PREFETCH REQUESTED:          0 ISSUED:          0 USEFUL:          0 USELESS:          0 LATE:          0
cpu0->cpu0_L1D AVERAGE MISS LATENCY: 55.54 cycles
cpu0->cpu0_ITLB TOTAL        ACCESS:    9713392 HIT:    9713392 MISS:          0 MSHR_MERGE:          0
cpu0->cpu0_ITLB LOAD         ACCESS:    9713392 HIT:    9713392 MISS:          0 MSHR_MERGE:          0
cpu0->cpu0_ITLB RFO          ACCESS:          0 HIT:          0 MISS:          0 MSHR_MERGE:          0
cpu0->cpu0_ITLB PREFETCH     ACCESS:          0 HIT:          0 MISS:          0 MSHR_MERGE:          0
cpu0->cpu0_ITLB WRITE        ACCESS:          0 HIT:          0 MISS:          0 MSHR_MERGE:          0
cpu0->cpu0_ITLB TRANSLATION  ACCESS:          0 HIT:          0 MISS:          0 MSHR_MERGE:          0
cpu0->cpu0_ITLB PREFETCH REQUESTED:          0 ISSUED:          0 USEFUL:          0 USELESS:          0 LATE:          0
cpu0->cpu0_ITLB AVERAGE MISS LATENCY: - cycles
cpu0->cpu0_DTLB TOTAL        ACCESS:   11034947 HIT:   10995879 MISS:      39068 MSHR_MERGE:      21119
cpu0->cpu0_DTLB LOAD         ACCESS:   11034947 HIT:   10995879 MISS:      39068 MSHR_MERGE:      21119
cpu0->cpu0_DTLB RFO          ACCESS:          0 HIT:          0 MISS:          0 MSHR_MERGE:          0
cpu0->cpu0_DTLB PREFETCH     ACCESS:          0 HIT:          0 MISS:          0 MSHR_MERGE:          0
cpu0->cpu0_DTLB WRITE        ACCESS:          0 HIT:          0 MISS:          0 MSHR_MERGE:          0
cpu0->cpu0_DTLB TRANSLATION  ACCESS:          0 HIT:          0 MISS:          0 MSHR_MERGE:          0
cpu0->cpu0_DTLB PREFETCH REQUESTED:          0 ISSUED:          0 USEFUL:          0 USELESS:          0 LATE:          0
cpu0->cpu0_DTLB AVERAGE MISS LATENCY: 6.275 cycles
cpu0->LLC TOTAL        ACCESS:     951356 HIT:     767905 MISS:     183451 MSHR_MERGE:          0
cpu0->LLC LOAD         ACCESS:     950597 HIT:     767512 MISS:     183085 MSHR_MERGE:          0
cpu0->LLC RFO          ACCESS:        291 HIT:        112 MISS:        179 MSHR_MERGE:          0
cpu0->LLC PREFETCH     ACCESS:          0 HIT:          0 MISS:          0 MSHR_MERGE:          0
cpu0->LLC WRITE        ACCESS:        420 HIT:        265 MISS:        155 MSHR_MERGE:          0
cpu0->LLC TRANSLATION  ACCESS:         48 HIT:         16 MISS:         32 MSHR_MERGE:          0
cpu0->LLC PREFETCH REQUESTED:          0 ISSUED:          0 USEFUL:          0 USELESS:          0 LATE:          0
cpu0->LLC AVERAGE MISS LATENCY: 162.9 cycles

DRAM Statistics

Channel 0 RQ ROW_BUFFER_HIT:      28122
  ROW_BUFFER_MISS:     155174
  AVG DBUS CONGESTED CYCLE: 8.735
Channel 0 WQ ROW_BUFFER_HIT:         80
  ROW_BUFFER_MISS:        118
  FULL:          0
Channel 0 REFRESHES ISSUED:       3543

[ROI Statistics]
[System Configuration]
num_cpus 1
cpu_freq 4000
fetch_width 6
decode_width 6
dispatch_width 6
execute_width 6
lq_width 2
sq_width 2
retire_width 6
scheduler_size 128
branch_mispredict_penalty 15
rob_size 352
lq_size 128
sq_size 72
ifetch_buffer_size 64
decode_buffer_size 32
dispatch_buffer_size 32
register_file_size 288
decode_latency 1
dispatch_latency 1
schedule_latency 1
execute_latency 1
page_size 4096
block_size 64
core_0_itlb_set 16
core_0_itlb_way 4
core_0_itlb_rq_size 16
core_0_itlb_wq_size 16
core_0_itlb_pq_size 0
core_0_itlb_mshr_size 8
core_0_itlb_hit_latency 1
core_0_itlb_fill_latency 1
core_0_itlb_max_tag_check 2
core_0_itlb_max_fill 2
core_0_dtlb_set 16
core_0_dtlb_way 4
core_0_dtlb_rq_size 16
core_0_dtlb_wq_size 16
core_0_dtlb_pq_size 0
core_0_dtlb_mshr_size 8
core_0_dtlb_hit_latency 1
core_0_dtlb_fill_latency 1
core_0_dtlb_max_tag_check 2
core_0_dtlb_max_fill 2
core_0_stlb_set 128
core_0_stlb_way 12
core_0_stlb_rq_size 32
core_0_stlb_wq_size 32
core_0_stlb_pq_size 0
core_0_stlb_mshr_size 16
core_0_stlb_hit_latency 4
core_0_stlb_fill_latency 4
core_0_stlb_max_tag_check 1
core_0_stlb_max_fill 1
core_0_l1i_set 64
core_0_l1i_way 8
core_0_l1i_rq_size 64
core_0_l1i_wq_size 64
core_0_l1i_pq_size 32
core_0_l1i_mshr_size 8
core_0_l1i_hit_latency 2
core_0_l1i_fill_latency 2
core_0_l1i_max_tag_check 2
core_0_l1i_max_fill 2
core_0_l1d_set 64
core_0_l1d_way 12
core_0_l1d_rq_size 64
core_0_l1d_wq_size 64
core_0_l1d_pq_size 8
core_0_l1d_mshr_size 16
core_0_l1d_hit_latency 2
core_0_l1d_fill_latency 3
core_0_l1d_max_tag_check 2
core_0_l1d_max_fill 2
core_0_l2c_set 1024
core_0_l2c_way 8
core_0_l2c_rq_size 32
core_0_l2c_wq_size 32
core_0_l2c_pq_size 16
core_0_l2c_mshr_size 32
core_0_l2c_hit_latency 5
core_0_l2c_fill_latency 5
core_0_l2c_max_tag_check 1
core_0_l2c_max_fill 1
llc_set 2048
llc_way 16
llc_rq_size 32
llc_wq_size 32
llc_pq_size 32
llc_mshr_size 64
llc_hit_latency 10
llc_fill_latency 10
llc_max_tag_check 1
llc_max_fill 1
dram_channels 1
dram_ranks 1
dram_bankgroups 8
dram_banks 4
dram_rows 65536
dram_columns 1024
dram_channel_width 8
dram_rq_size 64
dram_wq_size 64
dram_size 17179869184
core_0_itlb_prefetcher no
core_0_dtlb_prefetcher no
core_0_stlb_prefetcher no
core_0_l1i_prefetcher no
core_0_l1d_prefetcher no
core_0_l2c_prefetcher no
llc_prefetcher no
llc_replacement drrip

Core_0_instructions 50000001
Core_0_cycles 42521656
Core_0_IPC 1.17587
Core_0_branch_prediction_accuracy 99.9957
Core_0_branch_MPKI 0.01202
Core_0_average_ROB_occupancy_at_mispredict 324.928

Core_0_ITLB_total_access 9713392
Core_0_ITLB_total_hit 9713392
Core_0_ITLB_total_miss 0
Core_0_ITLB_total_MPKI 0
Core_0_ITLB_total_miss_rate 0
Core_0_ITLB_demand_access 9713392
Core_0_ITLB_demand_hit 9713392
Core_0_ITLB_demand_miss 0
Core_0_ITLB_demand_MPKI 0
Core_0_ITLB_demand_miss_rate 0
Core_0_ITLB_load_access 9713392
Core_0_ITLB_load_hit 9713392
Core_0_ITLB_load_miss 0
Core_0_ITLB_load_MPKI 0
Core_0_ITLB_load_miss_rate 0
Core_0_ITLB_rfo_access 0
Core_0_ITLB_rfo_hit 0
Core_0_ITLB_rfo_miss 0
Core_0_ITLB_rfo_MPKI 0
Core_0_ITLB_rfo_miss_rate 0
Core_0_ITLB_prefetch_access 0
Core_0_ITLB_prefetch_hit 0
Core_0_ITLB_prefetch_miss 0
Core_0_ITLB_prefetch_MPKI 0
Core_0_ITLB_prefetch_miss_rate 0
Core_0_ITLB_writeback_access 0
Core_0_ITLB_writeback_hit 0
Core_0_ITLB_writeback_miss 0
Core_0_ITLB_writeback_MPKI 0
Core_0_ITLB_writeback_miss_rate 0
Core_0_ITLB_prefetch_requested 0
Core_0_ITLB_prefetch_issued 0
Core_0_ITLB_prefetch_useful 0
Core_0_ITLB_prefetch_useless 0
Core_0_ITLB_prefetch_late 0
Core_0_ITLB_prefetch_accuracy 0
Core_0_ITLB_prefetch_coverage 0

Core_0_DTLB_total_access 11034947
Core_0_DTLB_total_hit 10995879
Core_0_DTLB_total_miss 39068
Core_0_DTLB_total_MPKI 0.78136
Core_0_DTLB_total_miss_rate 0.00354039
Core_0_DTLB_demand_access 11034947
Core_0_DTLB_demand_hit 10995879
Core_0_DTLB_demand_miss 39068
Core_0_DTLB_demand_MPKI 0.78136
Core_0_DTLB_demand_miss_rate 0.00354039
Core_0_DTLB_load_access 11034947
Core_0_DTLB_load_hit 10995879
Core_0_DTLB_load_miss 39068
Core_0_DTLB_load_MPKI 0.78136
Core_0_DTLB_load_miss_rate 0.00354039
Core_0_DTLB_rfo_access 0
Core_0_DTLB_rfo_hit 0
Core_0_DTLB_rfo_miss 0
Core_0_DTLB_rfo_MPKI 0
Core_0_DTLB_rfo_miss_rate 0
Core_0_DTLB_prefetch_access 0
Core_0_DTLB_prefetch_hit 0
Core_0_DTLB_prefetch_miss 0
Core_0_DTLB_prefetch_MPKI 0
Core_0_DTLB_prefetch_miss_rate 0
Core_0_DTLB_writeback_access 0
Core_0_DTLB_writeback_hit 0
Core_0_DTLB_writeback_miss 0
Core_0_DTLB_writeback_MPKI 0
Core_0_DTLB_writeback_miss_rate 0
Core_0_DTLB_prefetch_requested 0
Core_0_DTLB_prefetch_issued 0
Core_0_DTLB_prefetch_useful 0
Core_0_DTLB_prefetch_useless 0
Core_0_DTLB_prefetch_late 0
Core_0_DTLB_prefetch_accuracy 0
Core_0_DTLB_prefetch_coverage 0

Core_0_STLB_total_access 17949
Core_0_STLB_total_hit 17883
Core_0_STLB_total_miss 66
Core_0_STLB_total_MPKI 0.00132
Core_0_STLB_total_miss_rate 0.00367709
Core_0_STLB_demand_access 17949
Core_0_STLB_demand_hit 17883
Core_0_STLB_demand_miss 66
Core_0_STLB_demand_MPKI 0.00132
Core_0_STLB_demand_miss_rate 0.00367709
Core_0_STLB_load_access 17949
Core_0_STLB_load_hit 17883
Core_0_STLB_load_miss 66
Core_0_STLB_load_MPKI 0.00132
Core_0_STLB_load_miss_rate 0.00367709
Core_0_STLB_rfo_access 0
Core_0_STLB_rfo_hit 0
Core_0_STLB_rfo_miss 0
Core_0_STLB_rfo_MPKI 0
Core_0_STLB_rfo_miss_rate 0
Core_0_STLB_prefetch_access 0
Core_0_STLB_prefetch_hit 0
Core_0_STLB_prefetch_miss 0
Core_0_STLB_prefetch_MPKI 0
Core_0_STLB_prefetch_miss_rate 0
Core_0_STLB_writeback_access 0
Core_0_STLB_writeback_hit 0
Core_0_STLB_writeback_miss 0
Core_0_STLB_writeback_MPKI 0
Core_0_STLB_writeback_miss_rate 0
Core_0_STLB_prefetch_requested 0
Core_0_STLB_prefetch_issued 0
Core_0_STLB_prefetch_useful 0
Core_0_STLB_prefetch_useless 0
Core_0_STLB_prefetch_late 0
Core_0_STLB_prefetch_accuracy 0
Core_0_STLB_prefetch_coverage 0

Core_0_L1I_total_access 10180044
Core_0_L1I_total_hit 10180044
Core_0_L1I_total_miss 0
Core_0_L1I_total_MPKI 0
Core_0_L1I_total_miss_rate 0
Core_0_L1I_demand_access 10180044
Core_0_L1I_demand_hit 10180044
Core_0_L1I_demand_miss 0
Core_0_L1I_demand_MPKI 0
Core_0_L1I_demand_miss_rate 0
Core_0_L1I_load_access 10180044
Core_0_L1I_load_hit 10180044
Core_0_L1I_load_miss 0
Core_0_L1I_load_MPKI 0
Core_0_L1I_load_miss_rate 0
Core_0_L1I_rfo_access 0
Core_0_L1I_rfo_hit 0
Core_0_L1I_rfo_miss 0
Core_0_L1I_rfo_MPKI 0
Core_0_L1I_rfo_miss_rate 0
Core_0_L1I_prefetch_access 0
Core_0_L1I_prefetch_hit 0
Core_0_L1I_prefetch_miss 0
Core_0_L1I_prefetch_MPKI 0
Core_0_L1I_prefetch_miss_rate 0
Core_0_L1I_writeback_access 0
Core_0_L1I_writeback_hit 0
Core_0_L1I_writeback_miss 0
Core_0_L1I_writeback_MPKI 0
Core_0_L1I_writeback_miss_rate 0
Core_0_L1I_prefetch_requested 0
Core_0_L1I_prefetch_issued 0
Core_0_L1I_prefetch_useful 0
Core_0_L1I_prefetch_useless 0
Core_0_L1I_prefetch_late 0
Core_0_L1I_prefetch_accuracy 0
Core_0_L1I_prefetch_coverage 0

Core_0_L1D_total_access 11156365
Core_0_L1D_total_hit 8236252
Core_0_L1D_total_miss 2920113
Core_0_L1D_total_MPKI 58.4023
Core_0_L1D_total_miss_rate 0.261744
Core_0_L1D_demand_access 10499853
Core_0_L1D_demand_hit 7582554
Core_0_L1D_demand_miss 2917299
Core_0_L1D_demand_MPKI 58.346
Core_0_L1D_demand_miss_rate 0.277842
Core_0_L1D_load_access 10499853
Core_0_L1D_load_hit 7582554
Core_0_L1D_load_miss 2917299
Core_0_L1D_load_MPKI 58.346
Core_0_L1D_load_miss_rate 0.277842
Core_0_L1D_rfo_access 0
Core_0_L1D_rfo_hit 0
Core_0_L1D_rfo_miss 0
Core_0_L1D_rfo_MPKI 0
Core_0_L1D_rfo_miss_rate 0
Core_0_L1D_prefetch_access 0
Core_0_L1D_prefetch_hit 0
Core_0_L1D_prefetch_miss 0
Core_0_L1D_prefetch_MPKI 0
Core_0_L1D_prefetch_miss_rate 0
Core_0_L1D_writeback_access 656512
Core_0_L1D_writeback_hit 653698
Core_0_L1D_writeback_miss 2814
Core_0_L1D_writeback_MPKI 0.05628
Core_0_L1D_writeback_miss_rate 0.00428629
Core_0_L1D_prefetch_requested 0
Core_0_L1D_prefetch_issued 0
Core_0_L1D_prefetch_useful 0
Core_0_L1D_prefetch_useless 0
Core_0_L1D_prefetch_late 0
Core_0_L1D_prefetch_accuracy 0
Core_0_L1D_prefetch_coverage 0

Core_0_L2C_total_access 954094
Core_0_L2C_total_hit 3205
Core_0_L2C_total_miss 950889
Core_0_L2C_total_MPKI 19.0178
Core_0_L2C_total_miss_rate 0.996641
Core_0_L2C_demand_access 952401
Core_0_L2C_demand_hit 1513
Core_0_L2C_demand_miss 950888
Core_0_L2C_demand_MPKI 19.0178
Core_0_L2C_demand_miss_rate 0.998411
Core_0_L2C_load_access 950844
Core_0_L2C_load_hit 247
Core_0_L2C_load_miss 950597
Core_0_L2C_load_MPKI 19.0119
Core_0_L2C_load_miss_rate 0.99974
Core_0_L2C_rfo_access 1557
Core_0_L2C_rfo_hit 1266
Core_0_L2C_rfo_miss 291
Core_0_L2C_rfo_MPKI 0.00582
Core_0_L2C_rfo_miss_rate 0.186898
Core_0_L2C_prefetch_access 0
Core_0_L2C_prefetch_hit 0
Core_0_L2C_prefetch_miss 0
Core_0_L2C_prefetch_MPKI 0
Core_0_L2C_prefetch_miss_rate 0
Core_0_L2C_writeback_access 1693
Core_0_L2C_writeback_hit 1692
Core_0_L2C_writeback_miss 1
Core_0_L2C_writeback_MPKI 2e-05
Core_0_L2C_writeback_miss_rate 0.000590667
Core_0_L2C_prefetch_requested 0
Core_0_L2C_prefetch_issued 0
Core_0_L2C_prefetch_useful 0
Core_0_L2C_prefetch_useless 0
Core_0_L2C_prefetch_late 0
Core_0_L2C_prefetch_accuracy 0
Core_0_L2C_prefetch_coverage 0

Core_0_LLC_total_access 951308
Core_0_LLC_total_hit 767889
Core_0_LLC_total_miss 183419
Core_0_LLC_total_MPKI 3.66838
Core_0_LLC_total_miss_rate 0.192807
Core_0_LLC_demand_access 950888
Core_0_LLC_demand_hit 767624
Core_0_LLC_demand_miss 183264
Core_0_LLC_demand_MPKI 3.66528
Core_0_LLC_demand_miss_rate 0.192729
Core_0_LLC_load_access 950597
Core_0_LLC_load_hit 767512
Core_0_LLC_load_miss 183085
Core_0_LLC_load_MPKI 3.6617
Core_0_LLC_load_miss_rate 0.1926
Core_0_LLC_rfo_access 291
Core_0_LLC_rfo_hit 112
Core_0_LLC_rfo_miss 179
Core_0_LLC_rfo_MPKI 0.00358
Core_0_LLC_rfo_miss_rate 0.61512
Core_0_LLC_prefetch_access 0
Core_0_LLC_prefetch_hit 0
Core_0_LLC_prefetch_miss 0
Core_0_LLC_prefetch_MPKI 0
Core_0_LLC_prefetch_miss_rate 0
Core_0_LLC_writeback_access 420
Core_0_LLC_writeback_hit 265
Core_0_LLC_writeback_miss 155
Core_0_LLC_writeback_MPKI 0.0031
Core_0_LLC_writeback_miss_rate 0.369048
Core_0_LLC_prefetch_requested 0
Core_0_LLC_prefetch_issued 0
Core_0_LLC_prefetch_useful 0
Core_0_LLC_prefetch_useless 0
Core_0_LLC_prefetch_late 0
Core_0_LLC_prefetch_accuracy 0
Core_0_LLC_prefetch_coverage 0

[DRAM Statistics]
Channel_0_RQ_row_buffer_hit 28122
Channel_0_RQ_row_buffer_miss 155174
Channel_0_WQ_row_buffer_hit 80
Channel_0_WQ_row_buffer_miss 118
Channel_0_WQ_full 0
Channel_0_dbus_congested 112219
DRAM_total_RQ_row_buffer_hit 28122
DRAM_total_RQ_row_buffer_miss 155174
DRAM_total_WQ_row_buffer_hit 80
DRAM_total_WQ_row_buffer_miss 118
DRAM_total_WQ_full 0
DRAM_total_dbus_congested 112219
DRAM_avg_congested_cycle 8.73498

======STLB miss causes ========
Core_0_STLB_miss_cause_breakdown
Core_0_STLB_cause_Demand_Data_miss 66
Core_0_STLB_cause_Demand_Data_miss_rate 0.00367709
Core_0_STLB_cause_Demand_Instruction_miss 0
Core_0_STLB_cause_Demand_Instruction_miss_rate 0
Core_0_STLB_cause_L1D_Prefetch_miss 0
Core_0_STLB_cause_L1D_Prefetch_miss_rate 0
Core_0_STLB_cause_L1I_Prefetch_miss 0
Core_0_STLB_cause_L1I_Prefetch_miss_rate 0
Core_0_STLB_cause_Other_miss 0
Core_0_STLB_cause_Other_miss_rate 0
Core_0_STLB_Demand_miss 66
Core_0_STLB_Demand_miss_rate 0.00367709
Core_0_STLB_L1D_Prefetch_miss 0
Core_0_STLB_L1D_Prefetch_miss_rate 0
Core_0_STLB_Other_miss 0
Core_0_STLB_Other_miss_rate 0
