[VMEM] WARNING: physical memory size is smaller than virtual memory size.

*** ChampSim Multicore Out-of-Order Simulator ***
Warmup Instructions: 20000000
Simulation Instructions: 50000000
Number of CPUs: 1
Page size: 4096
Core 0: /data0/tzh/champsim_traces/SPEC17/644.nab_s-12459B.champsimtrace.xz
Off-chip DRAM Size: 16 GiB Channels: 1 Width: 64-bit Data Rate: 3205 MT/s
Warmup halting CPU 0 at instruction 20000005 cycle 4193907 for remainder of phase
Warmup finished CPU 0 instructions: 20000005 cycles: 4193907 cumulative IPC: 4.769 (Simulation time: 00 hr 00 min 44 sec)
Warmup complete CPU 0 instructions: 20000005 cycles: 4193907 cumulative IPC: 4.769 (Simulation time: 00 hr 00 min 44 sec)
Simulation finished CPU 0 instructions: 50000003 cycles: 19352313 cumulative IPC: 2.584 (Simulation time: 00 hr 03 min 24 sec)
Simulation complete CPU 0 instructions: 50000003 cycles: 19352313 cumulative IPC: 2.584 (Simulation time: 00 hr 03 min 24 sec)

ChampSim completed all CPUs

=== Simulation ===
CPU 0 runs /data0/tzh/champsim_traces/SPEC17/644.nab_s-12459B.champsimtrace.xz

Region of Interest Statistics

CPU 0 cumulative IPC: 2.584 instructions: 50000003 cycles: 19352313
CPU 0 Branch Prediction Accuracy: 97.88% MPKI: 3.02 Average ROB Occupancy at Mispredict: 111.4
Branch type MPKI
BRANCH_DIRECT_JUMP: 0.2611
BRANCH_INDIRECT: 0
BRANCH_CONDITIONAL: 2.759
BRANCH_DIRECT_CALL: 0
BRANCH_INDIRECT_CALL: 0
BRANCH_RETURN: 0

cpu0->cpu0_STLB TOTAL        ACCESS:      11241 HIT:      11123 MISS:        118 MSHR_MERGE:          0
cpu0->cpu0_STLB LOAD         ACCESS:      11241 HIT:      11123 MISS:        118 MSHR_MERGE:          0
cpu0->cpu0_STLB RFO          ACCESS:          0 HIT:          0 MISS:          0 MSHR_MERGE:          0
cpu0->cpu0_STLB PREFETCH     ACCESS:          0 HIT:          0 MISS:          0 MSHR_MERGE:          0
cpu0->cpu0_STLB WRITE        ACCESS:          0 HIT:          0 MISS:          0 MSHR_MERGE:          0
cpu0->cpu0_STLB TRANSLATION  ACCESS:          0 HIT:          0 MISS:          0 MSHR_MERGE:          0
cpu0->cpu0_STLB PREFETCH REQUESTED:          0 ISSUED:          0 USEFUL:          0 USELESS:          0 LATE:          0
cpu0->cpu0_STLB AVERAGE MISS LATENCY: 236.6 cycles
cpu0->cpu0_L2C TOTAL        ACCESS:     340961 HIT:     283637 MISS:      57324 MSHR_MERGE:          0
cpu0->cpu0_L2C LOAD         ACCESS:     299045 HIT:     249250 MISS:      49795 MSHR_MERGE:          0
cpu0->cpu0_L2C RFO          ACCESS:      16799 HIT:       9331 MISS:       7468 MSHR_MERGE:          0
cpu0->cpu0_L2C PREFETCH     ACCESS:          0 HIT:          0 MISS:          0 MSHR_MERGE:          0
cpu0->cpu0_L2C WRITE        ACCESS:      25048 HIT:      25004 MISS:         44 MSHR_MERGE:          0
cpu0->cpu0_L2C TRANSLATION  ACCESS:         69 HIT:         52 MISS:         17 MSHR_MERGE:          0
cpu0->cpu0_L2C PREFETCH REQUESTED:          0 ISSUED:          0 USEFUL:          0 USELESS:          0 LATE:          0
cpu0->cpu0_L2C AVERAGE MISS LATENCY: 37.35 cycles
cpu0->cpu0_L1I TOTAL        ACCESS:    1504252 HIT:    1504252 MISS:          0 MSHR_MERGE:          0
cpu0->cpu0_L1I LOAD         ACCESS:    1504252 HIT:    1504252 MISS:          0 MSHR_MERGE:          0
cpu0->cpu0_L1I RFO          ACCESS:          0 HIT:          0 MISS:          0 MSHR_MERGE:          0
cpu0->cpu0_L1I PREFETCH     ACCESS:          0 HIT:          0 MISS:          0 MSHR_MERGE:          0
cpu0->cpu0_L1I WRITE        ACCESS:          0 HIT:          0 MISS:          0 MSHR_MERGE:          0
cpu0->cpu0_L1I TRANSLATION  ACCESS:          0 HIT:          0 MISS:          0 MSHR_MERGE:          0
cpu0->cpu0_L1I PREFETCH REQUESTED:          0 ISSUED:          0 USEFUL:          0 USELESS:          0 LATE:          0
cpu0->cpu0_L1I AVERAGE MISS LATENCY: - cycles
cpu0->cpu0_L1D TOTAL        ACCESS:   11529071 HIT:   11036596 MISS:     492475 MSHR_MERGE:     176562
cpu0->cpu0_L1D LOAD         ACCESS:    6478364 HIT:    6121118 MISS:     357246 MSHR_MERGE:      58201
cpu0->cpu0_L1D RFO          ACCESS:          0 HIT:          0 MISS:          0 MSHR_MERGE:          0
cpu0->cpu0_L1D PREFETCH     ACCESS:          0 HIT:          0 MISS:          0 MSHR_MERGE:          0
cpu0->cpu0_L1D WRITE        ACCESS:    5050471 HIT:    4915311 MISS:     135160 MSHR_MERGE:     118361
cpu0->cpu0_L1D TRANSLATION  ACCESS:        236 HIT:        167 MISS:         69 MSHR_MERGE:          0
cpu0->cpu0_L1D PREFETCH REQUESTED:          0 ISSUED:          0 USEFUL:          0 USELESS:          0 LATE:          0
cpu0->cpu0_L1D AVERAGE MISS LATENCY: 14.97 cycles
cpu0->cpu0_ITLB TOTAL        ACCESS:    1283457 HIT:    1283457 MISS:          0 MSHR_MERGE:          0
cpu0->cpu0_ITLB LOAD         ACCESS:    1283457 HIT:    1283457 MISS:          0 MSHR_MERGE:          0
cpu0->cpu0_ITLB RFO          ACCESS:          0 HIT:          0 MISS:          0 MSHR_MERGE:          0
cpu0->cpu0_ITLB PREFETCH     ACCESS:          0 HIT:          0 MISS:          0 MSHR_MERGE:          0
cpu0->cpu0_ITLB WRITE        ACCESS:          0 HIT:          0 MISS:          0 MSHR_MERGE:          0
cpu0->cpu0_ITLB TRANSLATION  ACCESS:          0 HIT:          0 MISS:          0 MSHR_MERGE:          0
cpu0->cpu0_ITLB PREFETCH REQUESTED:          0 ISSUED:          0 USEFUL:          0 USELESS:          0 LATE:          0
cpu0->cpu0_ITLB AVERAGE MISS LATENCY: - cycles
cpu0->cpu0_DTLB TOTAL        ACCESS:   10580929 HIT:   10566380 MISS:      14549 MSHR_MERGE:       3308
cpu0->cpu0_DTLB LOAD         ACCESS:   10580929 HIT:   10566380 MISS:      14549 MSHR_MERGE:       3308
cpu0->cpu0_DTLB RFO          ACCESS:          0 HIT:          0 MISS:          0 MSHR_MERGE:          0
cpu0->cpu0_DTLB PREFETCH     ACCESS:          0 HIT:          0 MISS:          0 MSHR_MERGE:          0
cpu0->cpu0_DTLB WRITE        ACCESS:          0 HIT:          0 MISS:          0 MSHR_MERGE:          0
cpu0->cpu0_DTLB TRANSLATION  ACCESS:          0 HIT:          0 MISS:          0 MSHR_MERGE:          0
cpu0->cpu0_DTLB PREFETCH REQUESTED:          0 ISSUED:          0 USEFUL:          0 USELESS:          0 LATE:          0
cpu0->cpu0_DTLB AVERAGE MISS LATENCY: 7.495 cycles
cpu0->LLC TOTAL        ACCESS:      64213 HIT:      56055 MISS:       8158 MSHR_MERGE:          0
cpu0->LLC LOAD         ACCESS:      49795 HIT:      49009 MISS:        786 MSHR_MERGE:          0
cpu0->LLC RFO          ACCESS:       7468 HIT:        111 MISS:       7357 MSHR_MERGE:          0
cpu0->LLC PREFETCH     ACCESS:          0 HIT:          0 MISS:          0 MSHR_MERGE:          0
cpu0->LLC WRITE        ACCESS:       6933 HIT:       6933 MISS:          0 MSHR_MERGE:          0
cpu0->LLC TRANSLATION  ACCESS:         17 HIT:          2 MISS:         15 MSHR_MERGE:          0
cpu0->LLC PREFETCH REQUESTED:          0 ISSUED:          0 USEFUL:          0 USELESS:          0 LATE:          0
cpu0->LLC AVERAGE MISS LATENCY: 156.1 cycles

DRAM Statistics

Channel 0 RQ ROW_BUFFER_HIT:       2568
  ROW_BUFFER_MISS:       5590
  AVG DBUS CONGESTED CYCLE: 2.682
Channel 0 WQ ROW_BUFFER_HIT:          0
  ROW_BUFFER_MISS:          0
  FULL:          0
Channel 0 REFRESHES ISSUED:       1613

[ROI Statistics]
[System Configuration]
num_cpus 1
cpu_freq 4000
fetch_width 6
decode_width 6
dispatch_width 6
execute_width 6
lq_width 2
sq_width 2
retire_width 6
scheduler_size 128
branch_mispredict_penalty 15
rob_size 352
lq_size 128
sq_size 72
ifetch_buffer_size 64
decode_buffer_size 32
dispatch_buffer_size 32
register_file_size 288
decode_latency 1
dispatch_latency 1
schedule_latency 1
execute_latency 1
page_size 4096
block_size 64
core_0_itlb_set 16
core_0_itlb_way 4
core_0_itlb_rq_size 16
core_0_itlb_wq_size 16
core_0_itlb_pq_size 0
core_0_itlb_mshr_size 8
core_0_itlb_hit_latency 1
core_0_itlb_fill_latency 1
core_0_itlb_max_tag_check 2
core_0_itlb_max_fill 2
core_0_dtlb_set 16
core_0_dtlb_way 4
core_0_dtlb_rq_size 16
core_0_dtlb_wq_size 16
core_0_dtlb_pq_size 0
core_0_dtlb_mshr_size 8
core_0_dtlb_hit_latency 1
core_0_dtlb_fill_latency 1
core_0_dtlb_max_tag_check 2
core_0_dtlb_max_fill 2
core_0_stlb_set 128
core_0_stlb_way 12
core_0_stlb_rq_size 32
core_0_stlb_wq_size 32
core_0_stlb_pq_size 0
core_0_stlb_mshr_size 16
core_0_stlb_hit_latency 4
core_0_stlb_fill_latency 4
core_0_stlb_max_tag_check 1
core_0_stlb_max_fill 1
core_0_l1i_set 64
core_0_l1i_way 8
core_0_l1i_rq_size 64
core_0_l1i_wq_size 64
core_0_l1i_pq_size 32
core_0_l1i_mshr_size 8
core_0_l1i_hit_latency 2
core_0_l1i_fill_latency 2
core_0_l1i_max_tag_check 2
core_0_l1i_max_fill 2
core_0_l1d_set 64
core_0_l1d_way 12
core_0_l1d_rq_size 64
core_0_l1d_wq_size 64
core_0_l1d_pq_size 8
core_0_l1d_mshr_size 16
core_0_l1d_hit_latency 2
core_0_l1d_fill_latency 3
core_0_l1d_max_tag_check 2
core_0_l1d_max_fill 2
core_0_l2c_set 1024
core_0_l2c_way 8
core_0_l2c_rq_size 32
core_0_l2c_wq_size 32
core_0_l2c_pq_size 16
core_0_l2c_mshr_size 32
core_0_l2c_hit_latency 5
core_0_l2c_fill_latency 5
core_0_l2c_max_tag_check 1
core_0_l2c_max_fill 1
llc_set 2048
llc_way 16
llc_rq_size 32
llc_wq_size 32
llc_pq_size 32
llc_mshr_size 64
llc_hit_latency 10
llc_fill_latency 10
llc_max_tag_check 1
llc_max_fill 1
dram_channels 1
dram_ranks 1
dram_bankgroups 8
dram_banks 4
dram_rows 65536
dram_columns 1024
dram_channel_width 8
dram_rq_size 64
dram_wq_size 64
dram_size 17179869184
core_0_itlb_prefetcher no
core_0_dtlb_prefetcher no
core_0_stlb_prefetcher no
core_0_l1i_prefetcher no
core_0_l1d_prefetcher no
core_0_l2c_prefetcher no
llc_prefetcher no
llc_replacement drrip

Core_0_instructions 50000003
Core_0_cycles 19352313
Core_0_IPC 2.58367
Core_0_branch_prediction_accuracy 97.8782
Core_0_branch_MPKI 3.02048
Core_0_average_ROB_occupancy_at_mispredict 111.391

Core_0_ITLB_total_access 1283457
Core_0_ITLB_total_hit 1283457
Core_0_ITLB_total_miss 0
Core_0_ITLB_total_MPKI 0
Core_0_ITLB_total_miss_rate 0
Core_0_ITLB_demand_access 1283457
Core_0_ITLB_demand_hit 1283457
Core_0_ITLB_demand_miss 0
Core_0_ITLB_demand_MPKI 0
Core_0_ITLB_demand_miss_rate 0
Core_0_ITLB_load_access 1283457
Core_0_ITLB_load_hit 1283457
Core_0_ITLB_load_miss 0
Core_0_ITLB_load_MPKI 0
Core_0_ITLB_load_miss_rate 0
Core_0_ITLB_rfo_access 0
Core_0_ITLB_rfo_hit 0
Core_0_ITLB_rfo_miss 0
Core_0_ITLB_rfo_MPKI 0
Core_0_ITLB_rfo_miss_rate 0
Core_0_ITLB_prefetch_access 0
Core_0_ITLB_prefetch_hit 0
Core_0_ITLB_prefetch_miss 0
Core_0_ITLB_prefetch_MPKI 0
Core_0_ITLB_prefetch_miss_rate 0
Core_0_ITLB_writeback_access 0
Core_0_ITLB_writeback_hit 0
Core_0_ITLB_writeback_miss 0
Core_0_ITLB_writeback_MPKI 0
Core_0_ITLB_writeback_miss_rate 0
Core_0_ITLB_prefetch_requested 0
Core_0_ITLB_prefetch_issued 0
Core_0_ITLB_prefetch_useful 0
Core_0_ITLB_prefetch_useless 0
Core_0_ITLB_prefetch_late 0
Core_0_ITLB_prefetch_accuracy 0
Core_0_ITLB_prefetch_coverage 0

Core_0_DTLB_total_access 10580929
Core_0_DTLB_total_hit 10566380
Core_0_DTLB_total_miss 14549
Core_0_DTLB_total_MPKI 0.29098
Core_0_DTLB_total_miss_rate 0.00137502
Core_0_DTLB_demand_access 10580929
Core_0_DTLB_demand_hit 10566380
Core_0_DTLB_demand_miss 14549
Core_0_DTLB_demand_MPKI 0.29098
Core_0_DTLB_demand_miss_rate 0.00137502
Core_0_DTLB_load_access 10580929
Core_0_DTLB_load_hit 10566380
Core_0_DTLB_load_miss 14549
Core_0_DTLB_load_MPKI 0.29098
Core_0_DTLB_load_miss_rate 0.00137502
Core_0_DTLB_rfo_access 0
Core_0_DTLB_rfo_hit 0
Core_0_DTLB_rfo_miss 0
Core_0_DTLB_rfo_MPKI 0
Core_0_DTLB_rfo_miss_rate 0
Core_0_DTLB_prefetch_access 0
Core_0_DTLB_prefetch_hit 0
Core_0_DTLB_prefetch_miss 0
Core_0_DTLB_prefetch_MPKI 0
Core_0_DTLB_prefetch_miss_rate 0
Core_0_DTLB_writeback_access 0
Core_0_DTLB_writeback_hit 0
Core_0_DTLB_writeback_miss 0
Core_0_DTLB_writeback_MPKI 0
Core_0_DTLB_writeback_miss_rate 0
Core_0_DTLB_prefetch_requested 0
Core_0_DTLB_prefetch_issued 0
Core_0_DTLB_prefetch_useful 0
Core_0_DTLB_prefetch_useless 0
Core_0_DTLB_prefetch_late 0
Core_0_DTLB_prefetch_accuracy 0
Core_0_DTLB_prefetch_coverage 0

Core_0_STLB_total_access 11241
Core_0_STLB_total_hit 11123
Core_0_STLB_total_miss 118
Core_0_STLB_total_MPKI 0.00236
Core_0_STLB_total_miss_rate 0.0104973
Core_0_STLB_demand_access 11241
Core_0_STLB_demand_hit 11123
Core_0_STLB_demand_miss 118
Core_0_STLB_demand_MPKI 0.00236
Core_0_STLB_demand_miss_rate 0.0104973
Core_0_STLB_load_access 11241
Core_0_STLB_load_hit 11123
Core_0_STLB_load_miss 118
Core_0_STLB_load_MPKI 0.00236
Core_0_STLB_load_miss_rate 0.0104973
Core_0_STLB_rfo_access 0
Core_0_STLB_rfo_hit 0
Core_0_STLB_rfo_miss 0
Core_0_STLB_rfo_MPKI 0
Core_0_STLB_rfo_miss_rate 0
Core_0_STLB_prefetch_access 0
Core_0_STLB_prefetch_hit 0
Core_0_STLB_prefetch_miss 0
Core_0_STLB_prefetch_MPKI 0
Core_0_STLB_prefetch_miss_rate 0
Core_0_STLB_writeback_access 0
Core_0_STLB_writeback_hit 0
Core_0_STLB_writeback_miss 0
Core_0_STLB_writeback_MPKI 0
Core_0_STLB_writeback_miss_rate 0
Core_0_STLB_prefetch_requested 0
Core_0_STLB_prefetch_issued 0
Core_0_STLB_prefetch_useful 0
Core_0_STLB_prefetch_useless 0
Core_0_STLB_prefetch_late 0
Core_0_STLB_prefetch_accuracy 0
Core_0_STLB_prefetch_coverage 0

Core_0_L1I_total_access 1504252
Core_0_L1I_total_hit 1504252
Core_0_L1I_total_miss 0
Core_0_L1I_total_MPKI 0
Core_0_L1I_total_miss_rate 0
Core_0_L1I_demand_access 1504252
Core_0_L1I_demand_hit 1504252
Core_0_L1I_demand_miss 0
Core_0_L1I_demand_MPKI 0
Core_0_L1I_demand_miss_rate 0
Core_0_L1I_load_access 1504252
Core_0_L1I_load_hit 1504252
Core_0_L1I_load_miss 0
Core_0_L1I_load_MPKI 0
Core_0_L1I_load_miss_rate 0
Core_0_L1I_rfo_access 0
Core_0_L1I_rfo_hit 0
Core_0_L1I_rfo_miss 0
Core_0_L1I_rfo_MPKI 0
Core_0_L1I_rfo_miss_rate 0
Core_0_L1I_prefetch_access 0
Core_0_L1I_prefetch_hit 0
Core_0_L1I_prefetch_miss 0
Core_0_L1I_prefetch_MPKI 0
Core_0_L1I_prefetch_miss_rate 0
Core_0_L1I_writeback_access 0
Core_0_L1I_writeback_hit 0
Core_0_L1I_writeback_miss 0
Core_0_L1I_writeback_MPKI 0
Core_0_L1I_writeback_miss_rate 0
Core_0_L1I_prefetch_requested 0
Core_0_L1I_prefetch_issued 0
Core_0_L1I_prefetch_useful 0
Core_0_L1I_prefetch_useless 0
Core_0_L1I_prefetch_late 0
Core_0_L1I_prefetch_accuracy 0
Core_0_L1I_prefetch_coverage 0

Core_0_L1D_total_access 11528835
Core_0_L1D_total_hit 11036429
Core_0_L1D_total_miss 492406
Core_0_L1D_total_MPKI 9.84812
Core_0_L1D_total_miss_rate 0.0427108
Core_0_L1D_demand_access 6478364
Core_0_L1D_demand_hit 6121118
Core_0_L1D_demand_miss 357246
Core_0_L1D_demand_MPKI 7.14492
Core_0_L1D_demand_miss_rate 0.0551445
Core_0_L1D_load_access 6478364
Core_0_L1D_load_hit 6121118
Core_0_L1D_load_miss 357246
Core_0_L1D_load_MPKI 7.14492
Core_0_L1D_load_miss_rate 0.0551445
Core_0_L1D_rfo_access 0
Core_0_L1D_rfo_hit 0
Core_0_L1D_rfo_miss 0
Core_0_L1D_rfo_MPKI 0
Core_0_L1D_rfo_miss_rate 0
Core_0_L1D_prefetch_access 0
Core_0_L1D_prefetch_hit 0
Core_0_L1D_prefetch_miss 0
Core_0_L1D_prefetch_MPKI 0
Core_0_L1D_prefetch_miss_rate 0
Core_0_L1D_writeback_access 5050471
Core_0_L1D_writeback_hit 4915311
Core_0_L1D_writeback_miss 135160
Core_0_L1D_writeback_MPKI 2.7032
Core_0_L1D_writeback_miss_rate 0.0267619
Core_0_L1D_prefetch_requested 0
Core_0_L1D_prefetch_issued 0
Core_0_L1D_prefetch_useful 0
Core_0_L1D_prefetch_useless 0
Core_0_L1D_prefetch_late 0
Core_0_L1D_prefetch_accuracy 0
Core_0_L1D_prefetch_coverage 0

Core_0_L2C_total_access 340892
Core_0_L2C_total_hit 283585
Core_0_L2C_total_miss 57307
Core_0_L2C_total_MPKI 1.14614
Core_0_L2C_total_miss_rate 0.168109
Core_0_L2C_demand_access 315844
Core_0_L2C_demand_hit 258581
Core_0_L2C_demand_miss 57263
Core_0_L2C_demand_MPKI 1.14526
Core_0_L2C_demand_miss_rate 0.181302
Core_0_L2C_load_access 299045
Core_0_L2C_load_hit 249250
Core_0_L2C_load_miss 49795
Core_0_L2C_load_MPKI 0.9959
Core_0_L2C_load_miss_rate 0.166513
Core_0_L2C_rfo_access 16799
Core_0_L2C_rfo_hit 9331
Core_0_L2C_rfo_miss 7468
Core_0_L2C_rfo_MPKI 0.14936
Core_0_L2C_rfo_miss_rate 0.44455
Core_0_L2C_prefetch_access 0
Core_0_L2C_prefetch_hit 0
Core_0_L2C_prefetch_miss 0
Core_0_L2C_prefetch_MPKI 0
Core_0_L2C_prefetch_miss_rate 0
Core_0_L2C_writeback_access 25048
Core_0_L2C_writeback_hit 25004
Core_0_L2C_writeback_miss 44
Core_0_L2C_writeback_MPKI 0.00088
Core_0_L2C_writeback_miss_rate 0.00175663
Core_0_L2C_prefetch_requested 0
Core_0_L2C_prefetch_issued 0
Core_0_L2C_prefetch_useful 0
Core_0_L2C_prefetch_useless 0
Core_0_L2C_prefetch_late 0
Core_0_L2C_prefetch_accuracy 0
Core_0_L2C_prefetch_coverage 0

Core_0_LLC_total_access 64196
Core_0_LLC_total_hit 56053
Core_0_LLC_total_miss 8143
Core_0_LLC_total_MPKI 0.16286
Core_0_LLC_total_miss_rate 0.126846
Core_0_LLC_demand_access 57263
Core_0_LLC_demand_hit 49120
Core_0_LLC_demand_miss 8143
Core_0_LLC_demand_MPKI 0.16286
Core_0_LLC_demand_miss_rate 0.142204
Core_0_LLC_load_access 49795
Core_0_LLC_load_hit 49009
Core_0_LLC_load_miss 786
Core_0_LLC_load_MPKI 0.01572
Core_0_LLC_load_miss_rate 0.0157847
Core_0_LLC_rfo_access 7468
Core_0_LLC_rfo_hit 111
Core_0_LLC_rfo_miss 7357
Core_0_LLC_rfo_MPKI 0.14714
Core_0_LLC_rfo_miss_rate 0.985137
Core_0_LLC_prefetch_access 0
Core_0_LLC_prefetch_hit 0
Core_0_LLC_prefetch_miss 0
Core_0_LLC_prefetch_MPKI 0
Core_0_LLC_prefetch_miss_rate 0
Core_0_LLC_writeback_access 6933
Core_0_LLC_writeback_hit 6933
Core_0_LLC_writeback_miss 0
Core_0_LLC_writeback_MPKI 0
Core_0_LLC_writeback_miss_rate 0
Core_0_LLC_prefetch_requested 0
Core_0_LLC_prefetch_issued 0
Core_0_LLC_prefetch_useful 0
Core_0_LLC_prefetch_useless 0
Core_0_LLC_prefetch_late 0
Core_0_LLC_prefetch_accuracy 0
Core_0_LLC_prefetch_coverage 0

[DRAM Statistics]
Channel_0_RQ_row_buffer_hit 2568
Channel_0_RQ_row_buffer_miss 5590
Channel_0_WQ_row_buffer_hit 0
Channel_0_WQ_row_buffer_miss 0
Channel_0_WQ_full 0
Channel_0_dbus_congested 3225
DRAM_total_RQ_row_buffer_hit 2568
DRAM_total_RQ_row_buffer_miss 5590
DRAM_total_WQ_row_buffer_hit 0
DRAM_total_WQ_row_buffer_miss 0
DRAM_total_WQ_full 0
DRAM_total_dbus_congested 3225
DRAM_avg_congested_cycle 2.68248

======STLB miss causes ========
Core_0_STLB_miss_cause_breakdown
Core_0_STLB_cause_Demand_Data_miss 118
Core_0_STLB_cause_Demand_Data_miss_rate 0.0104973
Core_0_STLB_cause_Demand_Instruction_miss 0
Core_0_STLB_cause_Demand_Instruction_miss_rate 0
Core_0_STLB_cause_L1D_Prefetch_miss 0
Core_0_STLB_cause_L1D_Prefetch_miss_rate 0
Core_0_STLB_cause_L1I_Prefetch_miss 0
Core_0_STLB_cause_L1I_Prefetch_miss_rate 0
Core_0_STLB_cause_Other_miss 0
Core_0_STLB_cause_Other_miss_rate 0
Core_0_STLB_Demand_miss 118
Core_0_STLB_Demand_miss_rate 0.0104973
Core_0_STLB_L1D_Prefetch_miss 0
Core_0_STLB_L1D_Prefetch_miss_rate 0
Core_0_STLB_Other_miss 0
Core_0_STLB_Other_miss_rate 0
