[VMEM] WARNING: physical memory size is smaller than virtual memory size.

*** ChampSim Multicore Out-of-Order Simulator ***
Warmup Instructions: 20000000
Simulation Instructions: 50000000
Number of CPUs: 1
Page size: 4096
Core 0: /data0/tzh/champsim_traces/GAP/gap.pr.web-10B.champsimtrace.xz
Off-chip DRAM Size: 16 GiB Channels: 1 Width: 64-bit Data Rate: 3205 MT/s
Warmup halting CPU 0 at instruction 20000000 cycle 4865771 for remainder of phase
Warmup finished CPU 0 instructions: 20000000 cycles: 4865771 cumulative IPC: 4.11 (Simulation time: 00 hr 01 min 00 sec)
Warmup complete CPU 0 instructions: 20000000 cycles: 4865771 cumulative IPC: 4.11 (Simulation time: 00 hr 01 min 00 sec)
Simulation finished CPU 0 instructions: 50000000 cycles: 167232614 cumulative IPC: 0.299 (Simulation time: 00 hr 17 min 36 sec)
Simulation complete CPU 0 instructions: 50000000 cycles: 167232614 cumulative IPC: 0.299 (Simulation time: 00 hr 17 min 36 sec)

ChampSim completed all CPUs

=== Simulation ===
CPU 0 runs /data0/tzh/champsim_traces/GAP/gap.pr.web-10B.champsimtrace.xz

Region of Interest Statistics

CPU 0 cumulative IPC: 0.299 instructions: 50000000 cycles: 167232614
CPU 0 Branch Prediction Accuracy: 99.45% MPKI: 1.087 Average ROB Occupancy at Mispredict: 212.5
Branch type MPKI
BRANCH_DIRECT_JUMP: 0
BRANCH_INDIRECT: 0
BRANCH_CONDITIONAL: 1.087
BRANCH_DIRECT_CALL: 0
BRANCH_INDIRECT_CALL: 0
BRANCH_RETURN: 0

cpu0->cpu0_STLB TOTAL        ACCESS:      32526 HIT:      10499 MISS:      22027 MSHR_MERGE:          0
cpu0->cpu0_STLB LOAD         ACCESS:      32526 HIT:      10499 MISS:      22027 MSHR_MERGE:          0
cpu0->cpu0_STLB RFO          ACCESS:          0 HIT:          0 MISS:          0 MSHR_MERGE:          0
cpu0->cpu0_STLB PREFETCH     ACCESS:          0 HIT:          0 MISS:          0 MSHR_MERGE:          0
cpu0->cpu0_STLB WRITE        ACCESS:          0 HIT:          0 MISS:          0 MSHR_MERGE:          0
cpu0->cpu0_STLB TRANSLATION  ACCESS:          0 HIT:          0 MISS:          0 MSHR_MERGE:          0
cpu0->cpu0_STLB PREFETCH REQUESTED:          0 ISSUED:          0 USEFUL:          0 USELESS:          0 LATE:          0
cpu0->cpu0_STLB AVERAGE MISS LATENCY: 227.8 cycles
cpu0->cpu0_L2C TOTAL        ACCESS:    1384335 HIT:     255725 MISS:    1128610 MSHR_MERGE:          0
cpu0->cpu0_L2C LOAD         ACCESS:    1370210 HIT:     246090 MISS:    1124120 MSHR_MERGE:          0
cpu0->cpu0_L2C RFO          ACCESS:        843 HIT:        498 MISS:        345 MSHR_MERGE:          0
cpu0->cpu0_L2C PREFETCH     ACCESS:          0 HIT:          0 MISS:          0 MSHR_MERGE:          0
cpu0->cpu0_L2C WRITE        ACCESS:       8914 HIT:       8777 MISS:        137 MSHR_MERGE:          0
cpu0->cpu0_L2C TRANSLATION  ACCESS:       4368 HIT:        360 MISS:       4008 MSHR_MERGE:          0
cpu0->cpu0_L2C PREFETCH REQUESTED:          0 ISSUED:          0 USEFUL:          0 USELESS:          0 LATE:          0
cpu0->cpu0_L2C AVERAGE MISS LATENCY: 192.6 cycles
cpu0->cpu0_L1I TOTAL        ACCESS:    9292868 HIT:    9292868 MISS:          0 MSHR_MERGE:          0
cpu0->cpu0_L1I LOAD         ACCESS:    9292868 HIT:    9292868 MISS:          0 MSHR_MERGE:          0
cpu0->cpu0_L1I RFO          ACCESS:          0 HIT:          0 MISS:          0 MSHR_MERGE:          0
cpu0->cpu0_L1I PREFETCH     ACCESS:          0 HIT:          0 MISS:          0 MSHR_MERGE:          0
cpu0->cpu0_L1I WRITE        ACCESS:          0 HIT:          0 MISS:          0 MSHR_MERGE:          0
cpu0->cpu0_L1I TRANSLATION  ACCESS:          0 HIT:          0 MISS:          0 MSHR_MERGE:          0
cpu0->cpu0_L1I PREFETCH REQUESTED:          0 ISSUED:          0 USEFUL:          0 USELESS:          0 LATE:          0
cpu0->cpu0_L1I AVERAGE MISS LATENCY: - cycles
cpu0->cpu0_L1D TOTAL        ACCESS:   19887490 HIT:   12161861 MISS:    7725629 MSHR_MERGE:    6350208
cpu0->cpu0_L1D LOAD         ACCESS:   19648061 HIT:   11928230 MISS:    7719831 MSHR_MERGE:    6349621
cpu0->cpu0_L1D RFO          ACCESS:          0 HIT:          0 MISS:          0 MSHR_MERGE:          0
cpu0->cpu0_L1D PREFETCH     ACCESS:          0 HIT:          0 MISS:          0 MSHR_MERGE:          0
cpu0->cpu0_L1D WRITE        ACCESS:     195193 HIT:     193763 MISS:       1430 MSHR_MERGE:        587
cpu0->cpu0_L1D TRANSLATION  ACCESS:      44236 HIT:      39868 MISS:       4368 MSHR_MERGE:          0
cpu0->cpu0_L1D PREFETCH REQUESTED:          0 ISSUED:          0 USEFUL:          0 USELESS:          0 LATE:          0
cpu0->cpu0_L1D AVERAGE MISS LATENCY: 166.9 cycles
cpu0->cpu0_ITLB TOTAL        ACCESS:    9289905 HIT:    9289905 MISS:          0 MSHR_MERGE:          0
cpu0->cpu0_ITLB LOAD         ACCESS:    9289905 HIT:    9289905 MISS:          0 MSHR_MERGE:          0
cpu0->cpu0_ITLB RFO          ACCESS:          0 HIT:          0 MISS:          0 MSHR_MERGE:          0
cpu0->cpu0_ITLB PREFETCH     ACCESS:          0 HIT:          0 MISS:          0 MSHR_MERGE:          0
cpu0->cpu0_ITLB WRITE        ACCESS:          0 HIT:          0 MISS:          0 MSHR_MERGE:          0
cpu0->cpu0_ITLB TRANSLATION  ACCESS:          0 HIT:          0 MISS:          0 MSHR_MERGE:          0
cpu0->cpu0_ITLB PREFETCH REQUESTED:          0 ISSUED:          0 USEFUL:          0 USELESS:          0 LATE:          0
cpu0->cpu0_ITLB AVERAGE MISS LATENCY: - cycles
cpu0->cpu0_DTLB TOTAL        ACCESS:   19813431 HIT:   19675673 MISS:     137758 MSHR_MERGE:     105232
cpu0->cpu0_DTLB LOAD         ACCESS:   19813431 HIT:   19675673 MISS:     137758 MSHR_MERGE:     105232
cpu0->cpu0_DTLB RFO          ACCESS:          0 HIT:          0 MISS:          0 MSHR_MERGE:          0
cpu0->cpu0_DTLB PREFETCH     ACCESS:          0 HIT:          0 MISS:          0 MSHR_MERGE:          0
cpu0->cpu0_DTLB WRITE        ACCESS:          0 HIT:          0 MISS:          0 MSHR_MERGE:          0
cpu0->cpu0_DTLB TRANSLATION  ACCESS:          0 HIT:          0 MISS:          0 MSHR_MERGE:          0
cpu0->cpu0_DTLB PREFETCH REQUESTED:          0 ISSUED:          0 USEFUL:          0 USELESS:          0 LATE:          0
cpu0->cpu0_DTLB AVERAGE MISS LATENCY: 160 cycles
cpu0->LLC TOTAL        ACCESS:    1136800 HIT:      24924 MISS:    1111876 MSHR_MERGE:          0
cpu0->LLC LOAD         ACCESS:    1124120 HIT:      19836 MISS:    1104284 MSHR_MERGE:          0
cpu0->LLC RFO          ACCESS:        345 HIT:         43 MISS:        302 MSHR_MERGE:          0
cpu0->LLC PREFETCH     ACCESS:          0 HIT:          0 MISS:          0 MSHR_MERGE:          0
cpu0->LLC WRITE        ACCESS:       8327 HIT:       4867 MISS:       3460 MSHR_MERGE:          0
cpu0->LLC TRANSLATION  ACCESS:       4008 HIT:        178 MISS:       3830 MSHR_MERGE:          0
cpu0->LLC PREFETCH REQUESTED:          0 ISSUED:          0 USEFUL:          0 USELESS:          0 LATE:          0
cpu0->LLC AVERAGE MISS LATENCY: 179.3 cycles

DRAM Statistics

Channel 0 RQ ROW_BUFFER_HIT:      84459
  ROW_BUFFER_MISS:    1023956
  AVG DBUS CONGESTED CYCLE: 19.9
Channel 0 WQ ROW_BUFFER_HIT:       7491
  ROW_BUFFER_MISS:      13550
  FULL:          0
Channel 0 REFRESHES ISSUED:      13936

[ROI Statistics]
[System Configuration]
num_cpus 1
cpu_freq 4000
fetch_width 6
decode_width 6
dispatch_width 6
execute_width 6
lq_width 2
sq_width 2
retire_width 6
scheduler_size 128
branch_mispredict_penalty 15
rob_size 352
lq_size 128
sq_size 72
ifetch_buffer_size 64
decode_buffer_size 32
dispatch_buffer_size 32
register_file_size 288
decode_latency 1
dispatch_latency 1
schedule_latency 1
execute_latency 1
page_size 4096
block_size 64
core_0_itlb_set 16
core_0_itlb_way 4
core_0_itlb_rq_size 16
core_0_itlb_wq_size 16
core_0_itlb_pq_size 0
core_0_itlb_mshr_size 8
core_0_itlb_hit_latency 1
core_0_itlb_fill_latency 1
core_0_itlb_max_tag_check 2
core_0_itlb_max_fill 2
core_0_dtlb_set 16
core_0_dtlb_way 4
core_0_dtlb_rq_size 16
core_0_dtlb_wq_size 16
core_0_dtlb_pq_size 0
core_0_dtlb_mshr_size 8
core_0_dtlb_hit_latency 1
core_0_dtlb_fill_latency 1
core_0_dtlb_max_tag_check 2
core_0_dtlb_max_fill 2
core_0_stlb_set 128
core_0_stlb_way 12
core_0_stlb_rq_size 32
core_0_stlb_wq_size 32
core_0_stlb_pq_size 0
core_0_stlb_mshr_size 16
core_0_stlb_hit_latency 4
core_0_stlb_fill_latency 4
core_0_stlb_max_tag_check 1
core_0_stlb_max_fill 1
core_0_l1i_set 64
core_0_l1i_way 8
core_0_l1i_rq_size 64
core_0_l1i_wq_size 64
core_0_l1i_pq_size 32
core_0_l1i_mshr_size 8
core_0_l1i_hit_latency 2
core_0_l1i_fill_latency 2
core_0_l1i_max_tag_check 2
core_0_l1i_max_fill 2
core_0_l1d_set 64
core_0_l1d_way 12
core_0_l1d_rq_size 64
core_0_l1d_wq_size 64
core_0_l1d_pq_size 8
core_0_l1d_mshr_size 16
core_0_l1d_hit_latency 2
core_0_l1d_fill_latency 3
core_0_l1d_max_tag_check 2
core_0_l1d_max_fill 2
core_0_l2c_set 1024
core_0_l2c_way 8
core_0_l2c_rq_size 32
core_0_l2c_wq_size 32
core_0_l2c_pq_size 16
core_0_l2c_mshr_size 32
core_0_l2c_hit_latency 5
core_0_l2c_fill_latency 5
core_0_l2c_max_tag_check 1
core_0_l2c_max_fill 1
llc_set 2048
llc_way 16
llc_rq_size 32
llc_wq_size 32
llc_pq_size 32
llc_mshr_size 64
llc_hit_latency 10
llc_fill_latency 10
llc_max_tag_check 1
llc_max_fill 1
dram_channels 1
dram_ranks 1
dram_bankgroups 8
dram_banks 4
dram_rows 65536
dram_columns 1024
dram_channel_width 8
dram_rq_size 64
dram_wq_size 64
dram_size 17179869184
core_0_itlb_prefetcher no
core_0_dtlb_prefetcher no
core_0_stlb_prefetcher no
core_0_l1i_prefetcher no
core_0_l1d_prefetcher no
core_0_l2c_prefetcher no
llc_prefetcher no
llc_replacement drrip

Core_0_instructions 50000000
Core_0_cycles 167232614
Core_0_IPC 0.298985
Core_0_branch_prediction_accuracy 99.4452
Core_0_branch_MPKI 1.0865
Core_0_average_ROB_occupancy_at_mispredict 212.531

Core_0_ITLB_total_access 9289905
Core_0_ITLB_total_hit 9289905
Core_0_ITLB_total_miss 0
Core_0_ITLB_total_MPKI 0
Core_0_ITLB_total_miss_rate 0
Core_0_ITLB_demand_access 9289905
Core_0_ITLB_demand_hit 9289905
Core_0_ITLB_demand_miss 0
Core_0_ITLB_demand_MPKI 0
Core_0_ITLB_demand_miss_rate 0
Core_0_ITLB_load_access 9289905
Core_0_ITLB_load_hit 9289905
Core_0_ITLB_load_miss 0
Core_0_ITLB_load_MPKI 0
Core_0_ITLB_load_miss_rate 0
Core_0_ITLB_rfo_access 0
Core_0_ITLB_rfo_hit 0
Core_0_ITLB_rfo_miss 0
Core_0_ITLB_rfo_MPKI 0
Core_0_ITLB_rfo_miss_rate 0
Core_0_ITLB_prefetch_access 0
Core_0_ITLB_prefetch_hit 0
Core_0_ITLB_prefetch_miss 0
Core_0_ITLB_prefetch_MPKI 0
Core_0_ITLB_prefetch_miss_rate 0
Core_0_ITLB_writeback_access 0
Core_0_ITLB_writeback_hit 0
Core_0_ITLB_writeback_miss 0
Core_0_ITLB_writeback_MPKI 0
Core_0_ITLB_writeback_miss_rate 0
Core_0_ITLB_prefetch_requested 0
Core_0_ITLB_prefetch_issued 0
Core_0_ITLB_prefetch_useful 0
Core_0_ITLB_prefetch_useless 0
Core_0_ITLB_prefetch_late 0
Core_0_ITLB_prefetch_accuracy 0
Core_0_ITLB_prefetch_coverage 0

Core_0_DTLB_total_access 19813431
Core_0_DTLB_total_hit 19675673
Core_0_DTLB_total_miss 137758
Core_0_DTLB_total_MPKI 2.75516
Core_0_DTLB_total_miss_rate 0.00695276
Core_0_DTLB_demand_access 19813431
Core_0_DTLB_demand_hit 19675673
Core_0_DTLB_demand_miss 137758
Core_0_DTLB_demand_MPKI 2.75516
Core_0_DTLB_demand_miss_rate 0.00695276
Core_0_DTLB_load_access 19813431
Core_0_DTLB_load_hit 19675673
Core_0_DTLB_load_miss 137758
Core_0_DTLB_load_MPKI 2.75516
Core_0_DTLB_load_miss_rate 0.00695276
Core_0_DTLB_rfo_access 0
Core_0_DTLB_rfo_hit 0
Core_0_DTLB_rfo_miss 0
Core_0_DTLB_rfo_MPKI 0
Core_0_DTLB_rfo_miss_rate 0
Core_0_DTLB_prefetch_access 0
Core_0_DTLB_prefetch_hit 0
Core_0_DTLB_prefetch_miss 0
Core_0_DTLB_prefetch_MPKI 0
Core_0_DTLB_prefetch_miss_rate 0
Core_0_DTLB_writeback_access 0
Core_0_DTLB_writeback_hit 0
Core_0_DTLB_writeback_miss 0
Core_0_DTLB_writeback_MPKI 0
Core_0_DTLB_writeback_miss_rate 0
Core_0_DTLB_prefetch_requested 0
Core_0_DTLB_prefetch_issued 0
Core_0_DTLB_prefetch_useful 0
Core_0_DTLB_prefetch_useless 0
Core_0_DTLB_prefetch_late 0
Core_0_DTLB_prefetch_accuracy 0
Core_0_DTLB_prefetch_coverage 0

Core_0_STLB_total_access 32526
Core_0_STLB_total_hit 10499
Core_0_STLB_total_miss 22027
Core_0_STLB_total_MPKI 0.44054
Core_0_STLB_total_miss_rate 0.677212
Core_0_STLB_demand_access 32526
Core_0_STLB_demand_hit 10499
Core_0_STLB_demand_miss 22027
Core_0_STLB_demand_MPKI 0.44054
Core_0_STLB_demand_miss_rate 0.677212
Core_0_STLB_load_access 32526
Core_0_STLB_load_hit 10499
Core_0_STLB_load_miss 22027
Core_0_STLB_load_MPKI 0.44054
Core_0_STLB_load_miss_rate 0.677212
Core_0_STLB_rfo_access 0
Core_0_STLB_rfo_hit 0
Core_0_STLB_rfo_miss 0
Core_0_STLB_rfo_MPKI 0
Core_0_STLB_rfo_miss_rate 0
Core_0_STLB_prefetch_access 0
Core_0_STLB_prefetch_hit 0
Core_0_STLB_prefetch_miss 0
Core_0_STLB_prefetch_MPKI 0
Core_0_STLB_prefetch_miss_rate 0
Core_0_STLB_writeback_access 0
Core_0_STLB_writeback_hit 0
Core_0_STLB_writeback_miss 0
Core_0_STLB_writeback_MPKI 0
Core_0_STLB_writeback_miss_rate 0
Core_0_STLB_prefetch_requested 0
Core_0_STLB_prefetch_issued 0
Core_0_STLB_prefetch_useful 0
Core_0_STLB_prefetch_useless 0
Core_0_STLB_prefetch_late 0
Core_0_STLB_prefetch_accuracy 0
Core_0_STLB_prefetch_coverage 0

Core_0_L1I_total_access 9292868
Core_0_L1I_total_hit 9292868
Core_0_L1I_total_miss 0
Core_0_L1I_total_MPKI 0
Core_0_L1I_total_miss_rate 0
Core_0_L1I_demand_access 9292868
Core_0_L1I_demand_hit 9292868
Core_0_L1I_demand_miss 0
Core_0_L1I_demand_MPKI 0
Core_0_L1I_demand_miss_rate 0
Core_0_L1I_load_access 9292868
Core_0_L1I_load_hit 9292868
Core_0_L1I_load_miss 0
Core_0_L1I_load_MPKI 0
Core_0_L1I_load_miss_rate 0
Core_0_L1I_rfo_access 0
Core_0_L1I_rfo_hit 0
Core_0_L1I_rfo_miss 0
Core_0_L1I_rfo_MPKI 0
Core_0_L1I_rfo_miss_rate 0
Core_0_L1I_prefetch_access 0
Core_0_L1I_prefetch_hit 0
Core_0_L1I_prefetch_miss 0
Core_0_L1I_prefetch_MPKI 0
Core_0_L1I_prefetch_miss_rate 0
Core_0_L1I_writeback_access 0
Core_0_L1I_writeback_hit 0
Core_0_L1I_writeback_miss 0
Core_0_L1I_writeback_MPKI 0
Core_0_L1I_writeback_miss_rate 0
Core_0_L1I_prefetch_requested 0
Core_0_L1I_prefetch_issued 0
Core_0_L1I_prefetch_useful 0
Core_0_L1I_prefetch_useless 0
Core_0_L1I_prefetch_late 0
Core_0_L1I_prefetch_accuracy 0
Core_0_L1I_prefetch_coverage 0

Core_0_L1D_total_access 19843254
Core_0_L1D_total_hit 12121993
Core_0_L1D_total_miss 7721261
Core_0_L1D_total_MPKI 154.425
Core_0_L1D_total_miss_rate 0.389113
Core_0_L1D_demand_access 19648061
Core_0_L1D_demand_hit 11928230
Core_0_L1D_demand_miss 7719831
Core_0_L1D_demand_MPKI 154.397
Core_0_L1D_demand_miss_rate 0.392905
Core_0_L1D_load_access 19648061
Core_0_L1D_load_hit 11928230
Core_0_L1D_load_miss 7719831
Core_0_L1D_load_MPKI 154.397
Core_0_L1D_load_miss_rate 0.392905
Core_0_L1D_rfo_access 0
Core_0_L1D_rfo_hit 0
Core_0_L1D_rfo_miss 0
Core_0_L1D_rfo_MPKI 0
Core_0_L1D_rfo_miss_rate 0
Core_0_L1D_prefetch_access 0
Core_0_L1D_prefetch_hit 0
Core_0_L1D_prefetch_miss 0
Core_0_L1D_prefetch_MPKI 0
Core_0_L1D_prefetch_miss_rate 0
Core_0_L1D_writeback_access 195193
Core_0_L1D_writeback_hit 193763
Core_0_L1D_writeback_miss 1430
Core_0_L1D_writeback_MPKI 0.0286
Core_0_L1D_writeback_miss_rate 0.00732608
Core_0_L1D_prefetch_requested 0
Core_0_L1D_prefetch_issued 0
Core_0_L1D_prefetch_useful 0
Core_0_L1D_prefetch_useless 0
Core_0_L1D_prefetch_late 0
Core_0_L1D_prefetch_accuracy 0
Core_0_L1D_prefetch_coverage 0

Core_0_L2C_total_access 1379967
Core_0_L2C_total_hit 255365
Core_0_L2C_total_miss 1124602
Core_0_L2C_total_MPKI 22.492
Core_0_L2C_total_miss_rate 0.814948
Core_0_L2C_demand_access 1371053
Core_0_L2C_demand_hit 246588
Core_0_L2C_demand_miss 1124465
Core_0_L2C_demand_MPKI 22.4893
Core_0_L2C_demand_miss_rate 0.820147
Core_0_L2C_load_access 1370210
Core_0_L2C_load_hit 246090
Core_0_L2C_load_miss 1124120
Core_0_L2C_load_MPKI 22.4824
Core_0_L2C_load_miss_rate 0.8204
Core_0_L2C_rfo_access 843
Core_0_L2C_rfo_hit 498
Core_0_L2C_rfo_miss 345
Core_0_L2C_rfo_MPKI 0.0069
Core_0_L2C_rfo_miss_rate 0.409253
Core_0_L2C_prefetch_access 0
Core_0_L2C_prefetch_hit 0
Core_0_L2C_prefetch_miss 0
Core_0_L2C_prefetch_MPKI 0
Core_0_L2C_prefetch_miss_rate 0
Core_0_L2C_writeback_access 8914
Core_0_L2C_writeback_hit 8777
Core_0_L2C_writeback_miss 137
Core_0_L2C_writeback_MPKI 0.00274
Core_0_L2C_writeback_miss_rate 0.0153691
Core_0_L2C_prefetch_requested 0
Core_0_L2C_prefetch_issued 0
Core_0_L2C_prefetch_useful 0
Core_0_L2C_prefetch_useless 0
Core_0_L2C_prefetch_late 0
Core_0_L2C_prefetch_accuracy 0
Core_0_L2C_prefetch_coverage 0

Core_0_LLC_total_access 1132792
Core_0_LLC_total_hit 24746
Core_0_LLC_total_miss 1108046
Core_0_LLC_total_MPKI 22.1609
Core_0_LLC_total_miss_rate 0.978155
Core_0_LLC_demand_access 1124465
Core_0_LLC_demand_hit 19879
Core_0_LLC_demand_miss 1104586
Core_0_LLC_demand_MPKI 22.0917
Core_0_LLC_demand_miss_rate 0.982321
Core_0_LLC_load_access 1124120
Core_0_LLC_load_hit 19836
Core_0_LLC_load_miss 1104284
Core_0_LLC_load_MPKI 22.0857
Core_0_LLC_load_miss_rate 0.982354
Core_0_LLC_rfo_access 345
Core_0_LLC_rfo_hit 43
Core_0_LLC_rfo_miss 302
Core_0_LLC_rfo_MPKI 0.00604
Core_0_LLC_rfo_miss_rate 0.875362
Core_0_LLC_prefetch_access 0
Core_0_LLC_prefetch_hit 0
Core_0_LLC_prefetch_miss 0
Core_0_LLC_prefetch_MPKI 0
Core_0_LLC_prefetch_miss_rate 0
Core_0_LLC_writeback_access 8327
Core_0_LLC_writeback_hit 4867
Core_0_LLC_writeback_miss 3460
Core_0_LLC_writeback_MPKI 0.0692
Core_0_LLC_writeback_miss_rate 0.415516
Core_0_LLC_prefetch_requested 0
Core_0_LLC_prefetch_issued 0
Core_0_LLC_prefetch_useful 0
Core_0_LLC_prefetch_useless 0
Core_0_LLC_prefetch_late 0
Core_0_LLC_prefetch_accuracy 0
Core_0_LLC_prefetch_coverage 0

[DRAM Statistics]
Channel_0_RQ_row_buffer_hit 84459
Channel_0_RQ_row_buffer_miss 1023956
Channel_0_WQ_row_buffer_hit 7491
Channel_0_WQ_row_buffer_miss 13550
Channel_0_WQ_full 0
Channel_0_dbus_congested 1086802
DRAM_total_RQ_row_buffer_hit 84459
DRAM_total_RQ_row_buffer_miss 1023956
DRAM_total_WQ_row_buffer_hit 7491
DRAM_total_WQ_row_buffer_miss 13550
DRAM_total_WQ_full 0
DRAM_total_dbus_congested 1086802
DRAM_avg_congested_cycle 19.8952

======STLB miss causes ========
Core_0_STLB_miss_cause_breakdown
Core_0_STLB_cause_Demand_Data_miss 22027
Core_0_STLB_cause_Demand_Data_miss_rate 0.677212
Core_0_STLB_cause_Demand_Instruction_miss 0
Core_0_STLB_cause_Demand_Instruction_miss_rate 0
Core_0_STLB_cause_L1D_Prefetch_miss 0
Core_0_STLB_cause_L1D_Prefetch_miss_rate 0
Core_0_STLB_cause_L1I_Prefetch_miss 0
Core_0_STLB_cause_L1I_Prefetch_miss_rate 0
Core_0_STLB_cause_Other_miss 0
Core_0_STLB_cause_Other_miss_rate 0
Core_0_STLB_Demand_miss 22027
Core_0_STLB_Demand_miss_rate 0.677212
Core_0_STLB_L1D_Prefetch_miss 0
Core_0_STLB_L1D_Prefetch_miss_rate 0
Core_0_STLB_Other_miss 0
Core_0_STLB_Other_miss_rate 0
