[VMEM] WARNING: physical memory size is smaller than virtual memory size.

*** ChampSim Multicore Out-of-Order Simulator ***
Warmup Instructions: 20000000
Simulation Instructions: 50000000
Number of CPUs: 1
Page size: 4096
Core 0: /data0/tzh/champsim_traces/Ligra/ligra_BFSCC.com-lj.ungraph.gcc_6.3.0_O3.drop_17000M.length_250M.champsimtrace.xz
Off-chip DRAM Size: 16 GiB Channels: 1 Width: 64-bit Data Rate: 3205 MT/s
Warmup halting CPU 0 at instruction 20000000 cycle 6352557 for remainder of phase
Warmup finished CPU 0 instructions: 20000000 cycles: 6352557 cumulative IPC: 3.148 (Simulation time: 00 hr 01 min 09 sec)
Warmup complete CPU 0 instructions: 20000000 cycles: 6352557 cumulative IPC: 3.148 (Simulation time: 00 hr 01 min 09 sec)
Simulation finished CPU 0 instructions: 50000003 cycles: 47433974 cumulative IPC: 1.054 (Simulation time: 00 hr 07 min 38 sec)
Simulation complete CPU 0 instructions: 50000003 cycles: 47433974 cumulative IPC: 1.054 (Simulation time: 00 hr 07 min 38 sec)

ChampSim completed all CPUs

=== Simulation ===
CPU 0 runs /data0/tzh/champsim_traces/Ligra/ligra_BFSCC.com-lj.ungraph.gcc_6.3.0_O3.drop_17000M.length_250M.champsimtrace.xz

Region of Interest Statistics

CPU 0 cumulative IPC: 1.054 instructions: 50000003 cycles: 47433974
CPU 0 Branch Prediction Accuracy: 99.31% MPKI: 0.683 Average ROB Occupancy at Mispredict: 229.8
Branch type MPKI
BRANCH_DIRECT_JUMP: 2e-05
BRANCH_INDIRECT: 0
BRANCH_CONDITIONAL: 0.6829
BRANCH_DIRECT_CALL: 4e-05
BRANCH_INDIRECT_CALL: 0
BRANCH_RETURN: 0.0001

cpu0->cpu0_STLB TOTAL        ACCESS:      21631 HIT:      10917 MISS:      10714 MSHR_MERGE:          0
cpu0->cpu0_STLB LOAD         ACCESS:      21631 HIT:      10917 MISS:      10714 MSHR_MERGE:          0
cpu0->cpu0_STLB RFO          ACCESS:          0 HIT:          0 MISS:          0 MSHR_MERGE:          0
cpu0->cpu0_STLB PREFETCH     ACCESS:          0 HIT:          0 MISS:          0 MSHR_MERGE:          0
cpu0->cpu0_STLB WRITE        ACCESS:          0 HIT:          0 MISS:          0 MSHR_MERGE:          0
cpu0->cpu0_STLB TRANSLATION  ACCESS:          0 HIT:          0 MISS:          0 MSHR_MERGE:          0
cpu0->cpu0_STLB PREFETCH REQUESTED:          0 ISSUED:          0 USEFUL:          0 USELESS:          0 LATE:          0
cpu0->cpu0_STLB AVERAGE MISS LATENCY: 172.1 cycles
cpu0->cpu0_L2C TOTAL        ACCESS:    1601393 HIT:     728729 MISS:     872664 MSHR_MERGE:          0
cpu0->cpu0_L2C LOAD         ACCESS:     586600 HIT:     163450 MISS:     423150 MSHR_MERGE:          0
cpu0->cpu0_L2C RFO          ACCESS:     480339 HIT:      32965 MISS:     447374 MSHR_MERGE:          0
cpu0->cpu0_L2C PREFETCH     ACCESS:          0 HIT:          0 MISS:          0 MSHR_MERGE:          0
cpu0->cpu0_L2C WRITE        ACCESS:     530406 HIT:     530358 MISS:         48 MSHR_MERGE:          0
cpu0->cpu0_L2C TRANSLATION  ACCESS:       4048 HIT:       1956 MISS:       2092 MSHR_MERGE:          0
cpu0->cpu0_L2C PREFETCH REQUESTED:          0 ISSUED:          0 USEFUL:          0 USELESS:          0 LATE:          0
cpu0->cpu0_L2C AVERAGE MISS LATENCY: 386.3 cycles
cpu0->cpu0_L1I TOTAL        ACCESS:    6218873 HIT:    6218870 MISS:          3 MSHR_MERGE:          1
cpu0->cpu0_L1I LOAD         ACCESS:    6218873 HIT:    6218870 MISS:          3 MSHR_MERGE:          1
cpu0->cpu0_L1I RFO          ACCESS:          0 HIT:          0 MISS:          0 MSHR_MERGE:          0
cpu0->cpu0_L1I PREFETCH     ACCESS:          0 HIT:          0 MISS:          0 MSHR_MERGE:          0
cpu0->cpu0_L1I WRITE        ACCESS:          0 HIT:          0 MISS:          0 MSHR_MERGE:          0
cpu0->cpu0_L1I TRANSLATION  ACCESS:          0 HIT:          0 MISS:          0 MSHR_MERGE:          0
cpu0->cpu0_L1I PREFETCH REQUESTED:          0 ISSUED:          0 USEFUL:          0 USELESS:          0 LATE:          0
cpu0->cpu0_L1I AVERAGE MISS LATENCY: 198.5 cycles
cpu0->cpu0_L1D TOTAL        ACCESS:   14018766 HIT:   10021421 MISS:    3997345 MSHR_MERGE:    2926350
cpu0->cpu0_L1D LOAD         ACCESS:    3833242 HIT:    2492797 MISS:    1340445 MSHR_MERGE:     753847
cpu0->cpu0_L1D RFO          ACCESS:          0 HIT:          0 MISS:          0 MSHR_MERGE:          0
cpu0->cpu0_L1D PREFETCH     ACCESS:          0 HIT:          0 MISS:          0 MSHR_MERGE:          0
cpu0->cpu0_L1D WRITE        ACCESS:   10164804 HIT:    7512722 MISS:    2652082 MSHR_MERGE:    2171733
cpu0->cpu0_L1D TRANSLATION  ACCESS:      20720 HIT:      15902 MISS:       4818 MSHR_MERGE:        770
cpu0->cpu0_L1D PREFETCH REQUESTED:          0 ISSUED:          0 USEFUL:          0 USELESS:          0 LATE:          0
cpu0->cpu0_L1D AVERAGE MISS LATENCY: 323.6 cycles
cpu0->cpu0_ITLB TOTAL        ACCESS:    5992528 HIT:    5992528 MISS:          0 MSHR_MERGE:          0
cpu0->cpu0_ITLB LOAD         ACCESS:    5992528 HIT:    5992528 MISS:          0 MSHR_MERGE:          0
cpu0->cpu0_ITLB RFO          ACCESS:          0 HIT:          0 MISS:          0 MSHR_MERGE:          0
cpu0->cpu0_ITLB PREFETCH     ACCESS:          0 HIT:          0 MISS:          0 MSHR_MERGE:          0
cpu0->cpu0_ITLB WRITE        ACCESS:          0 HIT:          0 MISS:          0 MSHR_MERGE:          0
cpu0->cpu0_ITLB TRANSLATION  ACCESS:          0 HIT:          0 MISS:          0 MSHR_MERGE:          0
cpu0->cpu0_ITLB PREFETCH REQUESTED:          0 ISSUED:          0 USEFUL:          0 USELESS:          0 LATE:          0
cpu0->cpu0_ITLB AVERAGE MISS LATENCY: - cycles
cpu0->cpu0_DTLB TOTAL        ACCESS:   12356698 HIT:   12258697 MISS:      98001 MSHR_MERGE:      76370
cpu0->cpu0_DTLB LOAD         ACCESS:   12356698 HIT:   12258697 MISS:      98001 MSHR_MERGE:      76370
cpu0->cpu0_DTLB RFO          ACCESS:          0 HIT:          0 MISS:          0 MSHR_MERGE:          0
cpu0->cpu0_DTLB PREFETCH     ACCESS:          0 HIT:          0 MISS:          0 MSHR_MERGE:          0
cpu0->cpu0_DTLB WRITE        ACCESS:          0 HIT:          0 MISS:          0 MSHR_MERGE:          0
cpu0->cpu0_DTLB TRANSLATION  ACCESS:          0 HIT:          0 MISS:          0 MSHR_MERGE:          0
cpu0->cpu0_DTLB PREFETCH REQUESTED:          0 ISSUED:          0 USEFUL:          0 USELESS:          0 LATE:          0
cpu0->cpu0_DTLB AVERAGE MISS LATENCY: 90.74 cycles
cpu0->LLC TOTAL        ACCESS:    1376424 HIT:     103335 MISS:    1273089 MSHR_MERGE:          0
cpu0->LLC LOAD         ACCESS:     423150 HIT:      21782 MISS:     401368 MSHR_MERGE:          0
cpu0->LLC RFO          ACCESS:     447374 HIT:       2386 MISS:     444988 MSHR_MERGE:          0
cpu0->LLC PREFETCH     ACCESS:          0 HIT:          0 MISS:          0 MSHR_MERGE:          0
cpu0->LLC WRITE        ACCESS:     503808 HIT:      79096 MISS:     424712 MSHR_MERGE:          0
cpu0->LLC TRANSLATION  ACCESS:       2092 HIT:         71 MISS:       2021 MSHR_MERGE:          0
cpu0->LLC PREFETCH REQUESTED:          0 ISSUED:          0 USEFUL:          0 USELESS:          0 LATE:          0
cpu0->LLC AVERAGE MISS LATENCY: 256.8 cycles

DRAM Statistics

Channel 0 RQ ROW_BUFFER_HIT:      44065
  ROW_BUFFER_MISS:     804225
  AVG DBUS CONGESTED CYCLE: 7.581
Channel 0 WQ ROW_BUFFER_HIT:      87964
  ROW_BUFFER_MISS:     415910
  FULL:       1396
Channel 0 REFRESHES ISSUED:       3953

[ROI Statistics]
[System Configuration]
num_cpus 1
cpu_freq 4000
fetch_width 6
decode_width 6
dispatch_width 6
execute_width 6
lq_width 2
sq_width 2
retire_width 6
scheduler_size 128
branch_mispredict_penalty 15
rob_size 352
lq_size 128
sq_size 72
ifetch_buffer_size 64
decode_buffer_size 32
dispatch_buffer_size 32
register_file_size 288
decode_latency 1
dispatch_latency 1
schedule_latency 1
execute_latency 1
page_size 4096
block_size 64
core_0_itlb_set 16
core_0_itlb_way 4
core_0_itlb_rq_size 16
core_0_itlb_wq_size 16
core_0_itlb_pq_size 0
core_0_itlb_mshr_size 8
core_0_itlb_hit_latency 1
core_0_itlb_fill_latency 1
core_0_itlb_max_tag_check 2
core_0_itlb_max_fill 2
core_0_dtlb_set 16
core_0_dtlb_way 4
core_0_dtlb_rq_size 16
core_0_dtlb_wq_size 16
core_0_dtlb_pq_size 0
core_0_dtlb_mshr_size 8
core_0_dtlb_hit_latency 1
core_0_dtlb_fill_latency 1
core_0_dtlb_max_tag_check 2
core_0_dtlb_max_fill 2
core_0_stlb_set 128
core_0_stlb_way 12
core_0_stlb_rq_size 32
core_0_stlb_wq_size 32
core_0_stlb_pq_size 0
core_0_stlb_mshr_size 16
core_0_stlb_hit_latency 4
core_0_stlb_fill_latency 4
core_0_stlb_max_tag_check 1
core_0_stlb_max_fill 1
core_0_l1i_set 64
core_0_l1i_way 8
core_0_l1i_rq_size 64
core_0_l1i_wq_size 64
core_0_l1i_pq_size 32
core_0_l1i_mshr_size 8
core_0_l1i_hit_latency 2
core_0_l1i_fill_latency 2
core_0_l1i_max_tag_check 2
core_0_l1i_max_fill 2
core_0_l1d_set 64
core_0_l1d_way 12
core_0_l1d_rq_size 64
core_0_l1d_wq_size 64
core_0_l1d_pq_size 8
core_0_l1d_mshr_size 16
core_0_l1d_hit_latency 2
core_0_l1d_fill_latency 3
core_0_l1d_max_tag_check 2
core_0_l1d_max_fill 2
core_0_l2c_set 1024
core_0_l2c_way 8
core_0_l2c_rq_size 32
core_0_l2c_wq_size 32
core_0_l2c_pq_size 16
core_0_l2c_mshr_size 32
core_0_l2c_hit_latency 5
core_0_l2c_fill_latency 5
core_0_l2c_max_tag_check 1
core_0_l2c_max_fill 1
llc_set 2048
llc_way 16
llc_rq_size 32
llc_wq_size 32
llc_pq_size 32
llc_mshr_size 64
llc_hit_latency 10
llc_fill_latency 10
llc_max_tag_check 1
llc_max_fill 1
dram_channels 1
dram_ranks 1
dram_bankgroups 8
dram_banks 4
dram_rows 65536
dram_columns 1024
dram_channel_width 8
dram_rq_size 64
dram_wq_size 64
dram_size 17179869184
core_0_itlb_prefetcher no
core_0_dtlb_prefetcher no
core_0_stlb_prefetcher no
core_0_l1i_prefetcher no
core_0_l1d_prefetcher no
core_0_l2c_prefetcher no
llc_prefetcher no
llc_replacement drrip

Core_0_instructions 50000003
Core_0_cycles 47433974
Core_0_IPC 1.0541
Core_0_branch_prediction_accuracy 99.3138
Core_0_branch_MPKI 0.68304
Core_0_average_ROB_occupancy_at_mispredict 229.833

Core_0_ITLB_total_access 5992528
Core_0_ITLB_total_hit 5992528
Core_0_ITLB_total_miss 0
Core_0_ITLB_total_MPKI 0
Core_0_ITLB_total_miss_rate 0
Core_0_ITLB_demand_access 5992528
Core_0_ITLB_demand_hit 5992528
Core_0_ITLB_demand_miss 0
Core_0_ITLB_demand_MPKI 0
Core_0_ITLB_demand_miss_rate 0
Core_0_ITLB_load_access 5992528
Core_0_ITLB_load_hit 5992528
Core_0_ITLB_load_miss 0
Core_0_ITLB_load_MPKI 0
Core_0_ITLB_load_miss_rate 0
Core_0_ITLB_rfo_access 0
Core_0_ITLB_rfo_hit 0
Core_0_ITLB_rfo_miss 0
Core_0_ITLB_rfo_MPKI 0
Core_0_ITLB_rfo_miss_rate 0
Core_0_ITLB_prefetch_access 0
Core_0_ITLB_prefetch_hit 0
Core_0_ITLB_prefetch_miss 0
Core_0_ITLB_prefetch_MPKI 0
Core_0_ITLB_prefetch_miss_rate 0
Core_0_ITLB_writeback_access 0
Core_0_ITLB_writeback_hit 0
Core_0_ITLB_writeback_miss 0
Core_0_ITLB_writeback_MPKI 0
Core_0_ITLB_writeback_miss_rate 0
Core_0_ITLB_prefetch_requested 0
Core_0_ITLB_prefetch_issued 0
Core_0_ITLB_prefetch_useful 0
Core_0_ITLB_prefetch_useless 0
Core_0_ITLB_prefetch_late 0
Core_0_ITLB_prefetch_accuracy 0
Core_0_ITLB_prefetch_coverage 0

Core_0_DTLB_total_access 12356698
Core_0_DTLB_total_hit 12258697
Core_0_DTLB_total_miss 98001
Core_0_DTLB_total_MPKI 1.96002
Core_0_DTLB_total_miss_rate 0.007931
Core_0_DTLB_demand_access 12356698
Core_0_DTLB_demand_hit 12258697
Core_0_DTLB_demand_miss 98001
Core_0_DTLB_demand_MPKI 1.96002
Core_0_DTLB_demand_miss_rate 0.007931
Core_0_DTLB_load_access 12356698
Core_0_DTLB_load_hit 12258697
Core_0_DTLB_load_miss 98001
Core_0_DTLB_load_MPKI 1.96002
Core_0_DTLB_load_miss_rate 0.007931
Core_0_DTLB_rfo_access 0
Core_0_DTLB_rfo_hit 0
Core_0_DTLB_rfo_miss 0
Core_0_DTLB_rfo_MPKI 0
Core_0_DTLB_rfo_miss_rate 0
Core_0_DTLB_prefetch_access 0
Core_0_DTLB_prefetch_hit 0
Core_0_DTLB_prefetch_miss 0
Core_0_DTLB_prefetch_MPKI 0
Core_0_DTLB_prefetch_miss_rate 0
Core_0_DTLB_writeback_access 0
Core_0_DTLB_writeback_hit 0
Core_0_DTLB_writeback_miss 0
Core_0_DTLB_writeback_MPKI 0
Core_0_DTLB_writeback_miss_rate 0
Core_0_DTLB_prefetch_requested 0
Core_0_DTLB_prefetch_issued 0
Core_0_DTLB_prefetch_useful 0
Core_0_DTLB_prefetch_useless 0
Core_0_DTLB_prefetch_late 0
Core_0_DTLB_prefetch_accuracy 0
Core_0_DTLB_prefetch_coverage 0

Core_0_STLB_total_access 21631
Core_0_STLB_total_hit 10917
Core_0_STLB_total_miss 10714
Core_0_STLB_total_MPKI 0.21428
Core_0_STLB_total_miss_rate 0.495308
Core_0_STLB_demand_access 21631
Core_0_STLB_demand_hit 10917
Core_0_STLB_demand_miss 10714
Core_0_STLB_demand_MPKI 0.21428
Core_0_STLB_demand_miss_rate 0.495308
Core_0_STLB_load_access 21631
Core_0_STLB_load_hit 10917
Core_0_STLB_load_miss 10714
Core_0_STLB_load_MPKI 0.21428
Core_0_STLB_load_miss_rate 0.495308
Core_0_STLB_rfo_access 0
Core_0_STLB_rfo_hit 0
Core_0_STLB_rfo_miss 0
Core_0_STLB_rfo_MPKI 0
Core_0_STLB_rfo_miss_rate 0
Core_0_STLB_prefetch_access 0
Core_0_STLB_prefetch_hit 0
Core_0_STLB_prefetch_miss 0
Core_0_STLB_prefetch_MPKI 0
Core_0_STLB_prefetch_miss_rate 0
Core_0_STLB_writeback_access 0
Core_0_STLB_writeback_hit 0
Core_0_STLB_writeback_miss 0
Core_0_STLB_writeback_MPKI 0
Core_0_STLB_writeback_miss_rate 0
Core_0_STLB_prefetch_requested 0
Core_0_STLB_prefetch_issued 0
Core_0_STLB_prefetch_useful 0
Core_0_STLB_prefetch_useless 0
Core_0_STLB_prefetch_late 0
Core_0_STLB_prefetch_accuracy 0
Core_0_STLB_prefetch_coverage 0

Core_0_L1I_total_access 6218873
Core_0_L1I_total_hit 6218870
Core_0_L1I_total_miss 3
Core_0_L1I_total_MPKI 6e-05
Core_0_L1I_total_miss_rate 4.82403e-07
Core_0_L1I_demand_access 6218873
Core_0_L1I_demand_hit 6218870
Core_0_L1I_demand_miss 3
Core_0_L1I_demand_MPKI 6e-05
Core_0_L1I_demand_miss_rate 4.82403e-07
Core_0_L1I_load_access 6218873
Core_0_L1I_load_hit 6218870
Core_0_L1I_load_miss 3
Core_0_L1I_load_MPKI 6e-05
Core_0_L1I_load_miss_rate 4.82403e-07
Core_0_L1I_rfo_access 0
Core_0_L1I_rfo_hit 0
Core_0_L1I_rfo_miss 0
Core_0_L1I_rfo_MPKI 0
Core_0_L1I_rfo_miss_rate 0
Core_0_L1I_prefetch_access 0
Core_0_L1I_prefetch_hit 0
Core_0_L1I_prefetch_miss 0
Core_0_L1I_prefetch_MPKI 0
Core_0_L1I_prefetch_miss_rate 0
Core_0_L1I_writeback_access 0
Core_0_L1I_writeback_hit 0
Core_0_L1I_writeback_miss 0
Core_0_L1I_writeback_MPKI 0
Core_0_L1I_writeback_miss_rate 0
Core_0_L1I_prefetch_requested 0
Core_0_L1I_prefetch_issued 0
Core_0_L1I_prefetch_useful 0
Core_0_L1I_prefetch_useless 0
Core_0_L1I_prefetch_late 0
Core_0_L1I_prefetch_accuracy 0
Core_0_L1I_prefetch_coverage 0

Core_0_L1D_total_access 13998046
Core_0_L1D_total_hit 10005519
Core_0_L1D_total_miss 3992527
Core_0_L1D_total_MPKI 79.8505
Core_0_L1D_total_miss_rate 0.28522
Core_0_L1D_demand_access 3833242
Core_0_L1D_demand_hit 2492797
Core_0_L1D_demand_miss 1340445
Core_0_L1D_demand_MPKI 26.8089
Core_0_L1D_demand_miss_rate 0.34969
Core_0_L1D_load_access 3833242
Core_0_L1D_load_hit 2492797
Core_0_L1D_load_miss 1340445
Core_0_L1D_load_MPKI 26.8089
Core_0_L1D_load_miss_rate 0.34969
Core_0_L1D_rfo_access 0
Core_0_L1D_rfo_hit 0
Core_0_L1D_rfo_miss 0
Core_0_L1D_rfo_MPKI 0
Core_0_L1D_rfo_miss_rate 0
Core_0_L1D_prefetch_access 0
Core_0_L1D_prefetch_hit 0
Core_0_L1D_prefetch_miss 0
Core_0_L1D_prefetch_MPKI 0
Core_0_L1D_prefetch_miss_rate 0
Core_0_L1D_writeback_access 10164804
Core_0_L1D_writeback_hit 7512722
Core_0_L1D_writeback_miss 2652082
Core_0_L1D_writeback_MPKI 53.0416
Core_0_L1D_writeback_miss_rate 0.260908
Core_0_L1D_prefetch_requested 0
Core_0_L1D_prefetch_issued 0
Core_0_L1D_prefetch_useful 0
Core_0_L1D_prefetch_useless 0
Core_0_L1D_prefetch_late 0
Core_0_L1D_prefetch_accuracy 0
Core_0_L1D_prefetch_coverage 0

Core_0_L2C_total_access 1597345
Core_0_L2C_total_hit 726773
Core_0_L2C_total_miss 870572
Core_0_L2C_total_MPKI 17.4114
Core_0_L2C_total_miss_rate 0.545012
Core_0_L2C_demand_access 1066939
Core_0_L2C_demand_hit 196415
Core_0_L2C_demand_miss 870524
Core_0_L2C_demand_MPKI 17.4105
Core_0_L2C_demand_miss_rate 0.815908
Core_0_L2C_load_access 586600
Core_0_L2C_load_hit 163450
Core_0_L2C_load_miss 423150
Core_0_L2C_load_MPKI 8.463
Core_0_L2C_load_miss_rate 0.72136
Core_0_L2C_rfo_access 480339
Core_0_L2C_rfo_hit 32965
Core_0_L2C_rfo_miss 447374
Core_0_L2C_rfo_MPKI 8.94748
Core_0_L2C_rfo_miss_rate 0.931371
Core_0_L2C_prefetch_access 0
Core_0_L2C_prefetch_hit 0
Core_0_L2C_prefetch_miss 0
Core_0_L2C_prefetch_MPKI 0
Core_0_L2C_prefetch_miss_rate 0
Core_0_L2C_writeback_access 530406
Core_0_L2C_writeback_hit 530358
Core_0_L2C_writeback_miss 48
Core_0_L2C_writeback_MPKI 0.00096
Core_0_L2C_writeback_miss_rate 9.04967e-05
Core_0_L2C_prefetch_requested 0
Core_0_L2C_prefetch_issued 0
Core_0_L2C_prefetch_useful 0
Core_0_L2C_prefetch_useless 0
Core_0_L2C_prefetch_late 0
Core_0_L2C_prefetch_accuracy 0
Core_0_L2C_prefetch_coverage 0

Core_0_LLC_total_access 1374332
Core_0_LLC_total_hit 103264
Core_0_LLC_total_miss 1271068
Core_0_LLC_total_MPKI 25.4214
Core_0_LLC_total_miss_rate 0.924862
Core_0_LLC_demand_access 870524
Core_0_LLC_demand_hit 24168
Core_0_LLC_demand_miss 846356
Core_0_LLC_demand_MPKI 16.9271
Core_0_LLC_demand_miss_rate 0.972237
Core_0_LLC_load_access 423150
Core_0_LLC_load_hit 21782
Core_0_LLC_load_miss 401368
Core_0_LLC_load_MPKI 8.02736
Core_0_LLC_load_miss_rate 0.948524
Core_0_LLC_rfo_access 447374
Core_0_LLC_rfo_hit 2386
Core_0_LLC_rfo_miss 444988
Core_0_LLC_rfo_MPKI 8.89976
Core_0_LLC_rfo_miss_rate 0.994667
Core_0_LLC_prefetch_access 0
Core_0_LLC_prefetch_hit 0
Core_0_LLC_prefetch_miss 0
Core_0_LLC_prefetch_MPKI 0
Core_0_LLC_prefetch_miss_rate 0
Core_0_LLC_writeback_access 503808
Core_0_LLC_writeback_hit 79096
Core_0_LLC_writeback_miss 424712
Core_0_LLC_writeback_MPKI 8.49424
Core_0_LLC_writeback_miss_rate 0.843004
Core_0_LLC_prefetch_requested 0
Core_0_LLC_prefetch_issued 0
Core_0_LLC_prefetch_useful 0
Core_0_LLC_prefetch_useless 0
Core_0_LLC_prefetch_late 0
Core_0_LLC_prefetch_accuracy 0
Core_0_LLC_prefetch_coverage 0

[DRAM Statistics]
Channel_0_RQ_row_buffer_hit 44065
Channel_0_RQ_row_buffer_miss 804225
Channel_0_WQ_row_buffer_hit 87964
Channel_0_WQ_row_buffer_miss 415910
Channel_0_WQ_full 1396
Channel_0_dbus_congested 4423349
DRAM_total_RQ_row_buffer_hit 44065
DRAM_total_RQ_row_buffer_miss 804225
DRAM_total_WQ_row_buffer_hit 87964
DRAM_total_WQ_row_buffer_miss 415910
DRAM_total_WQ_full 1396
DRAM_total_dbus_congested 4423349
DRAM_avg_congested_cycle 7.58102

======STLB miss causes ========
Core_0_STLB_miss_cause_breakdown
Core_0_STLB_cause_Demand_Data_miss 10714
Core_0_STLB_cause_Demand_Data_miss_rate 0.495308
Core_0_STLB_cause_Demand_Instruction_miss 0
Core_0_STLB_cause_Demand_Instruction_miss_rate 0
Core_0_STLB_cause_L1D_Prefetch_miss 0
Core_0_STLB_cause_L1D_Prefetch_miss_rate 0
Core_0_STLB_cause_L1I_Prefetch_miss 0
Core_0_STLB_cause_L1I_Prefetch_miss_rate 0
Core_0_STLB_cause_Other_miss 0
Core_0_STLB_cause_Other_miss_rate 0
Core_0_STLB_Demand_miss 10714
Core_0_STLB_Demand_miss_rate 0.495308
Core_0_STLB_L1D_Prefetch_miss 0
Core_0_STLB_L1D_Prefetch_miss_rate 0
Core_0_STLB_Other_miss 0
Core_0_STLB_Other_miss_rate 0
