[VMEM] WARNING: physical memory size is smaller than virtual memory size.

*** ChampSim Multicore Out-of-Order Simulator ***
Warmup Instructions: 20000000
Simulation Instructions: 50000000
Number of CPUs: 1
Page size: 4096
Core 0: /data0/tzh/champsim_traces/Ligra/ligra_BFS.com-lj.ungraph.gcc_6.3.0_O3.drop_15750M.length_250M.champsimtrace.xz
Off-chip DRAM Size: 16 GiB Channels: 1 Width: 64-bit Data Rate: 3205 MT/s
Warmup halting CPU 0 at instruction 20000002 cycle 5823849 for remainder of phase
Warmup finished CPU 0 instructions: 20000002 cycles: 5823849 cumulative IPC: 3.434 (Simulation time: 00 hr 01 min 19 sec)
Warmup complete CPU 0 instructions: 20000002 cycles: 5823849 cumulative IPC: 3.434 (Simulation time: 00 hr 01 min 19 sec)
Simulation finished CPU 0 instructions: 50000001 cycles: 91318365 cumulative IPC: 0.5475 (Simulation time: 00 hr 12 min 55 sec)
Simulation complete CPU 0 instructions: 50000001 cycles: 91318365 cumulative IPC: 0.5475 (Simulation time: 00 hr 12 min 55 sec)

ChampSim completed all CPUs

=== Simulation ===
CPU 0 runs /data0/tzh/champsim_traces/Ligra/ligra_BFS.com-lj.ungraph.gcc_6.3.0_O3.drop_15750M.length_250M.champsimtrace.xz

Region of Interest Statistics

CPU 0 cumulative IPC: 0.5475 instructions: 50000001 cycles: 91318365
CPU 0 Branch Prediction Accuracy: 92.59% MPKI: 8.729 Average ROB Occupancy at Mispredict: 134.4
Branch type MPKI
BRANCH_DIRECT_JUMP: 0
BRANCH_INDIRECT: 0
BRANCH_CONDITIONAL: 8.729
BRANCH_DIRECT_CALL: 0
BRANCH_INDIRECT_CALL: 0
BRANCH_RETURN: 0

cpu0->cpu0_STLB TOTAL        ACCESS:      17699 HIT:          0 MISS:      17699 MSHR_MERGE:          0
cpu0->cpu0_STLB LOAD         ACCESS:      17699 HIT:          0 MISS:      17699 MSHR_MERGE:          0
cpu0->cpu0_STLB RFO          ACCESS:          0 HIT:          0 MISS:          0 MSHR_MERGE:          0
cpu0->cpu0_STLB PREFETCH     ACCESS:          0 HIT:          0 MISS:          0 MSHR_MERGE:          0
cpu0->cpu0_STLB WRITE        ACCESS:          0 HIT:          0 MISS:          0 MSHR_MERGE:          0
cpu0->cpu0_STLB TRANSLATION  ACCESS:          0 HIT:          0 MISS:          0 MSHR_MERGE:          0
cpu0->cpu0_STLB PREFETCH REQUESTED:          0 ISSUED:          0 USEFUL:          0 USELESS:          0 LATE:          0
cpu0->cpu0_STLB AVERAGE MISS LATENCY: 247.9 cycles
cpu0->cpu0_L2C TOTAL        ACCESS:    1759523 HIT:     624526 MISS:    1134997 MSHR_MERGE:          0
cpu0->cpu0_L2C LOAD         ACCESS:     508746 HIT:          0 MISS:     508746 MSHR_MERGE:          0
cpu0->cpu0_L2C RFO          ACCESS:     624000 HIT:          0 MISS:     624000 MSHR_MERGE:          0
cpu0->cpu0_L2C PREFETCH     ACCESS:          0 HIT:          0 MISS:          0 MSHR_MERGE:          0
cpu0->cpu0_L2C WRITE        ACCESS:     624066 HIT:     624066 MISS:          0 MSHR_MERGE:          0
cpu0->cpu0_L2C TRANSLATION  ACCESS:       2711 HIT:        460 MISS:       2251 MSHR_MERGE:          0
cpu0->cpu0_L2C PREFETCH REQUESTED:          0 ISSUED:          0 USEFUL:          0 USELESS:          0 LATE:          0
cpu0->cpu0_L2C AVERAGE MISS LATENCY: 274.7 cycles
cpu0->cpu0_L1I TOTAL        ACCESS:     811511 HIT:     811511 MISS:          0 MSHR_MERGE:          0
cpu0->cpu0_L1I LOAD         ACCESS:     811511 HIT:     811511 MISS:          0 MSHR_MERGE:          0
cpu0->cpu0_L1I RFO          ACCESS:          0 HIT:          0 MISS:          0 MSHR_MERGE:          0
cpu0->cpu0_L1I PREFETCH     ACCESS:          0 HIT:          0 MISS:          0 MSHR_MERGE:          0
cpu0->cpu0_L1I WRITE        ACCESS:          0 HIT:          0 MISS:          0 MSHR_MERGE:          0
cpu0->cpu0_L1I TRANSLATION  ACCESS:          0 HIT:          0 MISS:          0 MSHR_MERGE:          0
cpu0->cpu0_L1I PREFETCH REQUESTED:          0 ISSUED:          0 USEFUL:          0 USELESS:          0 LATE:          0
cpu0->cpu0_L1I AVERAGE MISS LATENCY: - cycles
cpu0->cpu0_L1D TOTAL        ACCESS:   15211971 HIT:    2544272 MISS:   12667699 MSHR_MERGE:   11532241
cpu0->cpu0_L1D LOAD         ACCESS:    5192532 HIT:    1786578 MISS:    3405954 MSHR_MERGE:    2897208
cpu0->cpu0_L1D RFO          ACCESS:          0 HIT:          0 MISS:          0 MSHR_MERGE:          0
cpu0->cpu0_L1D PREFETCH     ACCESS:          0 HIT:          0 MISS:          0 MSHR_MERGE:          0
cpu0->cpu0_L1D WRITE        ACCESS:    9984006 HIT:     724972 MISS:    9259034 MSHR_MERGE:    8635033
cpu0->cpu0_L1D TRANSLATION  ACCESS:      35433 HIT:      32722 MISS:       2711 MSHR_MERGE:          0
cpu0->cpu0_L1D PREFETCH REQUESTED:          0 ISSUED:          0 USEFUL:          0 USELESS:          0 LATE:          0
cpu0->cpu0_L1D AVERAGE MISS LATENCY: 283.6 cycles
cpu0->cpu0_ITLB TOTAL        ACCESS:     811510 HIT:     811510 MISS:          0 MSHR_MERGE:          0
cpu0->cpu0_ITLB LOAD         ACCESS:     811510 HIT:     811510 MISS:          0 MSHR_MERGE:          0
cpu0->cpu0_ITLB RFO          ACCESS:          0 HIT:          0 MISS:          0 MSHR_MERGE:          0
cpu0->cpu0_ITLB PREFETCH     ACCESS:          0 HIT:          0 MISS:          0 MSHR_MERGE:          0
cpu0->cpu0_ITLB WRITE        ACCESS:          0 HIT:          0 MISS:          0 MSHR_MERGE:          0
cpu0->cpu0_ITLB TRANSLATION  ACCESS:          0 HIT:          0 MISS:          0 MSHR_MERGE:          0
cpu0->cpu0_ITLB PREFETCH REQUESTED:          0 ISSUED:          0 USEFUL:          0 USELESS:          0 LATE:          0
cpu0->cpu0_ITLB AVERAGE MISS LATENCY: - cycles
cpu0->cpu0_DTLB TOTAL        ACCESS:   14425051 HIT:   14221879 MISS:     203172 MSHR_MERGE:     185473
cpu0->cpu0_DTLB LOAD         ACCESS:   14425051 HIT:   14221879 MISS:     203172 MSHR_MERGE:     185473
cpu0->cpu0_DTLB RFO          ACCESS:          0 HIT:          0 MISS:          0 MSHR_MERGE:          0
cpu0->cpu0_DTLB PREFETCH     ACCESS:          0 HIT:          0 MISS:          0 MSHR_MERGE:          0
cpu0->cpu0_DTLB WRITE        ACCESS:          0 HIT:          0 MISS:          0 MSHR_MERGE:          0
cpu0->cpu0_DTLB TRANSLATION  ACCESS:          0 HIT:          0 MISS:          0 MSHR_MERGE:          0
cpu0->cpu0_DTLB PREFETCH REQUESTED:          0 ISSUED:          0 USEFUL:          0 USELESS:          0 LATE:          0
cpu0->cpu0_DTLB AVERAGE MISS LATENCY: 253.9 cycles
cpu0->LLC TOTAL        ACCESS:    1760459 HIT:     539786 MISS:    1220673 MSHR_MERGE:          0
cpu0->LLC LOAD         ACCESS:     508746 HIT:          0 MISS:     508746 MSHR_MERGE:          0
cpu0->LLC RFO          ACCESS:     624000 HIT:          0 MISS:     624000 MSHR_MERGE:          0
cpu0->LLC PREFETCH     ACCESS:          0 HIT:          0 MISS:          0 MSHR_MERGE:          0
cpu0->LLC WRITE        ACCESS:     625462 HIT:     539783 MISS:      85679 MSHR_MERGE:          0
cpu0->LLC TRANSLATION  ACCESS:       2251 HIT:          3 MISS:       2248 MSHR_MERGE:          0
cpu0->LLC PREFETCH REQUESTED:          0 ISSUED:          0 USEFUL:          0 USELESS:          0 LATE:          0
cpu0->LLC AVERAGE MISS LATENCY: 241.2 cycles

DRAM Statistics

Channel 0 RQ ROW_BUFFER_HIT:      12424
  ROW_BUFFER_MISS:    1122569
  AVG DBUS CONGESTED CYCLE: 6.642
Channel 0 WQ ROW_BUFFER_HIT:     181262
  ROW_BUFFER_MISS:     446069
  FULL:          0
Channel 0 REFRESHES ISSUED:       7610

[ROI Statistics]
[System Configuration]
num_cpus 1
cpu_freq 4000
fetch_width 6
decode_width 6
dispatch_width 6
execute_width 6
lq_width 2
sq_width 2
retire_width 6
scheduler_size 128
branch_mispredict_penalty 15
rob_size 352
lq_size 128
sq_size 72
ifetch_buffer_size 64
decode_buffer_size 32
dispatch_buffer_size 32
register_file_size 288
decode_latency 1
dispatch_latency 1
schedule_latency 1
execute_latency 1
page_size 4096
block_size 64
core_0_itlb_set 16
core_0_itlb_way 4
core_0_itlb_rq_size 16
core_0_itlb_wq_size 16
core_0_itlb_pq_size 0
core_0_itlb_mshr_size 8
core_0_itlb_hit_latency 1
core_0_itlb_fill_latency 1
core_0_itlb_max_tag_check 2
core_0_itlb_max_fill 2
core_0_dtlb_set 16
core_0_dtlb_way 4
core_0_dtlb_rq_size 16
core_0_dtlb_wq_size 16
core_0_dtlb_pq_size 0
core_0_dtlb_mshr_size 8
core_0_dtlb_hit_latency 1
core_0_dtlb_fill_latency 1
core_0_dtlb_max_tag_check 2
core_0_dtlb_max_fill 2
core_0_stlb_set 128
core_0_stlb_way 12
core_0_stlb_rq_size 32
core_0_stlb_wq_size 32
core_0_stlb_pq_size 0
core_0_stlb_mshr_size 16
core_0_stlb_hit_latency 4
core_0_stlb_fill_latency 4
core_0_stlb_max_tag_check 1
core_0_stlb_max_fill 1
core_0_l1i_set 64
core_0_l1i_way 8
core_0_l1i_rq_size 64
core_0_l1i_wq_size 64
core_0_l1i_pq_size 32
core_0_l1i_mshr_size 8
core_0_l1i_hit_latency 2
core_0_l1i_fill_latency 2
core_0_l1i_max_tag_check 2
core_0_l1i_max_fill 2
core_0_l1d_set 64
core_0_l1d_way 12
core_0_l1d_rq_size 64
core_0_l1d_wq_size 64
core_0_l1d_pq_size 8
core_0_l1d_mshr_size 16
core_0_l1d_hit_latency 2
core_0_l1d_fill_latency 3
core_0_l1d_max_tag_check 2
core_0_l1d_max_fill 2
core_0_l2c_set 1024
core_0_l2c_way 8
core_0_l2c_rq_size 32
core_0_l2c_wq_size 32
core_0_l2c_pq_size 16
core_0_l2c_mshr_size 32
core_0_l2c_hit_latency 5
core_0_l2c_fill_latency 5
core_0_l2c_max_tag_check 1
core_0_l2c_max_fill 1
llc_set 2048
llc_way 16
llc_rq_size 32
llc_wq_size 32
llc_pq_size 32
llc_mshr_size 64
llc_hit_latency 10
llc_fill_latency 10
llc_max_tag_check 1
llc_max_fill 1
dram_channels 1
dram_ranks 1
dram_bankgroups 8
dram_banks 4
dram_rows 65536
dram_columns 1024
dram_channel_width 8
dram_rq_size 64
dram_wq_size 64
dram_size 17179869184
core_0_itlb_prefetcher no
core_0_dtlb_prefetcher no
core_0_stlb_prefetcher no
core_0_l1i_prefetcher no
core_0_l1d_prefetcher no
core_0_l2c_prefetcher no
llc_prefetcher no
llc_replacement drrip

Core_0_instructions 50000001
Core_0_cycles 91318365
Core_0_IPC 0.547535
Core_0_branch_prediction_accuracy 92.5919
Core_0_branch_MPKI 8.72882
Core_0_average_ROB_occupancy_at_mispredict 134.449

Core_0_ITLB_total_access 811510
Core_0_ITLB_total_hit 811510
Core_0_ITLB_total_miss 0
Core_0_ITLB_total_MPKI 0
Core_0_ITLB_total_miss_rate 0
Core_0_ITLB_demand_access 811510
Core_0_ITLB_demand_hit 811510
Core_0_ITLB_demand_miss 0
Core_0_ITLB_demand_MPKI 0
Core_0_ITLB_demand_miss_rate 0
Core_0_ITLB_load_access 811510
Core_0_ITLB_load_hit 811510
Core_0_ITLB_load_miss 0
Core_0_ITLB_load_MPKI 0
Core_0_ITLB_load_miss_rate 0
Core_0_ITLB_rfo_access 0
Core_0_ITLB_rfo_hit 0
Core_0_ITLB_rfo_miss 0
Core_0_ITLB_rfo_MPKI 0
Core_0_ITLB_rfo_miss_rate 0
Core_0_ITLB_prefetch_access 0
Core_0_ITLB_prefetch_hit 0
Core_0_ITLB_prefetch_miss 0
Core_0_ITLB_prefetch_MPKI 0
Core_0_ITLB_prefetch_miss_rate 0
Core_0_ITLB_writeback_access 0
Core_0_ITLB_writeback_hit 0
Core_0_ITLB_writeback_miss 0
Core_0_ITLB_writeback_MPKI 0
Core_0_ITLB_writeback_miss_rate 0
Core_0_ITLB_prefetch_requested 0
Core_0_ITLB_prefetch_issued 0
Core_0_ITLB_prefetch_useful 0
Core_0_ITLB_prefetch_useless 0
Core_0_ITLB_prefetch_late 0
Core_0_ITLB_prefetch_accuracy 0
Core_0_ITLB_prefetch_coverage 0

Core_0_DTLB_total_access 14425051
Core_0_DTLB_total_hit 14221879
Core_0_DTLB_total_miss 203172
Core_0_DTLB_total_MPKI 4.06344
Core_0_DTLB_total_miss_rate 0.0140847
Core_0_DTLB_demand_access 14425051
Core_0_DTLB_demand_hit 14221879
Core_0_DTLB_demand_miss 203172
Core_0_DTLB_demand_MPKI 4.06344
Core_0_DTLB_demand_miss_rate 0.0140847
Core_0_DTLB_load_access 14425051
Core_0_DTLB_load_hit 14221879
Core_0_DTLB_load_miss 203172
Core_0_DTLB_load_MPKI 4.06344
Core_0_DTLB_load_miss_rate 0.0140847
Core_0_DTLB_rfo_access 0
Core_0_DTLB_rfo_hit 0
Core_0_DTLB_rfo_miss 0
Core_0_DTLB_rfo_MPKI 0
Core_0_DTLB_rfo_miss_rate 0
Core_0_DTLB_prefetch_access 0
Core_0_DTLB_prefetch_hit 0
Core_0_DTLB_prefetch_miss 0
Core_0_DTLB_prefetch_MPKI 0
Core_0_DTLB_prefetch_miss_rate 0
Core_0_DTLB_writeback_access 0
Core_0_DTLB_writeback_hit 0
Core_0_DTLB_writeback_miss 0
Core_0_DTLB_writeback_MPKI 0
Core_0_DTLB_writeback_miss_rate 0
Core_0_DTLB_prefetch_requested 0
Core_0_DTLB_prefetch_issued 0
Core_0_DTLB_prefetch_useful 0
Core_0_DTLB_prefetch_useless 0
Core_0_DTLB_prefetch_late 0
Core_0_DTLB_prefetch_accuracy 0
Core_0_DTLB_prefetch_coverage 0

Core_0_STLB_total_access 17699
Core_0_STLB_total_hit 0
Core_0_STLB_total_miss 17699
Core_0_STLB_total_MPKI 0.35398
Core_0_STLB_total_miss_rate 1
Core_0_STLB_demand_access 17699
Core_0_STLB_demand_hit 0
Core_0_STLB_demand_miss 17699
Core_0_STLB_demand_MPKI 0.35398
Core_0_STLB_demand_miss_rate 1
Core_0_STLB_load_access 17699
Core_0_STLB_load_hit 0
Core_0_STLB_load_miss 17699
Core_0_STLB_load_MPKI 0.35398
Core_0_STLB_load_miss_rate 1
Core_0_STLB_rfo_access 0
Core_0_STLB_rfo_hit 0
Core_0_STLB_rfo_miss 0
Core_0_STLB_rfo_MPKI 0
Core_0_STLB_rfo_miss_rate 0
Core_0_STLB_prefetch_access 0
Core_0_STLB_prefetch_hit 0
Core_0_STLB_prefetch_miss 0
Core_0_STLB_prefetch_MPKI 0
Core_0_STLB_prefetch_miss_rate 0
Core_0_STLB_writeback_access 0
Core_0_STLB_writeback_hit 0
Core_0_STLB_writeback_miss 0
Core_0_STLB_writeback_MPKI 0
Core_0_STLB_writeback_miss_rate 0
Core_0_STLB_prefetch_requested 0
Core_0_STLB_prefetch_issued 0
Core_0_STLB_prefetch_useful 0
Core_0_STLB_prefetch_useless 0
Core_0_STLB_prefetch_late 0
Core_0_STLB_prefetch_accuracy 0
Core_0_STLB_prefetch_coverage 0

Core_0_L1I_total_access 811511
Core_0_L1I_total_hit 811511
Core_0_L1I_total_miss 0
Core_0_L1I_total_MPKI 0
Core_0_L1I_total_miss_rate 0
Core_0_L1I_demand_access 811511
Core_0_L1I_demand_hit 811511
Core_0_L1I_demand_miss 0
Core_0_L1I_demand_MPKI 0
Core_0_L1I_demand_miss_rate 0
Core_0_L1I_load_access 811511
Core_0_L1I_load_hit 811511
Core_0_L1I_load_miss 0
Core_0_L1I_load_MPKI 0
Core_0_L1I_load_miss_rate 0
Core_0_L1I_rfo_access 0
Core_0_L1I_rfo_hit 0
Core_0_L1I_rfo_miss 0
Core_0_L1I_rfo_MPKI 0
Core_0_L1I_rfo_miss_rate 0
Core_0_L1I_prefetch_access 0
Core_0_L1I_prefetch_hit 0
Core_0_L1I_prefetch_miss 0
Core_0_L1I_prefetch_MPKI 0
Core_0_L1I_prefetch_miss_rate 0
Core_0_L1I_writeback_access 0
Core_0_L1I_writeback_hit 0
Core_0_L1I_writeback_miss 0
Core_0_L1I_writeback_MPKI 0
Core_0_L1I_writeback_miss_rate 0
Core_0_L1I_prefetch_requested 0
Core_0_L1I_prefetch_issued 0
Core_0_L1I_prefetch_useful 0
Core_0_L1I_prefetch_useless 0
Core_0_L1I_prefetch_late 0
Core_0_L1I_prefetch_accuracy 0
Core_0_L1I_prefetch_coverage 0

Core_0_L1D_total_access 15176538
Core_0_L1D_total_hit 2511550
Core_0_L1D_total_miss 12664988
Core_0_L1D_total_MPKI 253.3
Core_0_L1D_total_miss_rate 0.834511
Core_0_L1D_demand_access 5192532
Core_0_L1D_demand_hit 1786578
Core_0_L1D_demand_miss 3405954
Core_0_L1D_demand_MPKI 68.1191
Core_0_L1D_demand_miss_rate 0.655933
Core_0_L1D_load_access 5192532
Core_0_L1D_load_hit 1786578
Core_0_L1D_load_miss 3405954
Core_0_L1D_load_MPKI 68.1191
Core_0_L1D_load_miss_rate 0.655933
Core_0_L1D_rfo_access 0
Core_0_L1D_rfo_hit 0
Core_0_L1D_rfo_miss 0
Core_0_L1D_rfo_MPKI 0
Core_0_L1D_rfo_miss_rate 0
Core_0_L1D_prefetch_access 0
Core_0_L1D_prefetch_hit 0
Core_0_L1D_prefetch_miss 0
Core_0_L1D_prefetch_MPKI 0
Core_0_L1D_prefetch_miss_rate 0
Core_0_L1D_writeback_access 9984006
Core_0_L1D_writeback_hit 724972
Core_0_L1D_writeback_miss 9259034
Core_0_L1D_writeback_MPKI 185.181
Core_0_L1D_writeback_miss_rate 0.927387
Core_0_L1D_prefetch_requested 0
Core_0_L1D_prefetch_issued 0
Core_0_L1D_prefetch_useful 0
Core_0_L1D_prefetch_useless 0
Core_0_L1D_prefetch_late 0
Core_0_L1D_prefetch_accuracy 0
Core_0_L1D_prefetch_coverage 0

Core_0_L2C_total_access 1756812
Core_0_L2C_total_hit 624066
Core_0_L2C_total_miss 1132746
Core_0_L2C_total_MPKI 22.6549
Core_0_L2C_total_miss_rate 0.644774
Core_0_L2C_demand_access 1132746
Core_0_L2C_demand_hit 0
Core_0_L2C_demand_miss 1132746
Core_0_L2C_demand_MPKI 22.6549
Core_0_L2C_demand_miss_rate 1
Core_0_L2C_load_access 508746
Core_0_L2C_load_hit 0
Core_0_L2C_load_miss 508746
Core_0_L2C_load_MPKI 10.1749
Core_0_L2C_load_miss_rate 1
Core_0_L2C_rfo_access 624000
Core_0_L2C_rfo_hit 0
Core_0_L2C_rfo_miss 624000
Core_0_L2C_rfo_MPKI 12.48
Core_0_L2C_rfo_miss_rate 1
Core_0_L2C_prefetch_access 0
Core_0_L2C_prefetch_hit 0
Core_0_L2C_prefetch_miss 0
Core_0_L2C_prefetch_MPKI 0
Core_0_L2C_prefetch_miss_rate 0
Core_0_L2C_writeback_access 624066
Core_0_L2C_writeback_hit 624066
Core_0_L2C_writeback_miss 0
Core_0_L2C_writeback_MPKI 0
Core_0_L2C_writeback_miss_rate 0
Core_0_L2C_prefetch_requested 0
Core_0_L2C_prefetch_issued 0
Core_0_L2C_prefetch_useful 0
Core_0_L2C_prefetch_useless 0
Core_0_L2C_prefetch_late 0
Core_0_L2C_prefetch_accuracy 0
Core_0_L2C_prefetch_coverage 0

Core_0_LLC_total_access 1758208
Core_0_LLC_total_hit 539783
Core_0_LLC_total_miss 1218425
Core_0_LLC_total_MPKI 24.3685
Core_0_LLC_total_miss_rate 0.692993
Core_0_LLC_demand_access 1132746
Core_0_LLC_demand_hit 0
Core_0_LLC_demand_miss 1132746
Core_0_LLC_demand_MPKI 22.6549
Core_0_LLC_demand_miss_rate 1
Core_0_LLC_load_access 508746
Core_0_LLC_load_hit 0
Core_0_LLC_load_miss 508746
Core_0_LLC_load_MPKI 10.1749
Core_0_LLC_load_miss_rate 1
Core_0_LLC_rfo_access 624000
Core_0_LLC_rfo_hit 0
Core_0_LLC_rfo_miss 624000
Core_0_LLC_rfo_MPKI 12.48
Core_0_LLC_rfo_miss_rate 1
Core_0_LLC_prefetch_access 0
Core_0_LLC_prefetch_hit 0
Core_0_LLC_prefetch_miss 0
Core_0_LLC_prefetch_MPKI 0
Core_0_LLC_prefetch_miss_rate 0
Core_0_LLC_writeback_access 625462
Core_0_LLC_writeback_hit 539783
Core_0_LLC_writeback_miss 85679
Core_0_LLC_writeback_MPKI 1.71358
Core_0_LLC_writeback_miss_rate 0.136985
Core_0_LLC_prefetch_requested 0
Core_0_LLC_prefetch_issued 0
Core_0_LLC_prefetch_useful 0
Core_0_LLC_prefetch_useless 0
Core_0_LLC_prefetch_late 0
Core_0_LLC_prefetch_accuracy 0
Core_0_LLC_prefetch_coverage 0

[DRAM Statistics]
Channel_0_RQ_row_buffer_hit 12424
Channel_0_RQ_row_buffer_miss 1122569
Channel_0_WQ_row_buffer_hit 181262
Channel_0_WQ_row_buffer_miss 446069
Channel_0_WQ_full 0
Channel_0_dbus_congested 5105497
DRAM_total_RQ_row_buffer_hit 12424
DRAM_total_RQ_row_buffer_miss 1122569
DRAM_total_WQ_row_buffer_hit 181262
DRAM_total_WQ_row_buffer_miss 446069
DRAM_total_WQ_full 0
DRAM_total_dbus_congested 5105497
DRAM_avg_congested_cycle 6.64166

======STLB miss causes ========
Core_0_STLB_miss_cause_breakdown
Core_0_STLB_cause_Demand_Data_miss 17699
Core_0_STLB_cause_Demand_Data_miss_rate 1
Core_0_STLB_cause_Demand_Instruction_miss 0
Core_0_STLB_cause_Demand_Instruction_miss_rate 0
Core_0_STLB_cause_L1D_Prefetch_miss 0
Core_0_STLB_cause_L1D_Prefetch_miss_rate 0
Core_0_STLB_cause_L1I_Prefetch_miss 0
Core_0_STLB_cause_L1I_Prefetch_miss_rate 0
Core_0_STLB_cause_Other_miss 0
Core_0_STLB_cause_Other_miss_rate 0
Core_0_STLB_Demand_miss 17699
Core_0_STLB_Demand_miss_rate 1
Core_0_STLB_L1D_Prefetch_miss 0
Core_0_STLB_L1D_Prefetch_miss_rate 0
Core_0_STLB_Other_miss 0
Core_0_STLB_Other_miss_rate 0
