[VMEM] WARNING: physical memory size is smaller than virtual memory size.

*** ChampSim Multicore Out-of-Order Simulator ***
Warmup Instructions: 20000000
Simulation Instructions: 50000000
Number of CPUs: 1
Page size: 4096
STLB ideal mode: l1pref
Core 0: /data0/tzh/champsim_traces/SPEC06/429.mcf-51B.champsimtrace.xz
 L1D Berti prefetcher
Off-chip DRAM Size: 16 GiB Channels: 1 Width: 64-bit Data Rate: 3205 MT/s
Warmup halting CPU 0 at instruction 20000004 cycle 6167928 for remainder of phase
Warmup finished CPU 0 instructions: 20000004 cycles: 6167928 cumulative IPC: 3.243 (Simulation time: 00 hr 01 min 37 sec)
Warmup complete CPU 0 instructions: 20000004 cycles: 6167928 cumulative IPC: 3.243 (Simulation time: 00 hr 01 min 37 sec)
Simulation finished CPU 0 instructions: 50000005 cycles: 304365793 cumulative IPC: 0.1643 (Simulation time: 00 hr 27 min 37 sec)
Simulation complete CPU 0 instructions: 50000005 cycles: 304365793 cumulative IPC: 0.1643 (Simulation time: 00 hr 27 min 37 sec)

ChampSim completed all CPUs

=== Simulation ===
CPU 0 runs /data0/tzh/champsim_traces/SPEC06/429.mcf-51B.champsimtrace.xz

Region of Interest Statistics

CPU 0 cumulative IPC: 0.1643 instructions: 50000005 cycles: 304365793
CPU 0 Branch Prediction Accuracy: 94.82% MPKI: 12.49 Average ROB Occupancy at Mispredict: 54.59
Branch type MPKI
BRANCH_DIRECT_JUMP: 0.7393
BRANCH_INDIRECT: 0
BRANCH_CONDITIONAL: 11.75
BRANCH_DIRECT_CALL: 0
BRANCH_INDIRECT_CALL: 0
BRANCH_RETURN: 0

cpu0->cpu0_STLB TOTAL        ACCESS:    4171729 HIT:    3616637 MISS:     555092 MSHR_MERGE:          0
cpu0->cpu0_STLB LOAD         ACCESS:    4171729 HIT:    3616637 MISS:     555092 MSHR_MERGE:          0
cpu0->cpu0_STLB RFO          ACCESS:          0 HIT:          0 MISS:          0 MSHR_MERGE:          0
cpu0->cpu0_STLB PREFETCH     ACCESS:          0 HIT:          0 MISS:          0 MSHR_MERGE:          0
cpu0->cpu0_STLB WRITE        ACCESS:          0 HIT:          0 MISS:          0 MSHR_MERGE:          0
cpu0->cpu0_STLB TRANSLATION  ACCESS:          0 HIT:          0 MISS:          0 MSHR_MERGE:          0
cpu0->cpu0_STLB PREFETCH REQUESTED:          0 ISSUED:          0 USEFUL:          0 USELESS:          0 LATE:          0
cpu0->cpu0_STLB AVERAGE MISS LATENCY: 117.8 cycles
cpu0->cpu0_L2C TOTAL        ACCESS:    7563597 HIT:    3422158 MISS:    4141439 MSHR_MERGE:        795
cpu0->cpu0_L2C LOAD         ACCESS:    4958874 HIT:    1649314 MISS:    3309560 MSHR_MERGE:         51
cpu0->cpu0_L2C RFO          ACCESS:     156340 HIT:      81166 MISS:      75174 MSHR_MERGE:          0
cpu0->cpu0_L2C PREFETCH     ACCESS:     704410 HIT:     219884 MISS:     484526 MSHR_MERGE:        744
cpu0->cpu0_L2C WRITE        ACCESS:    1229154 HIT:    1229079 MISS:         75 MSHR_MERGE:          0
cpu0->cpu0_L2C TRANSLATION  ACCESS:     514819 HIT:     242715 MISS:     272104 MSHR_MERGE:          0
cpu0->cpu0_L2C PREFETCH REQUESTED:      16326 ISSUED:      16326 USEFUL:       2514 USELESS:       5100 LATE:         51
cpu0->cpu0_L2C AVERAGE MISS LATENCY: 198.7 cycles
cpu0->cpu0_L1I TOTAL        ACCESS:    1964922 HIT:    1964922 MISS:          0 MSHR_MERGE:          0
cpu0->cpu0_L1I LOAD         ACCESS:    1964922 HIT:    1964922 MISS:          0 MSHR_MERGE:          0
cpu0->cpu0_L1I RFO          ACCESS:          0 HIT:          0 MISS:          0 MSHR_MERGE:          0
cpu0->cpu0_L1I PREFETCH     ACCESS:          0 HIT:          0 MISS:          0 MSHR_MERGE:          0
cpu0->cpu0_L1I WRITE        ACCESS:          0 HIT:          0 MISS:          0 MSHR_MERGE:          0
cpu0->cpu0_L1I TRANSLATION  ACCESS:          0 HIT:          0 MISS:          0 MSHR_MERGE:          0
cpu0->cpu0_L1I PREFETCH REQUESTED:          0 ISSUED:          0 USEFUL:          0 USELESS:          0 LATE:          0
cpu0->cpu0_L1I AVERAGE MISS LATENCY: - cycles
cpu0->cpu0_L1D TOTAL        ACCESS:   17231011 HIT:    9030389 MISS:    8200622 MSHR_MERGE:    1882433
cpu0->cpu0_L1D LOAD         ACCESS:   12511744 HIT:    5855579 MISS:    6656165 MSHR_MERGE:    1697239
cpu0->cpu0_L1D RFO          ACCESS:          0 HIT:          0 MISS:          0 MSHR_MERGE:          0
cpu0->cpu0_L1D PREFETCH     ACCESS:    1064451 HIT:     300325 MISS:     764126 MSHR_MERGE:      76026
cpu0->cpu0_L1D WRITE        ACCESS:    2380121 HIT:    2120709 MISS:     259412 MSHR_MERGE:     103068
cpu0->cpu0_L1D TRANSLATION  ACCESS:    1274695 HIT:     753776 MISS:     520919 MSHR_MERGE:       6100
cpu0->cpu0_L1D PREFETCH REQUESTED:    1075586 ISSUED:    1064451 USEFUL:      78583 USELESS:     609478 LATE:       3600
cpu0->cpu0_L1D AVERAGE MISS LATENCY: 137.8 cycles
cpu0->cpu0_ITLB TOTAL        ACCESS:    1827157 HIT:    1827157 MISS:          0 MSHR_MERGE:          0
cpu0->cpu0_ITLB LOAD         ACCESS:    1827157 HIT:    1827157 MISS:          0 MSHR_MERGE:          0
cpu0->cpu0_ITLB RFO          ACCESS:          0 HIT:          0 MISS:          0 MSHR_MERGE:          0
cpu0->cpu0_ITLB PREFETCH     ACCESS:          0 HIT:          0 MISS:          0 MSHR_MERGE:          0
cpu0->cpu0_ITLB WRITE        ACCESS:          0 HIT:          0 MISS:          0 MSHR_MERGE:          0
cpu0->cpu0_ITLB TRANSLATION  ACCESS:          0 HIT:          0 MISS:          0 MSHR_MERGE:          0
cpu0->cpu0_ITLB PREFETCH REQUESTED:          0 ISSUED:          0 USEFUL:          0 USELESS:          0 LATE:          0
cpu0->cpu0_ITLB AVERAGE MISS LATENCY: - cycles
cpu0->cpu0_DTLB TOTAL        ACCESS:   15573322 HIT:    9023868 MISS:    6549454 MSHR_MERGE:    2377724
cpu0->cpu0_DTLB LOAD         ACCESS:   15573322 HIT:    9023868 MISS:    6549454 MSHR_MERGE:    2377724
cpu0->cpu0_DTLB RFO          ACCESS:          0 HIT:          0 MISS:          0 MSHR_MERGE:          0
cpu0->cpu0_DTLB PREFETCH     ACCESS:          0 HIT:          0 MISS:          0 MSHR_MERGE:          0
cpu0->cpu0_DTLB WRITE        ACCESS:          0 HIT:          0 MISS:          0 MSHR_MERGE:          0
cpu0->cpu0_DTLB TRANSLATION  ACCESS:          0 HIT:          0 MISS:          0 MSHR_MERGE:          0
cpu0->cpu0_DTLB PREFETCH REQUESTED:          0 ISSUED:          0 USEFUL:          0 USELESS:          0 LATE:          0
cpu0->cpu0_DTLB AVERAGE MISS LATENCY: 20.81 cycles
cpu0->LLC TOTAL        ACCESS:    4902345 HIT:    1305644 MISS:    3596701 MSHR_MERGE:          0
cpu0->LLC LOAD         ACCESS:    3309506 HIT:     633199 MISS:    2676307 MSHR_MERGE:          0
cpu0->LLC RFO          ACCESS:      75174 HIT:      22182 MISS:      52992 MSHR_MERGE:          0
cpu0->LLC PREFETCH     ACCESS:     483782 HIT:     126764 MISS:     357018 MSHR_MERGE:          0
cpu0->LLC WRITE        ACCESS:     761779 HIT:     447323 MISS:     314456 MSHR_MERGE:          0
cpu0->LLC TRANSLATION  ACCESS:     272104 HIT:      76176 MISS:     195928 MSHR_MERGE:          0
cpu0->LLC PREFETCH REQUESTED:          0 ISSUED:          0 USEFUL:          0 USELESS:          0 LATE:          0
cpu0->LLC AVERAGE MISS LATENCY: 207.4 cycles

DRAM Statistics

Channel 0 RQ ROW_BUFFER_HIT:       7640
  ROW_BUFFER_MISS:    3274144
  AVG DBUS CONGESTED CYCLE: 8.026
Channel 0 WQ ROW_BUFFER_HIT:     184166
  ROW_BUFFER_MISS:     451539
  FULL:          0
Channel 0 REFRESHES ISSUED:      25364

[ROI Statistics]
[System Configuration]
num_cpus 1
cpu_freq 4000
fetch_width 6
decode_width 6
dispatch_width 6
execute_width 6
lq_width 2
sq_width 2
retire_width 6
scheduler_size 128
branch_mispredict_penalty 15
rob_size 352
lq_size 128
sq_size 72
ifetch_buffer_size 64
decode_buffer_size 32
dispatch_buffer_size 32
register_file_size 288
decode_latency 1
dispatch_latency 1
schedule_latency 1
execute_latency 1
page_size 4096
block_size 64
core_0_itlb_set 16
core_0_itlb_way 4
core_0_itlb_rq_size 16
core_0_itlb_wq_size 16
core_0_itlb_pq_size 0
core_0_itlb_mshr_size 8
core_0_itlb_hit_latency 1
core_0_itlb_fill_latency 1
core_0_itlb_max_tag_check 2
core_0_itlb_max_fill 2
core_0_dtlb_set 16
core_0_dtlb_way 4
core_0_dtlb_rq_size 16
core_0_dtlb_wq_size 16
core_0_dtlb_pq_size 0
core_0_dtlb_mshr_size 8
core_0_dtlb_hit_latency 1
core_0_dtlb_fill_latency 1
core_0_dtlb_max_tag_check 2
core_0_dtlb_max_fill 2
core_0_stlb_set 128
core_0_stlb_way 12
core_0_stlb_rq_size 32
core_0_stlb_wq_size 32
core_0_stlb_pq_size 0
core_0_stlb_mshr_size 16
core_0_stlb_hit_latency 4
core_0_stlb_fill_latency 4
core_0_stlb_max_tag_check 1
core_0_stlb_max_fill 1
core_0_l1i_set 64
core_0_l1i_way 8
core_0_l1i_rq_size 64
core_0_l1i_wq_size 64
core_0_l1i_pq_size 32
core_0_l1i_mshr_size 8
core_0_l1i_hit_latency 2
core_0_l1i_fill_latency 2
core_0_l1i_max_tag_check 2
core_0_l1i_max_fill 2
core_0_l1d_set 64
core_0_l1d_way 12
core_0_l1d_rq_size 64
core_0_l1d_wq_size 64
core_0_l1d_pq_size 8
core_0_l1d_mshr_size 16
core_0_l1d_hit_latency 2
core_0_l1d_fill_latency 3
core_0_l1d_max_tag_check 2
core_0_l1d_max_fill 2
core_0_l2c_set 1024
core_0_l2c_way 8
core_0_l2c_rq_size 32
core_0_l2c_wq_size 32
core_0_l2c_pq_size 16
core_0_l2c_mshr_size 32
core_0_l2c_hit_latency 5
core_0_l2c_fill_latency 5
core_0_l2c_max_tag_check 1
core_0_l2c_max_fill 1
llc_set 2048
llc_way 16
llc_rq_size 32
llc_wq_size 32
llc_pq_size 32
llc_mshr_size 64
llc_hit_latency 10
llc_fill_latency 10
llc_max_tag_check 1
llc_max_fill 1
dram_channels 1
dram_ranks 1
dram_bankgroups 8
dram_banks 4
dram_rows 65536
dram_columns 1024
dram_channel_width 8
dram_rq_size 64
dram_wq_size 64
dram_size 17179869184
core_0_itlb_prefetcher no
core_0_dtlb_prefetcher no
core_0_stlb_prefetcher no
core_0_l1i_prefetcher next_line
core_0_l1d_prefetcher berti
core_0_l2c_prefetcher ip_stride
llc_prefetcher no
llc_replacement drrip

Core_0_instructions 50000005
Core_0_cycles 304365793
Core_0_IPC 0.164276
Core_0_branch_prediction_accuracy 94.8216
Core_0_branch_MPKI 12.488
Core_0_average_ROB_occupancy_at_mispredict 54.5895

Core_0_ITLB_total_access 1827157
Core_0_ITLB_total_hit 1827157
Core_0_ITLB_total_miss 0
Core_0_ITLB_total_MPKI 0
Core_0_ITLB_total_miss_rate 0
Core_0_ITLB_demand_access 1827157
Core_0_ITLB_demand_hit 1827157
Core_0_ITLB_demand_miss 0
Core_0_ITLB_demand_MPKI 0
Core_0_ITLB_demand_miss_rate 0
Core_0_ITLB_load_access 1827157
Core_0_ITLB_load_hit 1827157
Core_0_ITLB_load_miss 0
Core_0_ITLB_load_MPKI 0
Core_0_ITLB_load_miss_rate 0
Core_0_ITLB_rfo_access 0
Core_0_ITLB_rfo_hit 0
Core_0_ITLB_rfo_miss 0
Core_0_ITLB_rfo_MPKI 0
Core_0_ITLB_rfo_miss_rate 0
Core_0_ITLB_prefetch_access 0
Core_0_ITLB_prefetch_hit 0
Core_0_ITLB_prefetch_miss 0
Core_0_ITLB_prefetch_MPKI 0
Core_0_ITLB_prefetch_miss_rate 0
Core_0_ITLB_writeback_access 0
Core_0_ITLB_writeback_hit 0
Core_0_ITLB_writeback_miss 0
Core_0_ITLB_writeback_MPKI 0
Core_0_ITLB_writeback_miss_rate 0
Core_0_ITLB_prefetch_requested 0
Core_0_ITLB_prefetch_issued 0
Core_0_ITLB_prefetch_useful 0
Core_0_ITLB_prefetch_useless 0
Core_0_ITLB_prefetch_late 0
Core_0_ITLB_prefetch_accuracy 0
Core_0_ITLB_prefetch_coverage 0

Core_0_DTLB_total_access 15573322
Core_0_DTLB_total_hit 9023868
Core_0_DTLB_total_miss 6549454
Core_0_DTLB_total_MPKI 130.989
Core_0_DTLB_total_miss_rate 0.420556
Core_0_DTLB_demand_access 15573322
Core_0_DTLB_demand_hit 9023868
Core_0_DTLB_demand_miss 6549454
Core_0_DTLB_demand_MPKI 130.989
Core_0_DTLB_demand_miss_rate 0.420556
Core_0_DTLB_load_access 15573322
Core_0_DTLB_load_hit 9023868
Core_0_DTLB_load_miss 6549454
Core_0_DTLB_load_MPKI 130.989
Core_0_DTLB_load_miss_rate 0.420556
Core_0_DTLB_rfo_access 0
Core_0_DTLB_rfo_hit 0
Core_0_DTLB_rfo_miss 0
Core_0_DTLB_rfo_MPKI 0
Core_0_DTLB_rfo_miss_rate 0
Core_0_DTLB_prefetch_access 0
Core_0_DTLB_prefetch_hit 0
Core_0_DTLB_prefetch_miss 0
Core_0_DTLB_prefetch_MPKI 0
Core_0_DTLB_prefetch_miss_rate 0
Core_0_DTLB_writeback_access 0
Core_0_DTLB_writeback_hit 0
Core_0_DTLB_writeback_miss 0
Core_0_DTLB_writeback_MPKI 0
Core_0_DTLB_writeback_miss_rate 0
Core_0_DTLB_prefetch_requested 0
Core_0_DTLB_prefetch_issued 0
Core_0_DTLB_prefetch_useful 0
Core_0_DTLB_prefetch_useless 0
Core_0_DTLB_prefetch_late 0
Core_0_DTLB_prefetch_accuracy 0
Core_0_DTLB_prefetch_coverage 0

Core_0_STLB_total_access 4171729
Core_0_STLB_total_hit 3616637
Core_0_STLB_total_miss 555092
Core_0_STLB_total_MPKI 11.1018
Core_0_STLB_total_miss_rate 0.13306
Core_0_STLB_demand_access 4171729
Core_0_STLB_demand_hit 3616637
Core_0_STLB_demand_miss 555092
Core_0_STLB_demand_MPKI 11.1018
Core_0_STLB_demand_miss_rate 0.13306
Core_0_STLB_load_access 4171729
Core_0_STLB_load_hit 3616637
Core_0_STLB_load_miss 555092
Core_0_STLB_load_MPKI 11.1018
Core_0_STLB_load_miss_rate 0.13306
Core_0_STLB_rfo_access 0
Core_0_STLB_rfo_hit 0
Core_0_STLB_rfo_miss 0
Core_0_STLB_rfo_MPKI 0
Core_0_STLB_rfo_miss_rate 0
Core_0_STLB_prefetch_access 0
Core_0_STLB_prefetch_hit 0
Core_0_STLB_prefetch_miss 0
Core_0_STLB_prefetch_MPKI 0
Core_0_STLB_prefetch_miss_rate 0
Core_0_STLB_writeback_access 0
Core_0_STLB_writeback_hit 0
Core_0_STLB_writeback_miss 0
Core_0_STLB_writeback_MPKI 0
Core_0_STLB_writeback_miss_rate 0
Core_0_STLB_prefetch_requested 0
Core_0_STLB_prefetch_issued 0
Core_0_STLB_prefetch_useful 0
Core_0_STLB_prefetch_useless 0
Core_0_STLB_prefetch_late 0
Core_0_STLB_prefetch_accuracy 0
Core_0_STLB_prefetch_coverage 0

Core_0_L1I_total_access 1964922
Core_0_L1I_total_hit 1964922
Core_0_L1I_total_miss 0
Core_0_L1I_total_MPKI 0
Core_0_L1I_total_miss_rate 0
Core_0_L1I_demand_access 1964922
Core_0_L1I_demand_hit 1964922
Core_0_L1I_demand_miss 0
Core_0_L1I_demand_MPKI 0
Core_0_L1I_demand_miss_rate 0
Core_0_L1I_load_access 1964922
Core_0_L1I_load_hit 1964922
Core_0_L1I_load_miss 0
Core_0_L1I_load_MPKI 0
Core_0_L1I_load_miss_rate 0
Core_0_L1I_rfo_access 0
Core_0_L1I_rfo_hit 0
Core_0_L1I_rfo_miss 0
Core_0_L1I_rfo_MPKI 0
Core_0_L1I_rfo_miss_rate 0
Core_0_L1I_prefetch_access 0
Core_0_L1I_prefetch_hit 0
Core_0_L1I_prefetch_miss 0
Core_0_L1I_prefetch_MPKI 0
Core_0_L1I_prefetch_miss_rate 0
Core_0_L1I_writeback_access 0
Core_0_L1I_writeback_hit 0
Core_0_L1I_writeback_miss 0
Core_0_L1I_writeback_MPKI 0
Core_0_L1I_writeback_miss_rate 0
Core_0_L1I_prefetch_requested 0
Core_0_L1I_prefetch_issued 0
Core_0_L1I_prefetch_useful 0
Core_0_L1I_prefetch_useless 0
Core_0_L1I_prefetch_late 0
Core_0_L1I_prefetch_accuracy 0
Core_0_L1I_prefetch_coverage 0

Core_0_L1D_total_access 15956316
Core_0_L1D_total_hit 8276613
Core_0_L1D_total_miss 7679703
Core_0_L1D_total_MPKI 153.594
Core_0_L1D_total_miss_rate 0.481295
Core_0_L1D_demand_access 12511744
Core_0_L1D_demand_hit 5855579
Core_0_L1D_demand_miss 6656165
Core_0_L1D_demand_MPKI 133.123
Core_0_L1D_demand_miss_rate 0.531993
Core_0_L1D_load_access 12511744
Core_0_L1D_load_hit 5855579
Core_0_L1D_load_miss 6656165
Core_0_L1D_load_MPKI 133.123
Core_0_L1D_load_miss_rate 0.531993
Core_0_L1D_rfo_access 0
Core_0_L1D_rfo_hit 0
Core_0_L1D_rfo_miss 0
Core_0_L1D_rfo_MPKI 0
Core_0_L1D_rfo_miss_rate 0
Core_0_L1D_prefetch_access 1064451
Core_0_L1D_prefetch_hit 300325
Core_0_L1D_prefetch_miss 764126
Core_0_L1D_prefetch_MPKI 15.2825
Core_0_L1D_prefetch_miss_rate 0.717859
Core_0_L1D_writeback_access 2380121
Core_0_L1D_writeback_hit 2120709
Core_0_L1D_writeback_miss 259412
Core_0_L1D_writeback_MPKI 5.18824
Core_0_L1D_writeback_miss_rate 0.108991
Core_0_L1D_prefetch_requested 1075586
Core_0_L1D_prefetch_issued 1064451
Core_0_L1D_prefetch_useful 78583
Core_0_L1D_prefetch_useless 609478
Core_0_L1D_prefetch_late 3600
Core_0_L1D_prefetch_accuracy 0.0738249
Core_0_L1D_prefetch_coverage 0.0116683

Core_0_L2C_total_access 7048778
Core_0_L2C_total_hit 3179443
Core_0_L2C_total_miss 3869335
Core_0_L2C_total_MPKI 77.3867
Core_0_L2C_total_miss_rate 0.548937
Core_0_L2C_demand_access 5115214
Core_0_L2C_demand_hit 1730480
Core_0_L2C_demand_miss 3384734
Core_0_L2C_demand_MPKI 67.6947
Core_0_L2C_demand_miss_rate 0.661699
Core_0_L2C_load_access 4958874
Core_0_L2C_load_hit 1649314
Core_0_L2C_load_miss 3309560
Core_0_L2C_load_MPKI 66.1912
Core_0_L2C_load_miss_rate 0.667402
Core_0_L2C_rfo_access 156340
Core_0_L2C_rfo_hit 81166
Core_0_L2C_rfo_miss 75174
Core_0_L2C_rfo_MPKI 1.50348
Core_0_L2C_rfo_miss_rate 0.480837
Core_0_L2C_prefetch_access 704410
Core_0_L2C_prefetch_hit 219884
Core_0_L2C_prefetch_miss 484526
Core_0_L2C_prefetch_MPKI 9.69052
Core_0_L2C_prefetch_miss_rate 0.687847
Core_0_L2C_writeback_access 1229154
Core_0_L2C_writeback_hit 1229079
Core_0_L2C_writeback_miss 75
Core_0_L2C_writeback_MPKI 0.0015
Core_0_L2C_writeback_miss_rate 6.10176e-05
Core_0_L2C_prefetch_requested 16326
Core_0_L2C_prefetch_issued 16326
Core_0_L2C_prefetch_useful 2514
Core_0_L2C_prefetch_useless 5100
Core_0_L2C_prefetch_late 51
Core_0_L2C_prefetch_accuracy 0.153988
Core_0_L2C_prefetch_coverage 0.000742195

Core_0_LLC_total_access 4630241
Core_0_LLC_total_hit 1229468
Core_0_LLC_total_miss 3400773
Core_0_LLC_total_MPKI 68.0155
Core_0_LLC_total_miss_rate 0.73447
Core_0_LLC_demand_access 3384680
Core_0_LLC_demand_hit 655381
Core_0_LLC_demand_miss 2729299
Core_0_LLC_demand_MPKI 54.586
Core_0_LLC_demand_miss_rate 0.806368
Core_0_LLC_load_access 3309506
Core_0_LLC_load_hit 633199
Core_0_LLC_load_miss 2676307
Core_0_LLC_load_MPKI 53.5261
Core_0_LLC_load_miss_rate 0.808673
Core_0_LLC_rfo_access 75174
Core_0_LLC_rfo_hit 22182
Core_0_LLC_rfo_miss 52992
Core_0_LLC_rfo_MPKI 1.05984
Core_0_LLC_rfo_miss_rate 0.704925
Core_0_LLC_prefetch_access 483782
Core_0_LLC_prefetch_hit 126764
Core_0_LLC_prefetch_miss 357018
Core_0_LLC_prefetch_MPKI 7.14036
Core_0_LLC_prefetch_miss_rate 0.737973
Core_0_LLC_writeback_access 761779
Core_0_LLC_writeback_hit 447323
Core_0_LLC_writeback_miss 314456
Core_0_LLC_writeback_MPKI 6.28912
Core_0_LLC_writeback_miss_rate 0.412792
Core_0_LLC_prefetch_requested 0
Core_0_LLC_prefetch_issued 0
Core_0_LLC_prefetch_useful 0
Core_0_LLC_prefetch_useless 0
Core_0_LLC_prefetch_late 0
Core_0_LLC_prefetch_accuracy 0
Core_0_LLC_prefetch_coverage 0

[DRAM Statistics]
Channel_0_RQ_row_buffer_hit 7640
Channel_0_RQ_row_buffer_miss 3274144
Channel_0_WQ_row_buffer_hit 184166
Channel_0_WQ_row_buffer_miss 451539
Channel_0_WQ_full 0
Channel_0_dbus_congested 8616212
DRAM_total_RQ_row_buffer_hit 7640
DRAM_total_RQ_row_buffer_miss 3274144
DRAM_total_WQ_row_buffer_hit 184166
DRAM_total_WQ_row_buffer_miss 451539
DRAM_total_WQ_full 0
DRAM_total_dbus_congested 8616212
DRAM_avg_congested_cycle 8.02624

======STLB miss causes ========
Core_0_STLB_miss_cause_breakdown
Core_0_STLB_cause_Demand_Data_miss 555092
Core_0_STLB_cause_Demand_Data_miss_rate 0.13306
Core_0_STLB_cause_Demand_Instruction_miss 0
Core_0_STLB_cause_Demand_Instruction_miss_rate 0
Core_0_STLB_cause_L1D_Prefetch_miss 0
Core_0_STLB_cause_L1D_Prefetch_miss_rate 0
Core_0_STLB_cause_L1I_Prefetch_miss 0
Core_0_STLB_cause_L1I_Prefetch_miss_rate 0
Core_0_STLB_cause_Other_miss 0
Core_0_STLB_cause_Other_miss_rate 0
Core_0_STLB_Demand_miss 555092
Core_0_STLB_Demand_miss_rate 0.13306
Core_0_STLB_L1D_Prefetch_miss 0
Core_0_STLB_L1D_Prefetch_miss_rate 0
Core_0_STLB_Other_miss 0
Core_0_STLB_Other_miss_rate 0
