[VMEM] WARNING: physical memory size is smaller than virtual memory size.

*** ChampSim Multicore Out-of-Order Simulator ***
Warmup Instructions: 20000000
Simulation Instructions: 50000000
Number of CPUs: 1
Page size: 4096
STLB ideal mode: l1pref
Core 0: /data0/tzh/champsim_traces/SPEC06/459.GemsFDTD-1169B.champsimtrace.xz
 L1D Berti prefetcher
Off-chip DRAM Size: 16 GiB Channels: 1 Width: 64-bit Data Rate: 3205 MT/s
Warmup halting CPU 0 at instruction 20000002 cycle 5768367 for remainder of phase
Warmup finished CPU 0 instructions: 20000002 cycles: 5768367 cumulative IPC: 3.467 (Simulation time: 00 hr 01 min 03 sec)
Warmup complete CPU 0 instructions: 20000002 cycles: 5768367 cumulative IPC: 3.467 (Simulation time: 00 hr 01 min 03 sec)
Simulation finished CPU 0 instructions: 50000003 cycles: 50769640 cumulative IPC: 0.9848 (Simulation time: 00 hr 07 min 29 sec)
Simulation complete CPU 0 instructions: 50000003 cycles: 50769640 cumulative IPC: 0.9848 (Simulation time: 00 hr 07 min 29 sec)

ChampSim completed all CPUs

=== Simulation ===
CPU 0 runs /data0/tzh/champsim_traces/SPEC06/459.GemsFDTD-1169B.champsimtrace.xz

Region of Interest Statistics

CPU 0 cumulative IPC: 0.9848 instructions: 50000003 cycles: 50769640
CPU 0 Branch Prediction Accuracy: 99.92% MPKI: 0.0022 Average ROB Occupancy at Mispredict: 321.4
Branch type MPKI
BRANCH_DIRECT_JUMP: 2e-05
BRANCH_INDIRECT: 0
BRANCH_CONDITIONAL: 0.00218
BRANCH_DIRECT_CALL: 0
BRANCH_INDIRECT_CALL: 0
BRANCH_RETURN: 0

cpu0->cpu0_STLB TOTAL        ACCESS:     757052 HIT:     680695 MISS:      76357 MSHR_MERGE:          0
cpu0->cpu0_STLB LOAD         ACCESS:     757052 HIT:     680695 MISS:      76357 MSHR_MERGE:          0
cpu0->cpu0_STLB RFO          ACCESS:          0 HIT:          0 MISS:          0 MSHR_MERGE:          0
cpu0->cpu0_STLB PREFETCH     ACCESS:          0 HIT:          0 MISS:          0 MSHR_MERGE:          0
cpu0->cpu0_STLB WRITE        ACCESS:          0 HIT:          0 MISS:          0 MSHR_MERGE:          0
cpu0->cpu0_STLB TRANSLATION  ACCESS:          0 HIT:          0 MISS:          0 MSHR_MERGE:          0
cpu0->cpu0_STLB PREFETCH REQUESTED:          0 ISSUED:          0 USEFUL:          0 USELESS:          0 LATE:          0
cpu0->cpu0_STLB AVERAGE MISS LATENCY: 103.5 cycles
cpu0->cpu0_L2C TOTAL        ACCESS:    2809635 HIT:    2375961 MISS:     433674 MSHR_MERGE:         60
cpu0->cpu0_L2C LOAD         ACCESS:    1061439 HIT:     793367 MISS:     268072 MSHR_MERGE:          0
cpu0->cpu0_L2C RFO          ACCESS:          3 HIT:          0 MISS:          3 MSHR_MERGE:          0
cpu0->cpu0_L2C PREFETCH     ACCESS:    1254496 HIT:    1103309 MISS:     151187 MSHR_MERGE:         60
cpu0->cpu0_L2C WRITE        ACCESS:     416100 HIT:     416100 MISS:          0 MSHR_MERGE:          0
cpu0->cpu0_L2C TRANSLATION  ACCESS:      77597 HIT:      63185 MISS:      14412 MSHR_MERGE:          0
cpu0->cpu0_L2C PREFETCH REQUESTED:      75140 ISSUED:      75140 USEFUL:        575 USELESS:       1074 LATE:          0
cpu0->cpu0_L2C AVERAGE MISS LATENCY: 200.2 cycles
cpu0->cpu0_L1I TOTAL        ACCESS:   10081478 HIT:   10081218 MISS:        260 MSHR_MERGE:        119
cpu0->cpu0_L1I LOAD         ACCESS:   10081478 HIT:   10081218 MISS:        260 MSHR_MERGE:        119
cpu0->cpu0_L1I RFO          ACCESS:          0 HIT:          0 MISS:          0 MSHR_MERGE:          0
cpu0->cpu0_L1I PREFETCH     ACCESS:          0 HIT:          0 MISS:          0 MSHR_MERGE:          0
cpu0->cpu0_L1I WRITE        ACCESS:          0 HIT:          0 MISS:          0 MSHR_MERGE:          0
cpu0->cpu0_L1I TRANSLATION  ACCESS:          0 HIT:          0 MISS:          0 MSHR_MERGE:          0
cpu0->cpu0_L1I PREFETCH REQUESTED:          0 ISSUED:          0 USEFUL:          0 USELESS:          0 LATE:          0
cpu0->cpu0_L1I AVERAGE MISS LATENCY: 218.9 cycles
cpu0->cpu0_L1D TOTAL        ACCESS:   23301221 HIT:   20840671 MISS:    2460550 MSHR_MERGE:     142296
cpu0->cpu0_L1D LOAD         ACCESS:   19972598 HIT:   18769755 MISS:    1202843 MSHR_MERGE:     141545
cpu0->cpu0_L1D RFO          ACCESS:          0 HIT:          0 MISS:          0 MSHR_MERGE:          0
cpu0->cpu0_L1D PREFETCH     ACCESS:    1501920 HIT:     321818 MISS:    1180102 MSHR_MERGE:        746
cpu0->cpu0_L1D WRITE        ACCESS:    1644018 HIT:    1644014 MISS:          4 MSHR_MERGE:          1
cpu0->cpu0_L1D TRANSLATION  ACCESS:     182685 HIT:     105084 MISS:      77601 MSHR_MERGE:          4
cpu0->cpu0_L1D PREFETCH REQUESTED:    1537388 ISSUED:    1501920 USEFUL:     928672 USELESS:     250668 LATE:      10374
cpu0->cpu0_L1D AVERAGE MISS LATENCY: 57.76 cycles
cpu0->cpu0_ITLB TOTAL        ACCESS:    8328196 HIT:    8328183 MISS:         13 MSHR_MERGE:         11
cpu0->cpu0_ITLB LOAD         ACCESS:    8328196 HIT:    8328183 MISS:         13 MSHR_MERGE:         11
cpu0->cpu0_ITLB RFO          ACCESS:          0 HIT:          0 MISS:          0 MSHR_MERGE:          0
cpu0->cpu0_ITLB PREFETCH     ACCESS:          0 HIT:          0 MISS:          0 MSHR_MERGE:          0
cpu0->cpu0_ITLB WRITE        ACCESS:          0 HIT:          0 MISS:          0 MSHR_MERGE:          0
cpu0->cpu0_ITLB TRANSLATION  ACCESS:          0 HIT:          0 MISS:          0 MSHR_MERGE:          0
cpu0->cpu0_ITLB PREFETCH REQUESTED:          0 ISSUED:          0 USEFUL:          0 USELESS:          0 LATE:          0
cpu0->cpu0_ITLB AVERAGE MISS LATENCY: 432.5 cycles
cpu0->cpu0_DTLB TOTAL        ACCESS:   22303441 HIT:   21522070 MISS:     781371 MSHR_MERGE:      24321
cpu0->cpu0_DTLB LOAD         ACCESS:   22303441 HIT:   21522070 MISS:     781371 MSHR_MERGE:      24321
cpu0->cpu0_DTLB RFO          ACCESS:          0 HIT:          0 MISS:          0 MSHR_MERGE:          0
cpu0->cpu0_DTLB PREFETCH     ACCESS:          0 HIT:          0 MISS:          0 MSHR_MERGE:          0
cpu0->cpu0_DTLB WRITE        ACCESS:          0 HIT:          0 MISS:          0 MSHR_MERGE:          0
cpu0->cpu0_DTLB TRANSLATION  ACCESS:          0 HIT:          0 MISS:          0 MSHR_MERGE:          0
cpu0->cpu0_DTLB PREFETCH REQUESTED:          0 ISSUED:          0 USEFUL:          0 USELESS:          0 LATE:          0
cpu0->cpu0_DTLB AVERAGE MISS LATENCY: 15.54 cycles
cpu0->LLC TOTAL        ACCESS:     439455 HIT:      42422 MISS:     397033 MSHR_MERGE:          0
cpu0->LLC LOAD         ACCESS:     268072 HIT:      12348 MISS:     255724 MSHR_MERGE:          0
cpu0->LLC RFO          ACCESS:          3 HIT:          0 MISS:          3 MSHR_MERGE:          0
cpu0->LLC PREFETCH     ACCESS:     151127 HIT:      19595 MISS:     131532 MSHR_MERGE:          0
cpu0->LLC WRITE        ACCESS:       5841 HIT:       4554 MISS:       1287 MSHR_MERGE:          0
cpu0->LLC TRANSLATION  ACCESS:      14412 HIT:       5925 MISS:       8487 MSHR_MERGE:          0
cpu0->LLC PREFETCH REQUESTED:          0 ISSUED:          0 USEFUL:          0 USELESS:          0 LATE:          0
cpu0->LLC AVERAGE MISS LATENCY: 196.1 cycles

DRAM Statistics

Channel 0 RQ ROW_BUFFER_HIT:        177
  ROW_BUFFER_MISS:     395569
  AVG DBUS CONGESTED CYCLE: 11.26
Channel 0 WQ ROW_BUFFER_HIT:       1020
  ROW_BUFFER_MISS:       1542
  FULL:          0
Channel 0 REFRESHES ISSUED:       4231

[ROI Statistics]
[System Configuration]
num_cpus 1
cpu_freq 4000
fetch_width 6
decode_width 6
dispatch_width 6
execute_width 6
lq_width 2
sq_width 2
retire_width 6
scheduler_size 128
branch_mispredict_penalty 15
rob_size 352
lq_size 128
sq_size 72
ifetch_buffer_size 64
decode_buffer_size 32
dispatch_buffer_size 32
register_file_size 288
decode_latency 1
dispatch_latency 1
schedule_latency 1
execute_latency 1
page_size 4096
block_size 64
core_0_itlb_set 16
core_0_itlb_way 4
core_0_itlb_rq_size 16
core_0_itlb_wq_size 16
core_0_itlb_pq_size 0
core_0_itlb_mshr_size 8
core_0_itlb_hit_latency 1
core_0_itlb_fill_latency 1
core_0_itlb_max_tag_check 2
core_0_itlb_max_fill 2
core_0_dtlb_set 16
core_0_dtlb_way 4
core_0_dtlb_rq_size 16
core_0_dtlb_wq_size 16
core_0_dtlb_pq_size 0
core_0_dtlb_mshr_size 8
core_0_dtlb_hit_latency 1
core_0_dtlb_fill_latency 1
core_0_dtlb_max_tag_check 2
core_0_dtlb_max_fill 2
core_0_stlb_set 128
core_0_stlb_way 12
core_0_stlb_rq_size 32
core_0_stlb_wq_size 32
core_0_stlb_pq_size 0
core_0_stlb_mshr_size 16
core_0_stlb_hit_latency 4
core_0_stlb_fill_latency 4
core_0_stlb_max_tag_check 1
core_0_stlb_max_fill 1
core_0_l1i_set 64
core_0_l1i_way 8
core_0_l1i_rq_size 64
core_0_l1i_wq_size 64
core_0_l1i_pq_size 32
core_0_l1i_mshr_size 8
core_0_l1i_hit_latency 2
core_0_l1i_fill_latency 2
core_0_l1i_max_tag_check 2
core_0_l1i_max_fill 2
core_0_l1d_set 64
core_0_l1d_way 12
core_0_l1d_rq_size 64
core_0_l1d_wq_size 64
core_0_l1d_pq_size 8
core_0_l1d_mshr_size 16
core_0_l1d_hit_latency 2
core_0_l1d_fill_latency 3
core_0_l1d_max_tag_check 2
core_0_l1d_max_fill 2
core_0_l2c_set 1024
core_0_l2c_way 8
core_0_l2c_rq_size 32
core_0_l2c_wq_size 32
core_0_l2c_pq_size 16
core_0_l2c_mshr_size 32
core_0_l2c_hit_latency 5
core_0_l2c_fill_latency 5
core_0_l2c_max_tag_check 1
core_0_l2c_max_fill 1
llc_set 2048
llc_way 16
llc_rq_size 32
llc_wq_size 32
llc_pq_size 32
llc_mshr_size 64
llc_hit_latency 10
llc_fill_latency 10
llc_max_tag_check 1
llc_max_fill 1
dram_channels 1
dram_ranks 1
dram_bankgroups 8
dram_banks 4
dram_rows 65536
dram_columns 1024
dram_channel_width 8
dram_rq_size 64
dram_wq_size 64
dram_size 17179869184
core_0_itlb_prefetcher no
core_0_dtlb_prefetcher no
core_0_stlb_prefetcher no
core_0_l1i_prefetcher next_line
core_0_l1d_prefetcher berti
core_0_l2c_prefetcher ip_stride
llc_prefetcher no
llc_replacement drrip

Core_0_instructions 50000003
Core_0_cycles 50769640
Core_0_IPC 0.984841
Core_0_branch_prediction_accuracy 99.9172
Core_0_branch_MPKI 0.0022
Core_0_average_ROB_occupancy_at_mispredict 321.445

Core_0_ITLB_total_access 8328196
Core_0_ITLB_total_hit 8328183
Core_0_ITLB_total_miss 13
Core_0_ITLB_total_MPKI 0.00026
Core_0_ITLB_total_miss_rate 1.56096e-06
Core_0_ITLB_demand_access 8328196
Core_0_ITLB_demand_hit 8328183
Core_0_ITLB_demand_miss 13
Core_0_ITLB_demand_MPKI 0.00026
Core_0_ITLB_demand_miss_rate 1.56096e-06
Core_0_ITLB_load_access 8328196
Core_0_ITLB_load_hit 8328183
Core_0_ITLB_load_miss 13
Core_0_ITLB_load_MPKI 0.00026
Core_0_ITLB_load_miss_rate 1.56096e-06
Core_0_ITLB_rfo_access 0
Core_0_ITLB_rfo_hit 0
Core_0_ITLB_rfo_miss 0
Core_0_ITLB_rfo_MPKI 0
Core_0_ITLB_rfo_miss_rate 0
Core_0_ITLB_prefetch_access 0
Core_0_ITLB_prefetch_hit 0
Core_0_ITLB_prefetch_miss 0
Core_0_ITLB_prefetch_MPKI 0
Core_0_ITLB_prefetch_miss_rate 0
Core_0_ITLB_writeback_access 0
Core_0_ITLB_writeback_hit 0
Core_0_ITLB_writeback_miss 0
Core_0_ITLB_writeback_MPKI 0
Core_0_ITLB_writeback_miss_rate 0
Core_0_ITLB_prefetch_requested 0
Core_0_ITLB_prefetch_issued 0
Core_0_ITLB_prefetch_useful 0
Core_0_ITLB_prefetch_useless 0
Core_0_ITLB_prefetch_late 0
Core_0_ITLB_prefetch_accuracy 0
Core_0_ITLB_prefetch_coverage 0

Core_0_DTLB_total_access 22303441
Core_0_DTLB_total_hit 21522070
Core_0_DTLB_total_miss 781371
Core_0_DTLB_total_MPKI 15.6274
Core_0_DTLB_total_miss_rate 0.0350337
Core_0_DTLB_demand_access 22303441
Core_0_DTLB_demand_hit 21522070
Core_0_DTLB_demand_miss 781371
Core_0_DTLB_demand_MPKI 15.6274
Core_0_DTLB_demand_miss_rate 0.0350337
Core_0_DTLB_load_access 22303441
Core_0_DTLB_load_hit 21522070
Core_0_DTLB_load_miss 781371
Core_0_DTLB_load_MPKI 15.6274
Core_0_DTLB_load_miss_rate 0.0350337
Core_0_DTLB_rfo_access 0
Core_0_DTLB_rfo_hit 0
Core_0_DTLB_rfo_miss 0
Core_0_DTLB_rfo_MPKI 0
Core_0_DTLB_rfo_miss_rate 0
Core_0_DTLB_prefetch_access 0
Core_0_DTLB_prefetch_hit 0
Core_0_DTLB_prefetch_miss 0
Core_0_DTLB_prefetch_MPKI 0
Core_0_DTLB_prefetch_miss_rate 0
Core_0_DTLB_writeback_access 0
Core_0_DTLB_writeback_hit 0
Core_0_DTLB_writeback_miss 0
Core_0_DTLB_writeback_MPKI 0
Core_0_DTLB_writeback_miss_rate 0
Core_0_DTLB_prefetch_requested 0
Core_0_DTLB_prefetch_issued 0
Core_0_DTLB_prefetch_useful 0
Core_0_DTLB_prefetch_useless 0
Core_0_DTLB_prefetch_late 0
Core_0_DTLB_prefetch_accuracy 0
Core_0_DTLB_prefetch_coverage 0

Core_0_STLB_total_access 757052
Core_0_STLB_total_hit 680695
Core_0_STLB_total_miss 76357
Core_0_STLB_total_MPKI 1.52714
Core_0_STLB_total_miss_rate 0.100861
Core_0_STLB_demand_access 757052
Core_0_STLB_demand_hit 680695
Core_0_STLB_demand_miss 76357
Core_0_STLB_demand_MPKI 1.52714
Core_0_STLB_demand_miss_rate 0.100861
Core_0_STLB_load_access 757052
Core_0_STLB_load_hit 680695
Core_0_STLB_load_miss 76357
Core_0_STLB_load_MPKI 1.52714
Core_0_STLB_load_miss_rate 0.100861
Core_0_STLB_rfo_access 0
Core_0_STLB_rfo_hit 0
Core_0_STLB_rfo_miss 0
Core_0_STLB_rfo_MPKI 0
Core_0_STLB_rfo_miss_rate 0
Core_0_STLB_prefetch_access 0
Core_0_STLB_prefetch_hit 0
Core_0_STLB_prefetch_miss 0
Core_0_STLB_prefetch_MPKI 0
Core_0_STLB_prefetch_miss_rate 0
Core_0_STLB_writeback_access 0
Core_0_STLB_writeback_hit 0
Core_0_STLB_writeback_miss 0
Core_0_STLB_writeback_MPKI 0
Core_0_STLB_writeback_miss_rate 0
Core_0_STLB_prefetch_requested 0
Core_0_STLB_prefetch_issued 0
Core_0_STLB_prefetch_useful 0
Core_0_STLB_prefetch_useless 0
Core_0_STLB_prefetch_late 0
Core_0_STLB_prefetch_accuracy 0
Core_0_STLB_prefetch_coverage 0

Core_0_L1I_total_access 10081478
Core_0_L1I_total_hit 10081218
Core_0_L1I_total_miss 260
Core_0_L1I_total_MPKI 0.0052
Core_0_L1I_total_miss_rate 2.57899e-05
Core_0_L1I_demand_access 10081478
Core_0_L1I_demand_hit 10081218
Core_0_L1I_demand_miss 260
Core_0_L1I_demand_MPKI 0.0052
Core_0_L1I_demand_miss_rate 2.57899e-05
Core_0_L1I_load_access 10081478
Core_0_L1I_load_hit 10081218
Core_0_L1I_load_miss 260
Core_0_L1I_load_MPKI 0.0052
Core_0_L1I_load_miss_rate 2.57899e-05
Core_0_L1I_rfo_access 0
Core_0_L1I_rfo_hit 0
Core_0_L1I_rfo_miss 0
Core_0_L1I_rfo_MPKI 0
Core_0_L1I_rfo_miss_rate 0
Core_0_L1I_prefetch_access 0
Core_0_L1I_prefetch_hit 0
Core_0_L1I_prefetch_miss 0
Core_0_L1I_prefetch_MPKI 0
Core_0_L1I_prefetch_miss_rate 0
Core_0_L1I_writeback_access 0
Core_0_L1I_writeback_hit 0
Core_0_L1I_writeback_miss 0
Core_0_L1I_writeback_MPKI 0
Core_0_L1I_writeback_miss_rate 0
Core_0_L1I_prefetch_requested 0
Core_0_L1I_prefetch_issued 0
Core_0_L1I_prefetch_useful 0
Core_0_L1I_prefetch_useless 0
Core_0_L1I_prefetch_late 0
Core_0_L1I_prefetch_accuracy 0
Core_0_L1I_prefetch_coverage 0

Core_0_L1D_total_access 23118536
Core_0_L1D_total_hit 20735587
Core_0_L1D_total_miss 2382949
Core_0_L1D_total_MPKI 47.659
Core_0_L1D_total_miss_rate 0.103075
Core_0_L1D_demand_access 19972598
Core_0_L1D_demand_hit 18769755
Core_0_L1D_demand_miss 1202843
Core_0_L1D_demand_MPKI 24.0569
Core_0_L1D_demand_miss_rate 0.0602247
Core_0_L1D_load_access 19972598
Core_0_L1D_load_hit 18769755
Core_0_L1D_load_miss 1202843
Core_0_L1D_load_MPKI 24.0569
Core_0_L1D_load_miss_rate 0.0602247
Core_0_L1D_rfo_access 0
Core_0_L1D_rfo_hit 0
Core_0_L1D_rfo_miss 0
Core_0_L1D_rfo_MPKI 0
Core_0_L1D_rfo_miss_rate 0
Core_0_L1D_prefetch_access 1501920
Core_0_L1D_prefetch_hit 321818
Core_0_L1D_prefetch_miss 1180102
Core_0_L1D_prefetch_MPKI 23.602
Core_0_L1D_prefetch_miss_rate 0.785729
Core_0_L1D_writeback_access 1644018
Core_0_L1D_writeback_hit 1644014
Core_0_L1D_writeback_miss 4
Core_0_L1D_writeback_MPKI 8e-05
Core_0_L1D_writeback_miss_rate 2.43306e-06
Core_0_L1D_prefetch_requested 1537388
Core_0_L1D_prefetch_issued 1501920
Core_0_L1D_prefetch_useful 928672
Core_0_L1D_prefetch_useless 250668
Core_0_L1D_prefetch_late 10374
Core_0_L1D_prefetch_accuracy 0.618323
Core_0_L1D_prefetch_coverage 0.435686

Core_0_L2C_total_access 2732038
Core_0_L2C_total_hit 2312776
Core_0_L2C_total_miss 419262
Core_0_L2C_total_MPKI 8.38524
Core_0_L2C_total_miss_rate 0.153461
Core_0_L2C_demand_access 1061442
Core_0_L2C_demand_hit 793367
Core_0_L2C_demand_miss 268075
Core_0_L2C_demand_MPKI 5.3615
Core_0_L2C_demand_miss_rate 0.252557
Core_0_L2C_load_access 1061439
Core_0_L2C_load_hit 793367
Core_0_L2C_load_miss 268072
Core_0_L2C_load_MPKI 5.36144
Core_0_L2C_load_miss_rate 0.252555
Core_0_L2C_rfo_access 3
Core_0_L2C_rfo_hit 0
Core_0_L2C_rfo_miss 3
Core_0_L2C_rfo_MPKI 6e-05
Core_0_L2C_rfo_miss_rate 1
Core_0_L2C_prefetch_access 1254496
Core_0_L2C_prefetch_hit 1103309
Core_0_L2C_prefetch_miss 151187
Core_0_L2C_prefetch_MPKI 3.02374
Core_0_L2C_prefetch_miss_rate 0.120516
Core_0_L2C_writeback_access 416100
Core_0_L2C_writeback_hit 416100
Core_0_L2C_writeback_miss 0
Core_0_L2C_writeback_MPKI 0
Core_0_L2C_writeback_miss_rate 0
Core_0_L2C_prefetch_requested 75140
Core_0_L2C_prefetch_issued 75140
Core_0_L2C_prefetch_useful 575
Core_0_L2C_prefetch_useless 1074
Core_0_L2C_prefetch_late 0
Core_0_L2C_prefetch_accuracy 0.00765238
Core_0_L2C_prefetch_coverage 0.00214033

Core_0_LLC_total_access 425043
Core_0_LLC_total_hit 36497
Core_0_LLC_total_miss 388546
Core_0_LLC_total_MPKI 7.77092
Core_0_LLC_total_miss_rate 0.914133
Core_0_LLC_demand_access 268075
Core_0_LLC_demand_hit 12348
Core_0_LLC_demand_miss 255727
Core_0_LLC_demand_MPKI 5.11454
Core_0_LLC_demand_miss_rate 0.953938
Core_0_LLC_load_access 268072
Core_0_LLC_load_hit 12348
Core_0_LLC_load_miss 255724
Core_0_LLC_load_MPKI 5.11448
Core_0_LLC_load_miss_rate 0.953938
Core_0_LLC_rfo_access 3
Core_0_LLC_rfo_hit 0
Core_0_LLC_rfo_miss 3
Core_0_LLC_rfo_MPKI 6e-05
Core_0_LLC_rfo_miss_rate 1
Core_0_LLC_prefetch_access 151127
Core_0_LLC_prefetch_hit 19595
Core_0_LLC_prefetch_miss 131532
Core_0_LLC_prefetch_MPKI 2.63064
Core_0_LLC_prefetch_miss_rate 0.870341
Core_0_LLC_writeback_access 5841
Core_0_LLC_writeback_hit 4554
Core_0_LLC_writeback_miss 1287
Core_0_LLC_writeback_MPKI 0.02574
Core_0_LLC_writeback_miss_rate 0.220339
Core_0_LLC_prefetch_requested 0
Core_0_LLC_prefetch_issued 0
Core_0_LLC_prefetch_useful 0
Core_0_LLC_prefetch_useless 0
Core_0_LLC_prefetch_late 0
Core_0_LLC_prefetch_accuracy 0
Core_0_LLC_prefetch_coverage 0

[DRAM Statistics]
Channel_0_RQ_row_buffer_hit 177
Channel_0_RQ_row_buffer_miss 395569
Channel_0_WQ_row_buffer_hit 1020
Channel_0_WQ_row_buffer_miss 1542
Channel_0_WQ_full 0
Channel_0_dbus_congested 264154
DRAM_total_RQ_row_buffer_hit 177
DRAM_total_RQ_row_buffer_miss 395569
DRAM_total_WQ_row_buffer_hit 1020
DRAM_total_WQ_row_buffer_miss 1542
DRAM_total_WQ_full 0
DRAM_total_dbus_congested 264154
DRAM_avg_congested_cycle 11.262

======STLB miss causes ========
Core_0_STLB_miss_cause_breakdown
Core_0_STLB_cause_Demand_Data_miss 76355
Core_0_STLB_cause_Demand_Data_miss_rate 0.100858
Core_0_STLB_cause_Demand_Instruction_miss 2
Core_0_STLB_cause_Demand_Instruction_miss_rate 2.64183e-06
Core_0_STLB_cause_L1D_Prefetch_miss 0
Core_0_STLB_cause_L1D_Prefetch_miss_rate 0
Core_0_STLB_cause_L1I_Prefetch_miss 0
Core_0_STLB_cause_L1I_Prefetch_miss_rate 0
Core_0_STLB_cause_Other_miss 0
Core_0_STLB_cause_Other_miss_rate 0
Core_0_STLB_Demand_miss 76357
Core_0_STLB_Demand_miss_rate 0.100861
Core_0_STLB_L1D_Prefetch_miss 0
Core_0_STLB_L1D_Prefetch_miss_rate 0
Core_0_STLB_Other_miss 0
Core_0_STLB_Other_miss_rate 0
