[VMEM] WARNING: physical memory size is smaller than virtual memory size.

*** ChampSim Multicore Out-of-Order Simulator ***
Warmup Instructions: 20000000
Simulation Instructions: 50000000
Number of CPUs: 1
Page size: 4096
STLB ideal mode: l1pref
Core 0: /data0/tzh/champsim_traces/SPEC17/623.xalancbmk_s-10B.champsimtrace.xz
 L1D Berti prefetcher
Off-chip DRAM Size: 16 GiB Channels: 1 Width: 64-bit Data Rate: 3205 MT/s
Warmup halting CPU 0 at instruction 20000002 cycle 5108035 for remainder of phase
Warmup finished CPU 0 instructions: 20000002 cycles: 5108035 cumulative IPC: 3.915 (Simulation time: 00 hr 00 min 59 sec)
Warmup complete CPU 0 instructions: 20000002 cycles: 5108035 cumulative IPC: 3.915 (Simulation time: 00 hr 00 min 59 sec)
Simulation finished CPU 0 instructions: 50000005 cycles: 79544986 cumulative IPC: 0.6286 (Simulation time: 00 hr 09 min 26 sec)
Simulation complete CPU 0 instructions: 50000005 cycles: 79544986 cumulative IPC: 0.6286 (Simulation time: 00 hr 09 min 26 sec)

ChampSim completed all CPUs

=== Simulation ===
CPU 0 runs /data0/tzh/champsim_traces/SPEC17/623.xalancbmk_s-10B.champsimtrace.xz

Region of Interest Statistics

CPU 0 cumulative IPC: 0.6286 instructions: 50000005 cycles: 79544986
CPU 0 Branch Prediction Accuracy: 99.32% MPKI: 1.761 Average ROB Occupancy at Mispredict: 95.16
Branch type MPKI
BRANCH_DIRECT_JUMP: 0.09068
BRANCH_INDIRECT: 0.01906
BRANCH_CONDITIONAL: 1.151
BRANCH_DIRECT_CALL: 4e-05
BRANCH_INDIRECT_CALL: 0.1207
BRANCH_RETURN: 0.3802

cpu0->cpu0_STLB TOTAL        ACCESS:     401949 HIT:     154414 MISS:     247535 MSHR_MERGE:          0
cpu0->cpu0_STLB LOAD         ACCESS:     401949 HIT:     154414 MISS:     247535 MSHR_MERGE:          0
cpu0->cpu0_STLB RFO          ACCESS:          0 HIT:          0 MISS:          0 MSHR_MERGE:          0
cpu0->cpu0_STLB PREFETCH     ACCESS:          0 HIT:          0 MISS:          0 MSHR_MERGE:          0
cpu0->cpu0_STLB WRITE        ACCESS:          0 HIT:          0 MISS:          0 MSHR_MERGE:          0
cpu0->cpu0_STLB TRANSLATION  ACCESS:          0 HIT:          0 MISS:          0 MSHR_MERGE:          0
cpu0->cpu0_STLB PREFETCH REQUESTED:          0 ISSUED:          0 USEFUL:          0 USELESS:          0 LATE:          0
cpu0->cpu0_STLB AVERAGE MISS LATENCY: 53.25 cycles
cpu0->cpu0_L2C TOTAL        ACCESS:    2428007 HIT:     370874 MISS:    2057133 MSHR_MERGE:      15825
cpu0->cpu0_L2C LOAD         ACCESS:    1347659 HIT:     227018 MISS:    1120641 MSHR_MERGE:        558
cpu0->cpu0_L2C RFO          ACCESS:      21198 HIT:       8323 MISS:      12875 MSHR_MERGE:          0
cpu0->cpu0_L2C PREFETCH     ACCESS:     949076 HIT:      88721 MISS:     860355 MSHR_MERGE:      15267
cpu0->cpu0_L2C WRITE        ACCESS:      43410 HIT:      43213 MISS:        197 MSHR_MERGE:          0
cpu0->cpu0_L2C TRANSLATION  ACCESS:      66664 HIT:       3599 MISS:      63065 MSHR_MERGE:          0
cpu0->cpu0_L2C PREFETCH REQUESTED:      74115 ISSUED:      74114 USEFUL:      18368 USELESS:      26582 LATE:        558
cpu0->cpu0_L2C AVERAGE MISS LATENCY: 138.9 cycles
cpu0->cpu0_L1I TOTAL        ACCESS:    7609696 HIT:    7352457 MISS:     257239 MSHR_MERGE:      81465
cpu0->cpu0_L1I LOAD         ACCESS:    7609696 HIT:    7352457 MISS:     257239 MSHR_MERGE:      81465
cpu0->cpu0_L1I RFO          ACCESS:          0 HIT:          0 MISS:          0 MSHR_MERGE:          0
cpu0->cpu0_L1I PREFETCH     ACCESS:          0 HIT:          0 MISS:          0 MSHR_MERGE:          0
cpu0->cpu0_L1I WRITE        ACCESS:          0 HIT:          0 MISS:          0 MSHR_MERGE:          0
cpu0->cpu0_L1I TRANSLATION  ACCESS:          0 HIT:          0 MISS:          0 MSHR_MERGE:          0
cpu0->cpu0_L1I PREFETCH REQUESTED:          0 ISSUED:          0 USEFUL:          0 USELESS:          0 LATE:          0
cpu0->cpu0_L1I AVERAGE MISS LATENCY: 18.23 cycles
cpu0->cpu0_L1D TOTAL        ACCESS:   14432974 HIT:   10944717 MISS:    3488257 MSHR_MERGE:    1353538
cpu0->cpu0_L1D LOAD         ACCESS:   10455445 HIT:    8082283 MISS:    2373162 MSHR_MERGE:    1201271
cpu0->cpu0_L1D RFO          ACCESS:          0 HIT:          0 MISS:          0 MSHR_MERGE:          0
cpu0->cpu0_L1D PREFETCH     ACCESS:    1098642 HIT:     187992 MISS:     910650 MSHR_MERGE:      35687
cpu0->cpu0_L1D WRITE        ACCESS:    2397332 HIT:    2267542 MISS:     129790 MSHR_MERGE:     108589
cpu0->cpu0_L1D TRANSLATION  ACCESS:     481555 HIT:     406900 MISS:      74655 MSHR_MERGE:       7991
cpu0->cpu0_L1D PREFETCH REQUESTED:    1102727 ISSUED:    1098644 USEFUL:     182330 USELESS:     692476 LATE:      35806
cpu0->cpu0_L1D AVERAGE MISS LATENCY: 138.7 cycles
cpu0->cpu0_ITLB TOTAL        ACCESS:    6890616 HIT:    6811967 MISS:      78649 MSHR_MERGE:      46963
cpu0->cpu0_ITLB LOAD         ACCESS:    6890616 HIT:    6811967 MISS:      78649 MSHR_MERGE:      46963
cpu0->cpu0_ITLB RFO          ACCESS:          0 HIT:          0 MISS:          0 MSHR_MERGE:          0
cpu0->cpu0_ITLB PREFETCH     ACCESS:          0 HIT:          0 MISS:          0 MSHR_MERGE:          0
cpu0->cpu0_ITLB WRITE        ACCESS:          0 HIT:          0 MISS:          0 MSHR_MERGE:          0
cpu0->cpu0_ITLB TRANSLATION  ACCESS:          0 HIT:          0 MISS:          0 MSHR_MERGE:          0
cpu0->cpu0_ITLB PREFETCH REQUESTED:          0 ISSUED:          0 USEFUL:          0 USELESS:          0 LATE:          0
cpu0->cpu0_ITLB AVERAGE MISS LATENCY: 10.44 cycles
cpu0->cpu0_DTLB TOTAL        ACCESS:   13355276 HIT:   12562928 MISS:     792348 MSHR_MERGE:     422085
cpu0->cpu0_DTLB LOAD         ACCESS:   13355276 HIT:   12562928 MISS:     792348 MSHR_MERGE:     422085
cpu0->cpu0_DTLB RFO          ACCESS:          0 HIT:          0 MISS:          0 MSHR_MERGE:          0
cpu0->cpu0_DTLB PREFETCH     ACCESS:          0 HIT:          0 MISS:          0 MSHR_MERGE:          0
cpu0->cpu0_DTLB WRITE        ACCESS:          0 HIT:          0 MISS:          0 MSHR_MERGE:          0
cpu0->cpu0_DTLB TRANSLATION  ACCESS:          0 HIT:          0 MISS:          0 MSHR_MERGE:          0
cpu0->cpu0_DTLB PREFETCH REQUESTED:          0 ISSUED:          0 USEFUL:          0 USELESS:          0 LATE:          0
cpu0->cpu0_DTLB AVERAGE MISS LATENCY: 40.8 cycles
cpu0->LLC TOTAL        ACCESS:    2063469 HIT:     636933 MISS:    1426536 MSHR_MERGE:        342
cpu0->LLC LOAD         ACCESS:    1120083 HIT:     484647 MISS:     635436 MSHR_MERGE:         81
cpu0->LLC RFO          ACCESS:      12875 HIT:       4236 MISS:       8639 MSHR_MERGE:          0
cpu0->LLC PREFETCH     ACCESS:     845088 HIT:     106486 MISS:     738602 MSHR_MERGE:        261
cpu0->LLC WRITE        ACCESS:      22358 HIT:      14227 MISS:       8131 MSHR_MERGE:          0
cpu0->LLC TRANSLATION  ACCESS:      63065 HIT:      27337 MISS:      35728 MSHR_MERGE:          0
cpu0->LLC PREFETCH REQUESTED:          0 ISSUED:          0 USEFUL:          0 USELESS:          0 LATE:          0
cpu0->LLC AVERAGE MISS LATENCY: 214.6 cycles

DRAM Statistics

Channel 0 RQ ROW_BUFFER_HIT:      27355
  ROW_BUFFER_MISS:    1390551
  AVG DBUS CONGESTED CYCLE: 4.562
Channel 0 WQ ROW_BUFFER_HIT:       4173
  ROW_BUFFER_MISS:       7172
  FULL:          0
Channel 0 REFRESHES ISSUED:       6629

[ROI Statistics]
[System Configuration]
num_cpus 1
cpu_freq 4000
fetch_width 6
decode_width 6
dispatch_width 6
execute_width 6
lq_width 2
sq_width 2
retire_width 6
scheduler_size 128
branch_mispredict_penalty 15
rob_size 352
lq_size 128
sq_size 72
ifetch_buffer_size 64
decode_buffer_size 32
dispatch_buffer_size 32
register_file_size 288
decode_latency 1
dispatch_latency 1
schedule_latency 1
execute_latency 1
page_size 4096
block_size 64
core_0_itlb_set 16
core_0_itlb_way 4
core_0_itlb_rq_size 16
core_0_itlb_wq_size 16
core_0_itlb_pq_size 0
core_0_itlb_mshr_size 8
core_0_itlb_hit_latency 1
core_0_itlb_fill_latency 1
core_0_itlb_max_tag_check 2
core_0_itlb_max_fill 2
core_0_dtlb_set 16
core_0_dtlb_way 4
core_0_dtlb_rq_size 16
core_0_dtlb_wq_size 16
core_0_dtlb_pq_size 0
core_0_dtlb_mshr_size 8
core_0_dtlb_hit_latency 1
core_0_dtlb_fill_latency 1
core_0_dtlb_max_tag_check 2
core_0_dtlb_max_fill 2
core_0_stlb_set 128
core_0_stlb_way 12
core_0_stlb_rq_size 32
core_0_stlb_wq_size 32
core_0_stlb_pq_size 0
core_0_stlb_mshr_size 16
core_0_stlb_hit_latency 4
core_0_stlb_fill_latency 4
core_0_stlb_max_tag_check 1
core_0_stlb_max_fill 1
core_0_l1i_set 64
core_0_l1i_way 8
core_0_l1i_rq_size 64
core_0_l1i_wq_size 64
core_0_l1i_pq_size 32
core_0_l1i_mshr_size 8
core_0_l1i_hit_latency 2
core_0_l1i_fill_latency 2
core_0_l1i_max_tag_check 2
core_0_l1i_max_fill 2
core_0_l1d_set 64
core_0_l1d_way 12
core_0_l1d_rq_size 64
core_0_l1d_wq_size 64
core_0_l1d_pq_size 8
core_0_l1d_mshr_size 16
core_0_l1d_hit_latency 2
core_0_l1d_fill_latency 3
core_0_l1d_max_tag_check 2
core_0_l1d_max_fill 2
core_0_l2c_set 1024
core_0_l2c_way 8
core_0_l2c_rq_size 32
core_0_l2c_wq_size 32
core_0_l2c_pq_size 16
core_0_l2c_mshr_size 32
core_0_l2c_hit_latency 5
core_0_l2c_fill_latency 5
core_0_l2c_max_tag_check 1
core_0_l2c_max_fill 1
llc_set 2048
llc_way 16
llc_rq_size 32
llc_wq_size 32
llc_pq_size 32
llc_mshr_size 64
llc_hit_latency 10
llc_fill_latency 10
llc_max_tag_check 1
llc_max_fill 1
dram_channels 1
dram_ranks 1
dram_bankgroups 8
dram_banks 4
dram_rows 65536
dram_columns 1024
dram_channel_width 8
dram_rq_size 64
dram_wq_size 64
dram_size 17179869184
core_0_itlb_prefetcher no
core_0_dtlb_prefetcher no
core_0_stlb_prefetcher no
core_0_l1i_prefetcher next_line
core_0_l1d_prefetcher berti
core_0_l2c_prefetcher ip_stride
llc_prefetcher no
llc_replacement drrip

Core_0_instructions 50000005
Core_0_cycles 79544986
Core_0_IPC 0.628575
Core_0_branch_prediction_accuracy 99.3209
Core_0_branch_MPKI 1.76126
Core_0_average_ROB_occupancy_at_mispredict 95.1598

Core_0_ITLB_total_access 6890616
Core_0_ITLB_total_hit 6811967
Core_0_ITLB_total_miss 78649
Core_0_ITLB_total_MPKI 1.57298
Core_0_ITLB_total_miss_rate 0.0114139
Core_0_ITLB_demand_access 6890616
Core_0_ITLB_demand_hit 6811967
Core_0_ITLB_demand_miss 78649
Core_0_ITLB_demand_MPKI 1.57298
Core_0_ITLB_demand_miss_rate 0.0114139
Core_0_ITLB_load_access 6890616
Core_0_ITLB_load_hit 6811967
Core_0_ITLB_load_miss 78649
Core_0_ITLB_load_MPKI 1.57298
Core_0_ITLB_load_miss_rate 0.0114139
Core_0_ITLB_rfo_access 0
Core_0_ITLB_rfo_hit 0
Core_0_ITLB_rfo_miss 0
Core_0_ITLB_rfo_MPKI 0
Core_0_ITLB_rfo_miss_rate 0
Core_0_ITLB_prefetch_access 0
Core_0_ITLB_prefetch_hit 0
Core_0_ITLB_prefetch_miss 0
Core_0_ITLB_prefetch_MPKI 0
Core_0_ITLB_prefetch_miss_rate 0
Core_0_ITLB_writeback_access 0
Core_0_ITLB_writeback_hit 0
Core_0_ITLB_writeback_miss 0
Core_0_ITLB_writeback_MPKI 0
Core_0_ITLB_writeback_miss_rate 0
Core_0_ITLB_prefetch_requested 0
Core_0_ITLB_prefetch_issued 0
Core_0_ITLB_prefetch_useful 0
Core_0_ITLB_prefetch_useless 0
Core_0_ITLB_prefetch_late 0
Core_0_ITLB_prefetch_accuracy 0
Core_0_ITLB_prefetch_coverage 0

Core_0_DTLB_total_access 13355276
Core_0_DTLB_total_hit 12562928
Core_0_DTLB_total_miss 792348
Core_0_DTLB_total_MPKI 15.847
Core_0_DTLB_total_miss_rate 0.0593285
Core_0_DTLB_demand_access 13355276
Core_0_DTLB_demand_hit 12562928
Core_0_DTLB_demand_miss 792348
Core_0_DTLB_demand_MPKI 15.847
Core_0_DTLB_demand_miss_rate 0.0593285
Core_0_DTLB_load_access 13355276
Core_0_DTLB_load_hit 12562928
Core_0_DTLB_load_miss 792348
Core_0_DTLB_load_MPKI 15.847
Core_0_DTLB_load_miss_rate 0.0593285
Core_0_DTLB_rfo_access 0
Core_0_DTLB_rfo_hit 0
Core_0_DTLB_rfo_miss 0
Core_0_DTLB_rfo_MPKI 0
Core_0_DTLB_rfo_miss_rate 0
Core_0_DTLB_prefetch_access 0
Core_0_DTLB_prefetch_hit 0
Core_0_DTLB_prefetch_miss 0
Core_0_DTLB_prefetch_MPKI 0
Core_0_DTLB_prefetch_miss_rate 0
Core_0_DTLB_writeback_access 0
Core_0_DTLB_writeback_hit 0
Core_0_DTLB_writeback_miss 0
Core_0_DTLB_writeback_MPKI 0
Core_0_DTLB_writeback_miss_rate 0
Core_0_DTLB_prefetch_requested 0
Core_0_DTLB_prefetch_issued 0
Core_0_DTLB_prefetch_useful 0
Core_0_DTLB_prefetch_useless 0
Core_0_DTLB_prefetch_late 0
Core_0_DTLB_prefetch_accuracy 0
Core_0_DTLB_prefetch_coverage 0

Core_0_STLB_total_access 401949
Core_0_STLB_total_hit 154414
Core_0_STLB_total_miss 247535
Core_0_STLB_total_MPKI 4.9507
Core_0_STLB_total_miss_rate 0.615837
Core_0_STLB_demand_access 401949
Core_0_STLB_demand_hit 154414
Core_0_STLB_demand_miss 247535
Core_0_STLB_demand_MPKI 4.9507
Core_0_STLB_demand_miss_rate 0.615837
Core_0_STLB_load_access 401949
Core_0_STLB_load_hit 154414
Core_0_STLB_load_miss 247535
Core_0_STLB_load_MPKI 4.9507
Core_0_STLB_load_miss_rate 0.615837
Core_0_STLB_rfo_access 0
Core_0_STLB_rfo_hit 0
Core_0_STLB_rfo_miss 0
Core_0_STLB_rfo_MPKI 0
Core_0_STLB_rfo_miss_rate 0
Core_0_STLB_prefetch_access 0
Core_0_STLB_prefetch_hit 0
Core_0_STLB_prefetch_miss 0
Core_0_STLB_prefetch_MPKI 0
Core_0_STLB_prefetch_miss_rate 0
Core_0_STLB_writeback_access 0
Core_0_STLB_writeback_hit 0
Core_0_STLB_writeback_miss 0
Core_0_STLB_writeback_MPKI 0
Core_0_STLB_writeback_miss_rate 0
Core_0_STLB_prefetch_requested 0
Core_0_STLB_prefetch_issued 0
Core_0_STLB_prefetch_useful 0
Core_0_STLB_prefetch_useless 0
Core_0_STLB_prefetch_late 0
Core_0_STLB_prefetch_accuracy 0
Core_0_STLB_prefetch_coverage 0

Core_0_L1I_total_access 7609696
Core_0_L1I_total_hit 7352457
Core_0_L1I_total_miss 257239
Core_0_L1I_total_MPKI 5.14478
Core_0_L1I_total_miss_rate 0.0338041
Core_0_L1I_demand_access 7609696
Core_0_L1I_demand_hit 7352457
Core_0_L1I_demand_miss 257239
Core_0_L1I_demand_MPKI 5.14478
Core_0_L1I_demand_miss_rate 0.0338041
Core_0_L1I_load_access 7609696
Core_0_L1I_load_hit 7352457
Core_0_L1I_load_miss 257239
Core_0_L1I_load_MPKI 5.14478
Core_0_L1I_load_miss_rate 0.0338041
Core_0_L1I_rfo_access 0
Core_0_L1I_rfo_hit 0
Core_0_L1I_rfo_miss 0
Core_0_L1I_rfo_MPKI 0
Core_0_L1I_rfo_miss_rate 0
Core_0_L1I_prefetch_access 0
Core_0_L1I_prefetch_hit 0
Core_0_L1I_prefetch_miss 0
Core_0_L1I_prefetch_MPKI 0
Core_0_L1I_prefetch_miss_rate 0
Core_0_L1I_writeback_access 0
Core_0_L1I_writeback_hit 0
Core_0_L1I_writeback_miss 0
Core_0_L1I_writeback_MPKI 0
Core_0_L1I_writeback_miss_rate 0
Core_0_L1I_prefetch_requested 0
Core_0_L1I_prefetch_issued 0
Core_0_L1I_prefetch_useful 0
Core_0_L1I_prefetch_useless 0
Core_0_L1I_prefetch_late 0
Core_0_L1I_prefetch_accuracy 0
Core_0_L1I_prefetch_coverage 0

Core_0_L1D_total_access 13951419
Core_0_L1D_total_hit 10537817
Core_0_L1D_total_miss 3413602
Core_0_L1D_total_MPKI 68.272
Core_0_L1D_total_miss_rate 0.244678
Core_0_L1D_demand_access 10455445
Core_0_L1D_demand_hit 8082283
Core_0_L1D_demand_miss 2373162
Core_0_L1D_demand_MPKI 47.4632
Core_0_L1D_demand_miss_rate 0.226979
Core_0_L1D_load_access 10455445
Core_0_L1D_load_hit 8082283
Core_0_L1D_load_miss 2373162
Core_0_L1D_load_MPKI 47.4632
Core_0_L1D_load_miss_rate 0.226979
Core_0_L1D_rfo_access 0
Core_0_L1D_rfo_hit 0
Core_0_L1D_rfo_miss 0
Core_0_L1D_rfo_MPKI 0
Core_0_L1D_rfo_miss_rate 0
Core_0_L1D_prefetch_access 1098642
Core_0_L1D_prefetch_hit 187992
Core_0_L1D_prefetch_miss 910650
Core_0_L1D_prefetch_MPKI 18.213
Core_0_L1D_prefetch_miss_rate 0.828887
Core_0_L1D_writeback_access 2397332
Core_0_L1D_writeback_hit 2267542
Core_0_L1D_writeback_miss 129790
Core_0_L1D_writeback_MPKI 2.5958
Core_0_L1D_writeback_miss_rate 0.0541394
Core_0_L1D_prefetch_requested 1102727
Core_0_L1D_prefetch_issued 1098644
Core_0_L1D_prefetch_useful 182330
Core_0_L1D_prefetch_useless 692476
Core_0_L1D_prefetch_late 35806
Core_0_L1D_prefetch_accuracy 0.165959
Core_0_L1D_prefetch_coverage 0.0713483

Core_0_L2C_total_access 2361343
Core_0_L2C_total_hit 367275
Core_0_L2C_total_miss 1994068
Core_0_L2C_total_MPKI 39.8814
Core_0_L2C_total_miss_rate 0.844464
Core_0_L2C_demand_access 1368857
Core_0_L2C_demand_hit 235341
Core_0_L2C_demand_miss 1133516
Core_0_L2C_demand_MPKI 22.6703
Core_0_L2C_demand_miss_rate 0.828075
Core_0_L2C_load_access 1347659
Core_0_L2C_load_hit 227018
Core_0_L2C_load_miss 1120641
Core_0_L2C_load_MPKI 22.4128
Core_0_L2C_load_miss_rate 0.831546
Core_0_L2C_rfo_access 21198
Core_0_L2C_rfo_hit 8323
Core_0_L2C_rfo_miss 12875
Core_0_L2C_rfo_MPKI 0.2575
Core_0_L2C_rfo_miss_rate 0.607369
Core_0_L2C_prefetch_access 949076
Core_0_L2C_prefetch_hit 88721
Core_0_L2C_prefetch_miss 860355
Core_0_L2C_prefetch_MPKI 17.2071
Core_0_L2C_prefetch_miss_rate 0.906519
Core_0_L2C_writeback_access 43410
Core_0_L2C_writeback_hit 43213
Core_0_L2C_writeback_miss 197
Core_0_L2C_writeback_MPKI 0.00394
Core_0_L2C_writeback_miss_rate 0.00453812
Core_0_L2C_prefetch_requested 74115
Core_0_L2C_prefetch_issued 74114
Core_0_L2C_prefetch_useful 18368
Core_0_L2C_prefetch_useless 26582
Core_0_L2C_prefetch_late 558
Core_0_L2C_prefetch_accuracy 0.247834
Core_0_L2C_prefetch_coverage 0.0159461

Core_0_LLC_total_access 2000404
Core_0_LLC_total_hit 609596
Core_0_LLC_total_miss 1390808
Core_0_LLC_total_MPKI 27.8162
Core_0_LLC_total_miss_rate 0.695264
Core_0_LLC_demand_access 1132958
Core_0_LLC_demand_hit 488883
Core_0_LLC_demand_miss 644075
Core_0_LLC_demand_MPKI 12.8815
Core_0_LLC_demand_miss_rate 0.56849
Core_0_LLC_load_access 1120083
Core_0_LLC_load_hit 484647
Core_0_LLC_load_miss 635436
Core_0_LLC_load_MPKI 12.7087
Core_0_LLC_load_miss_rate 0.567312
Core_0_LLC_rfo_access 12875
Core_0_LLC_rfo_hit 4236
Core_0_LLC_rfo_miss 8639
Core_0_LLC_rfo_MPKI 0.17278
Core_0_LLC_rfo_miss_rate 0.67099
Core_0_LLC_prefetch_access 845088
Core_0_LLC_prefetch_hit 106486
Core_0_LLC_prefetch_miss 738602
Core_0_LLC_prefetch_MPKI 14.772
Core_0_LLC_prefetch_miss_rate 0.873994
Core_0_LLC_writeback_access 22358
Core_0_LLC_writeback_hit 14227
Core_0_LLC_writeback_miss 8131
Core_0_LLC_writeback_MPKI 0.16262
Core_0_LLC_writeback_miss_rate 0.363673
Core_0_LLC_prefetch_requested 0
Core_0_LLC_prefetch_issued 0
Core_0_LLC_prefetch_useful 0
Core_0_LLC_prefetch_useless 0
Core_0_LLC_prefetch_late 0
Core_0_LLC_prefetch_accuracy 0
Core_0_LLC_prefetch_coverage 0

[DRAM Statistics]
Channel_0_RQ_row_buffer_hit 27355
Channel_0_RQ_row_buffer_miss 1390551
Channel_0_WQ_row_buffer_hit 4173
Channel_0_WQ_row_buffer_miss 7172
Channel_0_WQ_full 0
Channel_0_dbus_congested 2140212
DRAM_total_RQ_row_buffer_hit 27355
DRAM_total_RQ_row_buffer_miss 1390551
DRAM_total_WQ_row_buffer_hit 4173
DRAM_total_WQ_row_buffer_miss 7172
DRAM_total_WQ_full 0
DRAM_total_dbus_congested 2140212
DRAM_avg_congested_cycle 4.56196

======STLB miss causes ========
Core_0_STLB_miss_cause_breakdown
Core_0_STLB_cause_Demand_Data_miss 244946
Core_0_STLB_cause_Demand_Data_miss_rate 0.609396
Core_0_STLB_cause_Demand_Instruction_miss 2589
Core_0_STLB_cause_Demand_Instruction_miss_rate 0.00644112
Core_0_STLB_cause_L1D_Prefetch_miss 0
Core_0_STLB_cause_L1D_Prefetch_miss_rate 0
Core_0_STLB_cause_L1I_Prefetch_miss 0
Core_0_STLB_cause_L1I_Prefetch_miss_rate 0
Core_0_STLB_cause_Other_miss 0
Core_0_STLB_cause_Other_miss_rate 0
Core_0_STLB_Demand_miss 247535
Core_0_STLB_Demand_miss_rate 0.615837
Core_0_STLB_L1D_Prefetch_miss 0
Core_0_STLB_L1D_Prefetch_miss_rate 0
Core_0_STLB_Other_miss 0
Core_0_STLB_Other_miss_rate 0
