[VMEM] WARNING: physical memory size is smaller than virtual memory size.

*** ChampSim Multicore Out-of-Order Simulator ***
Warmup Instructions: 50000000
Simulation Instructions: 100000000
Number of CPUs: 1
Page size: 4096
Core 0: /data0/tzh/champsim_traces/SPEC17/649.fotonik3d_s-10881B.champsimtrace.xz
VBerti Prefetcher
BERTI HASH ENTANGLING
BERTI IP MASK ffff
Off-chip DRAM Size: 16 GiB Channels: 1 Width: 64-bit Data Rate: 3205 MT/s
Warmup halting CPU 0 at instruction 50000003 cycle 19220489 for remainder of phase
Warmup finished CPU 0 instructions: 50000003 cycles: 19220489 cumulative IPC: 2.601 (Simulation time: 00 hr 04 min 07 sec)
Warmup complete CPU 0 instructions: 50000003 cycles: 19220489 cumulative IPC: 2.601 (Simulation time: 00 hr 04 min 07 sec)
Simulation finished CPU 0 instructions: 100000005 cycles: 85803110 cumulative IPC: 1.165 (Simulation time: 00 hr 18 min 38 sec)
Simulation complete CPU 0 instructions: 100000005 cycles: 85803110 cumulative IPC: 1.165 (Simulation time: 00 hr 18 min 38 sec)

ChampSim completed all CPUs

=== Simulation ===
CPU 0 runs /data0/tzh/champsim_traces/SPEC17/649.fotonik3d_s-10881B.champsimtrace.xz

Region of Interest Statistics

CPU 0 cumulative IPC: 1.165 instructions: 100000005 cycles: 85803110
CPU 0 Branch Prediction Accuracy: 99.99% MPKI: 0.00083 Average ROB Occupancy at Mispredict: 349.2
Branch type MPKI
BRANCH_DIRECT_JUMP: 0
BRANCH_INDIRECT: 0
BRANCH_CONDITIONAL: 0.00083
BRANCH_DIRECT_CALL: 0
BRANCH_INDIRECT_CALL: 0
BRANCH_RETURN: 0

cpu0->cpu0_STLB TOTAL        ACCESS:     727798 HIT:     388284 MISS:     339514 MSHR_MERGE:          0
cpu0->cpu0_STLB LOAD         ACCESS:     727798 HIT:     388284 MISS:     339514 MSHR_MERGE:          0
cpu0->cpu0_STLB RFO          ACCESS:          0 HIT:          0 MISS:          0 MSHR_MERGE:          0
cpu0->cpu0_STLB PREFETCH     ACCESS:          0 HIT:          0 MISS:          0 MSHR_MERGE:          0
cpu0->cpu0_STLB WRITE        ACCESS:          0 HIT:          0 MISS:          0 MSHR_MERGE:          0
cpu0->cpu0_STLB TRANSLATION  ACCESS:          0 HIT:          0 MISS:          0 MSHR_MERGE:          0
cpu0->cpu0_STLB PREFETCH REQUESTED:          0 ISSUED:          0 USEFUL:          0 USELESS:          0 LATE:          0
cpu0->cpu0_STLB AVERAGE MISS LATENCY: 239.8 cycles
cpu0->cpu0_L2C TOTAL        ACCESS:    5727311 HIT:    2583792 MISS:    3143519 MSHR_MERGE:     570979
cpu0->cpu0_L2C LOAD         ACCESS:     310811 HIT:     202618 MISS:     108193 MSHR_MERGE:       9506
cpu0->cpu0_L2C RFO          ACCESS:          0 HIT:          0 MISS:          0 MSHR_MERGE:          0
cpu0->cpu0_L2C PREFETCH     ACCESS:    4395992 HIT:    1403912 MISS:    2992080 MSHR_MERGE:     561473
cpu0->cpu0_L2C WRITE        ACCESS:     971489 HIT:     971487 MISS:          2 MSHR_MERGE:          0
cpu0->cpu0_L2C TRANSLATION  ACCESS:      49019 HIT:       5775 MISS:      43244 MSHR_MERGE:          0
cpu0->cpu0_L2C PREFETCH REQUESTED:     205871 ISSUED:     205871 USEFUL:      77262 USELESS:      24889 LATE:          1
cpu0->cpu0_L2C AVERAGE MISS LATENCY: 389.3 cycles
cpu0->cpu0_L1I TOTAL        ACCESS:   20933068 HIT:   20933068 MISS:          0 MSHR_MERGE:          0
cpu0->cpu0_L1I LOAD         ACCESS:   20933068 HIT:   20933068 MISS:          0 MSHR_MERGE:          0
cpu0->cpu0_L1I RFO          ACCESS:          0 HIT:          0 MISS:          0 MSHR_MERGE:          0
cpu0->cpu0_L1I PREFETCH     ACCESS:          0 HIT:          0 MISS:          0 MSHR_MERGE:          0
cpu0->cpu0_L1I WRITE        ACCESS:          0 HIT:          0 MISS:          0 MSHR_MERGE:          0
cpu0->cpu0_L1I TRANSLATION  ACCESS:          0 HIT:          0 MISS:          0 MSHR_MERGE:          0
cpu0->cpu0_L1I PREFETCH REQUESTED:          0 ISSUED:          0 USEFUL:          0 USELESS:          0 LATE:          0
cpu0->cpu0_L1I AVERAGE MISS LATENCY: - cycles
cpu0->cpu0_L1D TOTAL        ACCESS:   47854228 HIT:   43035673 MISS:    4818555 MSHR_MERGE:     213707
cpu0->cpu0_L1D LOAD         ACCESS:   31743436 HIT:   31249166 MISS:     494270 MSHR_MERGE:     183459
cpu0->cpu0_L1D RFO          ACCESS:          0 HIT:          0 MISS:          0 MSHR_MERGE:          0
cpu0->cpu0_L1D PREFETCH     ACCESS:    9032416 HIT:    4761541 MISS:    4270875 MSHR_MERGE:      25857
cpu0->cpu0_L1D WRITE        ACCESS:    6411306 HIT:    6411306 MISS:          0 MSHR_MERGE:          0
cpu0->cpu0_L1D TRANSLATION  ACCESS:     667070 HIT:     613660 MISS:      53410 MSHR_MERGE:       4391
cpu0->cpu0_L1D PREFETCH REQUESTED:   55950062 ISSUED:    9032414 USEFUL:    1613208 USELESS:     264070 LATE:      62595
cpu0->cpu0_L1D AVERAGE MISS LATENCY: 190 cycles
cpu0->cpu0_ITLB TOTAL        ACCESS:   16288051 HIT:   16288051 MISS:          0 MSHR_MERGE:          0
cpu0->cpu0_ITLB LOAD         ACCESS:   16288051 HIT:   16288051 MISS:          0 MSHR_MERGE:          0
cpu0->cpu0_ITLB RFO          ACCESS:          0 HIT:          0 MISS:          0 MSHR_MERGE:          0
cpu0->cpu0_ITLB PREFETCH     ACCESS:          0 HIT:          0 MISS:          0 MSHR_MERGE:          0
cpu0->cpu0_ITLB WRITE        ACCESS:          0 HIT:          0 MISS:          0 MSHR_MERGE:          0
cpu0->cpu0_ITLB TRANSLATION  ACCESS:          0 HIT:          0 MISS:          0 MSHR_MERGE:          0
cpu0->cpu0_ITLB PREFETCH REQUESTED:          0 ISSUED:          0 USEFUL:          0 USELESS:          0 LATE:          0
cpu0->cpu0_ITLB AVERAGE MISS LATENCY: - cycles
cpu0->cpu0_DTLB TOTAL        ACCESS:   45880449 HIT:   44720020 MISS:    1160429 MSHR_MERGE:     432631
cpu0->cpu0_DTLB LOAD         ACCESS:   45880449 HIT:   44720020 MISS:    1160429 MSHR_MERGE:     432631
cpu0->cpu0_DTLB RFO          ACCESS:          0 HIT:          0 MISS:          0 MSHR_MERGE:          0
cpu0->cpu0_DTLB PREFETCH     ACCESS:          0 HIT:          0 MISS:          0 MSHR_MERGE:          0
cpu0->cpu0_DTLB WRITE        ACCESS:          0 HIT:          0 MISS:          0 MSHR_MERGE:          0
cpu0->cpu0_DTLB TRANSLATION  ACCESS:          0 HIT:          0 MISS:          0 MSHR_MERGE:          0
cpu0->cpu0_DTLB PREFETCH REQUESTED:          0 ISSUED:          0 USEFUL:          0 USELESS:          0 LATE:          0
cpu0->cpu0_DTLB AVERAGE MISS LATENCY: 117.3 cycles
cpu0->LLC TOTAL        ACCESS:    3544213 HIT:    1048734 MISS:    2495479 MSHR_MERGE:       3737
cpu0->LLC LOAD         ACCESS:      98687 HIT:       8717 MISS:      89970 MSHR_MERGE:          0
cpu0->LLC RFO          ACCESS:          0 HIT:          0 MISS:          0 MSHR_MERGE:          0
cpu0->LLC PREFETCH     ACCESS:    2430603 HIT:     180747 MISS:    2249856 MSHR_MERGE:       3737
cpu0->LLC WRITE        ACCESS:     971679 HIT:     855556 MISS:     116123 MSHR_MERGE:          0
cpu0->LLC TRANSLATION  ACCESS:      43244 HIT:       3714 MISS:      39530 MSHR_MERGE:          0
cpu0->LLC PREFETCH REQUESTED:          0 ISSUED:          0 USEFUL:          0 USELESS:          0 LATE:          0
cpu0->LLC AVERAGE MISS LATENCY: 222.4 cycles

DRAM Statistics

Channel 0 RQ ROW_BUFFER_HIT:     287154
  ROW_BUFFER_MISS:    2088463
  AVG DBUS CONGESTED CYCLE: 7.077
Channel 0 WQ ROW_BUFFER_HIT:     109341
  ROW_BUFFER_MISS:     863117
  FULL:          0
Channel 0 REFRESHES ISSUED:       7150

[ROI Statistics]
[System Configuration]
num_cpus 1
cpu_freq 4000
fetch_width 6
decode_width 6
dispatch_width 6
execute_width 6
lq_width 2
sq_width 2
retire_width 6
scheduler_size 128
branch_mispredict_penalty 15
rob_size 352
lq_size 128
sq_size 72
ifetch_buffer_size 64
decode_buffer_size 32
dispatch_buffer_size 32
register_file_size 288
decode_latency 1
dispatch_latency 1
schedule_latency 1
execute_latency 1
page_size 4096
block_size 64
core_0_itlb_set 16
core_0_itlb_way 4
core_0_itlb_rq_size 16
core_0_itlb_wq_size 16
core_0_itlb_pq_size 0
core_0_itlb_mshr_size 8
core_0_itlb_hit_latency 1
core_0_itlb_fill_latency 1
core_0_itlb_max_tag_check 2
core_0_itlb_max_fill 2
core_0_dtlb_set 16
core_0_dtlb_way 4
core_0_dtlb_rq_size 16
core_0_dtlb_wq_size 16
core_0_dtlb_pq_size 0
core_0_dtlb_mshr_size 8
core_0_dtlb_hit_latency 1
core_0_dtlb_fill_latency 1
core_0_dtlb_max_tag_check 2
core_0_dtlb_max_fill 2
core_0_stlb_set 128
core_0_stlb_way 12
core_0_stlb_rq_size 32
core_0_stlb_wq_size 32
core_0_stlb_pq_size 0
core_0_stlb_mshr_size 16
core_0_stlb_hit_latency 4
core_0_stlb_fill_latency 4
core_0_stlb_max_tag_check 1
core_0_stlb_max_fill 1
core_0_l1i_set 64
core_0_l1i_way 8
core_0_l1i_rq_size 64
core_0_l1i_wq_size 64
core_0_l1i_pq_size 32
core_0_l1i_mshr_size 8
core_0_l1i_hit_latency 2
core_0_l1i_fill_latency 2
core_0_l1i_max_tag_check 2
core_0_l1i_max_fill 2
core_0_l1d_set 64
core_0_l1d_way 12
core_0_l1d_rq_size 64
core_0_l1d_wq_size 64
core_0_l1d_pq_size 8
core_0_l1d_mshr_size 16
core_0_l1d_hit_latency 2
core_0_l1d_fill_latency 3
core_0_l1d_max_tag_check 2
core_0_l1d_max_fill 2
core_0_l2c_set 1024
core_0_l2c_way 8
core_0_l2c_rq_size 32
core_0_l2c_wq_size 32
core_0_l2c_pq_size 16
core_0_l2c_mshr_size 32
core_0_l2c_hit_latency 5
core_0_l2c_fill_latency 5
core_0_l2c_max_tag_check 1
core_0_l2c_max_fill 1
llc_set 2048
llc_way 16
llc_rq_size 32
llc_wq_size 32
llc_pq_size 32
llc_mshr_size 64
llc_hit_latency 10
llc_fill_latency 10
llc_max_tag_check 1
llc_max_fill 1
dram_channels 1
dram_ranks 1
dram_bankgroups 8
dram_banks 4
dram_rows 65536
dram_columns 1024
dram_channel_width 8
dram_rq_size 64
dram_wq_size 64
dram_size 17179869184
core_0_itlb_prefetcher no
core_0_dtlb_prefetcher no
core_0_stlb_prefetcher no
core_0_l1i_prefetcher next_line
core_0_l1d_prefetcher vberti
core_0_l2c_prefetcher ip_stride
llc_prefetcher no
llc_replacement drrip

Core_0_instructions 100000005
Core_0_cycles 85803110
Core_0_IPC 1.16546
Core_0_branch_prediction_accuracy 99.9931
Core_0_branch_MPKI 0.00083
Core_0_average_ROB_occupancy_at_mispredict 349.169

Core_0_ITLB_total_access 16288051
Core_0_ITLB_total_hit 16288051
Core_0_ITLB_total_miss 0
Core_0_ITLB_total_MPKI 0
Core_0_ITLB_total_miss_rate 0
Core_0_ITLB_demand_access 16288051
Core_0_ITLB_demand_hit 16288051
Core_0_ITLB_demand_miss 0
Core_0_ITLB_demand_MPKI 0
Core_0_ITLB_demand_miss_rate 0
Core_0_ITLB_load_access 16288051
Core_0_ITLB_load_hit 16288051
Core_0_ITLB_load_miss 0
Core_0_ITLB_load_MPKI 0
Core_0_ITLB_load_miss_rate 0
Core_0_ITLB_rfo_access 0
Core_0_ITLB_rfo_hit 0
Core_0_ITLB_rfo_miss 0
Core_0_ITLB_rfo_MPKI 0
Core_0_ITLB_rfo_miss_rate 0
Core_0_ITLB_prefetch_access 0
Core_0_ITLB_prefetch_hit 0
Core_0_ITLB_prefetch_miss 0
Core_0_ITLB_prefetch_MPKI 0
Core_0_ITLB_prefetch_miss_rate 0
Core_0_ITLB_writeback_access 0
Core_0_ITLB_writeback_hit 0
Core_0_ITLB_writeback_miss 0
Core_0_ITLB_writeback_MPKI 0
Core_0_ITLB_writeback_miss_rate 0
Core_0_ITLB_prefetch_requested 0
Core_0_ITLB_prefetch_issued 0
Core_0_ITLB_prefetch_useful 0
Core_0_ITLB_prefetch_useless 0
Core_0_ITLB_prefetch_late 0
Core_0_ITLB_prefetch_accuracy 0
Core_0_ITLB_prefetch_coverage 0

Core_0_DTLB_total_access 45880449
Core_0_DTLB_total_hit 44720020
Core_0_DTLB_total_miss 1160429
Core_0_DTLB_total_MPKI 11.6043
Core_0_DTLB_total_miss_rate 0.0252925
Core_0_DTLB_demand_access 45880449
Core_0_DTLB_demand_hit 44720020
Core_0_DTLB_demand_miss 1160429
Core_0_DTLB_demand_MPKI 11.6043
Core_0_DTLB_demand_miss_rate 0.0252925
Core_0_DTLB_load_access 45880449
Core_0_DTLB_load_hit 44720020
Core_0_DTLB_load_miss 1160429
Core_0_DTLB_load_MPKI 11.6043
Core_0_DTLB_load_miss_rate 0.0252925
Core_0_DTLB_rfo_access 0
Core_0_DTLB_rfo_hit 0
Core_0_DTLB_rfo_miss 0
Core_0_DTLB_rfo_MPKI 0
Core_0_DTLB_rfo_miss_rate 0
Core_0_DTLB_prefetch_access 0
Core_0_DTLB_prefetch_hit 0
Core_0_DTLB_prefetch_miss 0
Core_0_DTLB_prefetch_MPKI 0
Core_0_DTLB_prefetch_miss_rate 0
Core_0_DTLB_writeback_access 0
Core_0_DTLB_writeback_hit 0
Core_0_DTLB_writeback_miss 0
Core_0_DTLB_writeback_MPKI 0
Core_0_DTLB_writeback_miss_rate 0
Core_0_DTLB_prefetch_requested 0
Core_0_DTLB_prefetch_issued 0
Core_0_DTLB_prefetch_useful 0
Core_0_DTLB_prefetch_useless 0
Core_0_DTLB_prefetch_late 0
Core_0_DTLB_prefetch_accuracy 0
Core_0_DTLB_prefetch_coverage 0

Core_0_STLB_total_access 727798
Core_0_STLB_total_hit 388284
Core_0_STLB_total_miss 339514
Core_0_STLB_total_MPKI 3.39514
Core_0_STLB_total_miss_rate 0.466495
Core_0_STLB_demand_access 727798
Core_0_STLB_demand_hit 388284
Core_0_STLB_demand_miss 339514
Core_0_STLB_demand_MPKI 3.39514
Core_0_STLB_demand_miss_rate 0.466495
Core_0_STLB_load_access 727798
Core_0_STLB_load_hit 388284
Core_0_STLB_load_miss 339514
Core_0_STLB_load_MPKI 3.39514
Core_0_STLB_load_miss_rate 0.466495
Core_0_STLB_rfo_access 0
Core_0_STLB_rfo_hit 0
Core_0_STLB_rfo_miss 0
Core_0_STLB_rfo_MPKI 0
Core_0_STLB_rfo_miss_rate 0
Core_0_STLB_prefetch_access 0
Core_0_STLB_prefetch_hit 0
Core_0_STLB_prefetch_miss 0
Core_0_STLB_prefetch_MPKI 0
Core_0_STLB_prefetch_miss_rate 0
Core_0_STLB_writeback_access 0
Core_0_STLB_writeback_hit 0
Core_0_STLB_writeback_miss 0
Core_0_STLB_writeback_MPKI 0
Core_0_STLB_writeback_miss_rate 0
Core_0_STLB_prefetch_requested 0
Core_0_STLB_prefetch_issued 0
Core_0_STLB_prefetch_useful 0
Core_0_STLB_prefetch_useless 0
Core_0_STLB_prefetch_late 0
Core_0_STLB_prefetch_accuracy 0
Core_0_STLB_prefetch_coverage 0

Core_0_L1I_total_access 20933068
Core_0_L1I_total_hit 20933068
Core_0_L1I_total_miss 0
Core_0_L1I_total_MPKI 0
Core_0_L1I_total_miss_rate 0
Core_0_L1I_demand_access 20933068
Core_0_L1I_demand_hit 20933068
Core_0_L1I_demand_miss 0
Core_0_L1I_demand_MPKI 0
Core_0_L1I_demand_miss_rate 0
Core_0_L1I_load_access 20933068
Core_0_L1I_load_hit 20933068
Core_0_L1I_load_miss 0
Core_0_L1I_load_MPKI 0
Core_0_L1I_load_miss_rate 0
Core_0_L1I_rfo_access 0
Core_0_L1I_rfo_hit 0
Core_0_L1I_rfo_miss 0
Core_0_L1I_rfo_MPKI 0
Core_0_L1I_rfo_miss_rate 0
Core_0_L1I_prefetch_access 0
Core_0_L1I_prefetch_hit 0
Core_0_L1I_prefetch_miss 0
Core_0_L1I_prefetch_MPKI 0
Core_0_L1I_prefetch_miss_rate 0
Core_0_L1I_writeback_access 0
Core_0_L1I_writeback_hit 0
Core_0_L1I_writeback_miss 0
Core_0_L1I_writeback_MPKI 0
Core_0_L1I_writeback_miss_rate 0
Core_0_L1I_prefetch_requested 0
Core_0_L1I_prefetch_issued 0
Core_0_L1I_prefetch_useful 0
Core_0_L1I_prefetch_useless 0
Core_0_L1I_prefetch_late 0
Core_0_L1I_prefetch_accuracy 0
Core_0_L1I_prefetch_coverage 0

Core_0_L1D_total_access 47187158
Core_0_L1D_total_hit 42422013
Core_0_L1D_total_miss 4765145
Core_0_L1D_total_MPKI 47.6514
Core_0_L1D_total_miss_rate 0.100984
Core_0_L1D_demand_access 31743436
Core_0_L1D_demand_hit 31249166
Core_0_L1D_demand_miss 494270
Core_0_L1D_demand_MPKI 4.9427
Core_0_L1D_demand_miss_rate 0.0155708
Core_0_L1D_load_access 31743436
Core_0_L1D_load_hit 31249166
Core_0_L1D_load_miss 494270
Core_0_L1D_load_MPKI 4.9427
Core_0_L1D_load_miss_rate 0.0155708
Core_0_L1D_rfo_access 0
Core_0_L1D_rfo_hit 0
Core_0_L1D_rfo_miss 0
Core_0_L1D_rfo_MPKI 0
Core_0_L1D_rfo_miss_rate 0
Core_0_L1D_prefetch_access 9032416
Core_0_L1D_prefetch_hit 4761541
Core_0_L1D_prefetch_miss 4270875
Core_0_L1D_prefetch_MPKI 42.7087
Core_0_L1D_prefetch_miss_rate 0.472839
Core_0_L1D_writeback_access 6411306
Core_0_L1D_writeback_hit 6411306
Core_0_L1D_writeback_miss 0
Core_0_L1D_writeback_MPKI 0
Core_0_L1D_writeback_miss_rate 0
Core_0_L1D_prefetch_requested 55950062
Core_0_L1D_prefetch_issued 9032414
Core_0_L1D_prefetch_useful 1613208
Core_0_L1D_prefetch_useless 264070
Core_0_L1D_prefetch_late 62595
Core_0_L1D_prefetch_accuracy 0.178602
Core_0_L1D_prefetch_coverage 0.765468

Core_0_L2C_total_access 5678292
Core_0_L2C_total_hit 2578017
Core_0_L2C_total_miss 3100275
Core_0_L2C_total_MPKI 31.0027
Core_0_L2C_total_miss_rate 0.545987
Core_0_L2C_demand_access 310811
Core_0_L2C_demand_hit 202618
Core_0_L2C_demand_miss 108193
Core_0_L2C_demand_MPKI 1.08193
Core_0_L2C_demand_miss_rate 0.348099
Core_0_L2C_load_access 310811
Core_0_L2C_load_hit 202618
Core_0_L2C_load_miss 108193
Core_0_L2C_load_MPKI 1.08193
Core_0_L2C_load_miss_rate 0.348099
Core_0_L2C_rfo_access 0
Core_0_L2C_rfo_hit 0
Core_0_L2C_rfo_miss 0
Core_0_L2C_rfo_MPKI 0
Core_0_L2C_rfo_miss_rate 0
Core_0_L2C_prefetch_access 4395992
Core_0_L2C_prefetch_hit 1403912
Core_0_L2C_prefetch_miss 2992080
Core_0_L2C_prefetch_MPKI 29.9208
Core_0_L2C_prefetch_miss_rate 0.680638
Core_0_L2C_writeback_access 971489
Core_0_L2C_writeback_hit 971487
Core_0_L2C_writeback_miss 2
Core_0_L2C_writeback_MPKI 2e-05
Core_0_L2C_writeback_miss_rate 2.0587e-06
Core_0_L2C_prefetch_requested 205871
Core_0_L2C_prefetch_issued 205871
Core_0_L2C_prefetch_useful 77262
Core_0_L2C_prefetch_useless 24889
Core_0_L2C_prefetch_late 1
Core_0_L2C_prefetch_accuracy 0.375293
Core_0_L2C_prefetch_coverage 0.416608

Core_0_LLC_total_access 3500969
Core_0_LLC_total_hit 1045020
Core_0_LLC_total_miss 2455949
Core_0_LLC_total_MPKI 24.5595
Core_0_LLC_total_miss_rate 0.701505
Core_0_LLC_demand_access 98687
Core_0_LLC_demand_hit 8717
Core_0_LLC_demand_miss 89970
Core_0_LLC_demand_MPKI 0.8997
Core_0_LLC_demand_miss_rate 0.91167
Core_0_LLC_load_access 98687
Core_0_LLC_load_hit 8717
Core_0_LLC_load_miss 89970
Core_0_LLC_load_MPKI 0.8997
Core_0_LLC_load_miss_rate 0.91167
Core_0_LLC_rfo_access 0
Core_0_LLC_rfo_hit 0
Core_0_LLC_rfo_miss 0
Core_0_LLC_rfo_MPKI 0
Core_0_LLC_rfo_miss_rate 0
Core_0_LLC_prefetch_access 2430603
Core_0_LLC_prefetch_hit 180747
Core_0_LLC_prefetch_miss 2249856
Core_0_LLC_prefetch_MPKI 22.4986
Core_0_LLC_prefetch_miss_rate 0.925637
Core_0_LLC_writeback_access 971679
Core_0_LLC_writeback_hit 855556
Core_0_LLC_writeback_miss 116123
Core_0_LLC_writeback_MPKI 1.16123
Core_0_LLC_writeback_miss_rate 0.119508
Core_0_LLC_prefetch_requested 0
Core_0_LLC_prefetch_issued 0
Core_0_LLC_prefetch_useful 0
Core_0_LLC_prefetch_useless 0
Core_0_LLC_prefetch_late 0
Core_0_LLC_prefetch_accuracy 0
Core_0_LLC_prefetch_coverage 0

[DRAM Statistics]
Channel_0_RQ_row_buffer_hit 287154
Channel_0_RQ_row_buffer_miss 2088463
Channel_0_WQ_row_buffer_hit 109341
Channel_0_WQ_row_buffer_miss 863117
Channel_0_WQ_full 0
Channel_0_dbus_congested 10117160
DRAM_total_RQ_row_buffer_hit 287154
DRAM_total_RQ_row_buffer_miss 2088463
DRAM_total_WQ_row_buffer_hit 109341
DRAM_total_WQ_row_buffer_miss 863117
DRAM_total_WQ_full 0
DRAM_total_dbus_congested 10117160
DRAM_avg_congested_cycle 7.07651

====== DRAM_RQ_TRAFFIC ========
DRAM_RQ_READ_TRAFFIC_BREAKDOWN:
data_demand_read.count = 89970
data_demand_read.share = 3.79%

inst_demand_read.count = 0
inst_demand_read.share = 0.00%

cache_inst_prefetch.count = 0
cache_inst_prefetch.share = 0.00%

cache_data_prefetch.count = 2246119
cache_data_prefetch.share = 94.55%

stlb_data_demand.count = 87
stlb_data_demand.share = 0.00%

stlb_inst_demand.count = 0
stlb_inst_demand.share = 0.00%

stlb_l1i_pref.count = 0
stlb_l1i_pref.share = 0.00%

stlb_l1d_pref.count = 39443
stlb_l1d_pref.share = 1.66%

DRAM_RQ_READ_TRAFFIC_SUMMARY:
cache_demand.count = 89970
cache_demand.share = 3.79%

cache_prefetch.count = 2246119
cache_prefetch.share = 94.55%

stlb_demand.count = 87
stlb_demand.share = 0.00%

stlb_prefetch.count = 39443
stlb_prefetch.share = 1.66%

DRAM_RQ_READ_TRAFFIC_DEBUG:
total_classified_read.count = 2375619
unclassified_read.count = 0
total_read_with_other.count = 2375619

classified_plus_unclassified_check.count = 2375619
dram_rq_read_total_observed.count = 2375619
dram_rq_read_total_observed.per_1K_instructions = 23.7562

STLB_MISS_PTW_DRAM_TOUCH_BREAKDOWN:
stlb_miss_total.count = 339514

stlb_miss_touch_dram.count = 39514
stlb_miss_touch_dram.share = 11.64%

stlb_miss_no_dram_touch.count = 300000
stlb_miss_no_dram_touch.share = 88.36%

STLB_MISS_PTW_DRAM_TOUCH_DEBUG:
stlb_miss_touch_plus_no_touch.count = 339514
stlb_miss_total_check.count = 339514

======STLB miss causes ========
Core_0_STLB_miss_cause_breakdown
Core_0_STLB_cause_Demand_Data_miss 1262
Core_0_STLB_cause_Demand_Data_miss_rate 0.001734
Core_0_STLB_cause_Demand_Instruction_miss 0
Core_0_STLB_cause_Demand_Instruction_miss_rate 0
Core_0_STLB_cause_L1D_Prefetch_miss 338252
Core_0_STLB_cause_L1D_Prefetch_miss_rate 0.464761
Core_0_STLB_cause_L1I_Prefetch_miss 0
Core_0_STLB_cause_L1I_Prefetch_miss_rate 0
Core_0_STLB_cause_Other_miss 0
Core_0_STLB_cause_Other_miss_rate 0
Core_0_STLB_Demand_miss 1262
Core_0_STLB_Demand_miss_rate 0.001734
Core_0_STLB_L1D_Prefetch_miss 338252
Core_0_STLB_L1D_Prefetch_miss_rate 0.464761
Core_0_STLB_Other_miss 0
Core_0_STLB_Other_miss_rate 0
BERTI TO_L1: 40078791 TO_L2: 41583076 TO_L2_BC_MSHR: 5224899
BERTI AVG_LAT: 277.286 NUM_TRACK_LATENCY: 3186728 NUM_CANT_TRACK_LATENCY: 1
BERTI CROSS_PAGE 49679004 NO_CROSS_PAGE: 31982863
BERTI FOUND_BERTI: 23766531 NO_FOUND_BERTI: 31103172
BERTI AVERAGE_ISSUED: 1.61977
