[VMEM] WARNING: physical memory size is smaller than virtual memory size.

*** ChampSim Multicore Out-of-Order Simulator ***
Warmup Instructions: 50000000
Simulation Instructions: 100000000
Number of CPUs: 1
Page size: 4096
Core 0: /data2/zcq/champsim_traces_gap/bfs.road-19B.champsimtrace.xz
VBerti Prefetcher
BERTI HASH ENTANGLING
BERTI IP MASK ffff
Off-chip DRAM Size: 16 GiB Channels: 1 Width: 64-bit Data Rate: 3205 MT/s
Warmup halting CPU 0 at instruction 50000000 cycle 16104976 for remainder of phase
Warmup finished CPU 0 instructions: 50000000 cycles: 16104976 cumulative IPC: 3.105 (Simulation time: 00 hr 03 min 06 sec)
Warmup complete CPU 0 instructions: 50000000 cycles: 16104976 cumulative IPC: 3.105 (Simulation time: 00 hr 03 min 06 sec)
Simulation finished CPU 0 instructions: 100000000 cycles: 424501879 cumulative IPC: 0.2356 (Simulation time: 00 hr 31 min 17 sec)
Simulation complete CPU 0 instructions: 100000000 cycles: 424501879 cumulative IPC: 0.2356 (Simulation time: 00 hr 31 min 17 sec)

ChampSim completed all CPUs

=== Simulation ===
CPU 0 runs /data2/zcq/champsim_traces_gap/bfs.road-19B.champsimtrace.xz

Region of Interest Statistics

CPU 0 cumulative IPC: 0.2356 instructions: 100000000 cycles: 424501879
CPU 0 Branch Prediction Accuracy: 86.76% MPKI: 23.03 Average ROB Occupancy at Mispredict: 20.54
Branch type MPKI
BRANCH_DIRECT_JUMP: 0.00789
BRANCH_INDIRECT: 0.01578
BRANCH_CONDITIONAL: 22.96
BRANCH_DIRECT_CALL: 0
BRANCH_INDIRECT_CALL: 0.00789
BRANCH_RETURN: 0.03156

cpu0->cpu0_STLB TOTAL        ACCESS:    1286871 HIT:    1057875 MISS:     228996 MSHR_MERGE:          0
cpu0->cpu0_STLB LOAD         ACCESS:    1286871 HIT:    1057875 MISS:     228996 MSHR_MERGE:          0
cpu0->cpu0_STLB RFO          ACCESS:          0 HIT:          0 MISS:          0 MSHR_MERGE:          0
cpu0->cpu0_STLB PREFETCH     ACCESS:          0 HIT:          0 MISS:          0 MSHR_MERGE:          0
cpu0->cpu0_STLB WRITE        ACCESS:          0 HIT:          0 MISS:          0 MSHR_MERGE:          0
cpu0->cpu0_STLB TRANSLATION  ACCESS:          0 HIT:          0 MISS:          0 MSHR_MERGE:          0
cpu0->cpu0_STLB PREFETCH REQUESTED:          0 ISSUED:          0 USEFUL:          0 USELESS:          0 LATE:          0
cpu0->cpu0_STLB AVERAGE MISS LATENCY: 40.89 cycles
cpu0->cpu0_L2C TOTAL        ACCESS:   11234369 HIT:    7539304 MISS:    3695065 MSHR_MERGE:     100637
cpu0->cpu0_L2C LOAD         ACCESS:    4955292 HIT:    1705853 MISS:    3249439 MSHR_MERGE:        460
cpu0->cpu0_L2C RFO          ACCESS:      22055 HIT:      13778 MISS:       8277 MSHR_MERGE:          0
cpu0->cpu0_L2C PREFETCH     ACCESS:    4591851 HIT:    4240652 MISS:     351199 MSHR_MERGE:     100177
cpu0->cpu0_L2C WRITE        ACCESS:    1492945 HIT:    1492940 MISS:          5 MSHR_MERGE:          0
cpu0->cpu0_L2C TRANSLATION  ACCESS:     172226 HIT:      86081 MISS:      86145 MSHR_MERGE:          0
cpu0->cpu0_L2C PREFETCH REQUESTED:    1025080 ISSUED:    1010616 USEFUL:     101842 USELESS:      27207 LATE:        150
cpu0->cpu0_L2C AVERAGE MISS LATENCY: 71.66 cycles
cpu0->cpu0_L1I TOTAL        ACCESS:    7389746 HIT:    7360403 MISS:      29343 MSHR_MERGE:       8829
cpu0->cpu0_L1I LOAD         ACCESS:    7389746 HIT:    7360403 MISS:      29343 MSHR_MERGE:       8829
cpu0->cpu0_L1I RFO          ACCESS:          0 HIT:          0 MISS:          0 MSHR_MERGE:          0
cpu0->cpu0_L1I PREFETCH     ACCESS:          0 HIT:          0 MISS:          0 MSHR_MERGE:          0
cpu0->cpu0_L1I WRITE        ACCESS:          0 HIT:          0 MISS:          0 MSHR_MERGE:          0
cpu0->cpu0_L1I TRANSLATION  ACCESS:          0 HIT:          0 MISS:          0 MSHR_MERGE:          0
cpu0->cpu0_L1I PREFETCH REQUESTED:          0 ISSUED:          0 USEFUL:          0 USELESS:          0 LATE:          0
cpu0->cpu0_L1I AVERAGE MISS LATENCY: 14.49 cycles
cpu0->cpu0_L1D TOTAL        ACCESS:   95643019 HIT:   86017631 MISS:    9625388 MSHR_MERGE:     911493
cpu0->cpu0_L1D LOAD         ACCESS:   31152103 HIT:   25337625 MISS:    5814478 MSHR_MERGE:     879701
cpu0->cpu0_L1D RFO          ACCESS:          0 HIT:          0 MISS:          0 MSHR_MERGE:          0
cpu0->cpu0_L1D PREFETCH     ACCESS:   53158780 HIT:   49557040 MISS:    3601740 MSHR_MERGE:      16903
cpu0->cpu0_L1D WRITE        ACCESS:   10832900 HIT:   10796420 MISS:      36480 MSHR_MERGE:      14425
cpu0->cpu0_L1D TRANSLATION  ACCESS:     499236 HIT:     326546 MISS:     172690 MSHR_MERGE:        464
cpu0->cpu0_L1D PREFETCH REQUESTED:  125852770 ISSUED:   53158773 USEFUL:     400928 USELESS:      17721 LATE:         84
cpu0->cpu0_L1D AVERAGE MISS LATENCY: 55.36 cycles
cpu0->cpu0_ITLB TOTAL        ACCESS:    7297881 HIT:    7294725 MISS:       3156 MSHR_MERGE:        789
cpu0->cpu0_ITLB LOAD         ACCESS:    7297881 HIT:    7294725 MISS:       3156 MSHR_MERGE:        789
cpu0->cpu0_ITLB RFO          ACCESS:          0 HIT:          0 MISS:          0 MSHR_MERGE:          0
cpu0->cpu0_ITLB PREFETCH     ACCESS:          0 HIT:          0 MISS:          0 MSHR_MERGE:          0
cpu0->cpu0_ITLB WRITE        ACCESS:          0 HIT:          0 MISS:          0 MSHR_MERGE:          0
cpu0->cpu0_ITLB TRANSLATION  ACCESS:          0 HIT:          0 MISS:          0 MSHR_MERGE:          0
cpu0->cpu0_ITLB PREFETCH REQUESTED:          0 ISSUED:          0 USEFUL:          0 USELESS:          0 LATE:          0
cpu0->cpu0_ITLB AVERAGE MISS LATENCY: 17.38 cycles
cpu0->cpu0_DTLB TOTAL        ACCESS:   73222818 HIT:   71584532 MISS:    1638286 MSHR_MERGE:     353782
cpu0->cpu0_DTLB LOAD         ACCESS:   73222818 HIT:   71584532 MISS:    1638286 MSHR_MERGE:     353782
cpu0->cpu0_DTLB RFO          ACCESS:          0 HIT:          0 MISS:          0 MSHR_MERGE:          0
cpu0->cpu0_DTLB PREFETCH     ACCESS:          0 HIT:          0 MISS:          0 MSHR_MERGE:          0
cpu0->cpu0_DTLB WRITE        ACCESS:          0 HIT:          0 MISS:          0 MSHR_MERGE:          0
cpu0->cpu0_DTLB TRANSLATION  ACCESS:          0 HIT:          0 MISS:          0 MSHR_MERGE:          0
cpu0->cpu0_DTLB PREFETCH REQUESTED:          0 ISSUED:          0 USEFUL:          0 USELESS:          0 LATE:          0
cpu0->cpu0_DTLB AVERAGE MISS LATENCY: 12.45 cycles
cpu0->LLC TOTAL        ACCESS:    4504709 HIT:    3256619 MISS:    1248090 MSHR_MERGE:          1
cpu0->LLC LOAD         ACCESS:    3248978 HIT:    2202047 MISS:    1046931 MSHR_MERGE:          0
cpu0->LLC RFO          ACCESS:       8277 HIT:       8223 MISS:         54 MSHR_MERGE:          0
cpu0->LLC PREFETCH     ACCESS:     251022 HIT:      97711 MISS:     153311 MSHR_MERGE:          1
cpu0->LLC WRITE        ACCESS:     910287 HIT:     872035 MISS:      38252 MSHR_MERGE:          0
cpu0->LLC TRANSLATION  ACCESS:      86145 HIT:      76603 MISS:       9542 MSHR_MERGE:          0
cpu0->LLC PREFETCH REQUESTED:          0 ISSUED:          0 USEFUL:          0 USELESS:          0 LATE:          0
cpu0->LLC AVERAGE MISS LATENCY: 172.4 cycles

DRAM Statistics

Channel 0 RQ ROW_BUFFER_HIT:       3629
  ROW_BUFFER_MISS:    1206177
  AVG DBUS CONGESTED CYCLE: 20.69
Channel 0 WQ ROW_BUFFER_HIT:      75980
  ROW_BUFFER_MISS:     206352
  FULL:          0
Channel 0 REFRESHES ISSUED:      35375

[ROI Statistics]
[System Configuration]
num_cpus 1
cpu_freq 4000
fetch_width 6
decode_width 6
dispatch_width 6
execute_width 6
lq_width 2
sq_width 2
retire_width 6
scheduler_size 128
branch_mispredict_penalty 15
rob_size 352
lq_size 128
sq_size 72
ifetch_buffer_size 64
decode_buffer_size 32
dispatch_buffer_size 32
register_file_size 288
decode_latency 1
dispatch_latency 1
schedule_latency 1
execute_latency 1
page_size 4096
block_size 64
core_0_itlb_set 16
core_0_itlb_way 4
core_0_itlb_rq_size 16
core_0_itlb_wq_size 16
core_0_itlb_pq_size 0
core_0_itlb_mshr_size 8
core_0_itlb_hit_latency 1
core_0_itlb_fill_latency 1
core_0_itlb_max_tag_check 2
core_0_itlb_max_fill 2
core_0_dtlb_set 16
core_0_dtlb_way 4
core_0_dtlb_rq_size 16
core_0_dtlb_wq_size 16
core_0_dtlb_pq_size 0
core_0_dtlb_mshr_size 8
core_0_dtlb_hit_latency 1
core_0_dtlb_fill_latency 1
core_0_dtlb_max_tag_check 2
core_0_dtlb_max_fill 2
core_0_stlb_set 128
core_0_stlb_way 12
core_0_stlb_rq_size 32
core_0_stlb_wq_size 32
core_0_stlb_pq_size 0
core_0_stlb_mshr_size 16
core_0_stlb_hit_latency 4
core_0_stlb_fill_latency 4
core_0_stlb_max_tag_check 1
core_0_stlb_max_fill 1
core_0_l1i_set 64
core_0_l1i_way 8
core_0_l1i_rq_size 64
core_0_l1i_wq_size 64
core_0_l1i_pq_size 32
core_0_l1i_mshr_size 8
core_0_l1i_hit_latency 2
core_0_l1i_fill_latency 2
core_0_l1i_max_tag_check 2
core_0_l1i_max_fill 2
core_0_l1d_set 64
core_0_l1d_way 12
core_0_l1d_rq_size 64
core_0_l1d_wq_size 64
core_0_l1d_pq_size 8
core_0_l1d_mshr_size 16
core_0_l1d_hit_latency 2
core_0_l1d_fill_latency 3
core_0_l1d_max_tag_check 2
core_0_l1d_max_fill 2
core_0_l2c_set 1024
core_0_l2c_way 8
core_0_l2c_rq_size 32
core_0_l2c_wq_size 32
core_0_l2c_pq_size 16
core_0_l2c_mshr_size 32
core_0_l2c_hit_latency 5
core_0_l2c_fill_latency 5
core_0_l2c_max_tag_check 1
core_0_l2c_max_fill 1
llc_set 2048
llc_way 16
llc_rq_size 32
llc_wq_size 32
llc_pq_size 32
llc_mshr_size 64
llc_hit_latency 10
llc_fill_latency 10
llc_max_tag_check 1
llc_max_fill 1
dram_channels 1
dram_ranks 1
dram_bankgroups 8
dram_banks 4
dram_rows 65536
dram_columns 1024
dram_channel_width 8
dram_rq_size 64
dram_wq_size 64
dram_size 17179869184
core_0_itlb_prefetcher no
core_0_dtlb_prefetcher no
core_0_stlb_prefetcher no
core_0_l1i_prefetcher next_line
core_0_l1d_prefetcher vberti
core_0_l2c_prefetcher ip_stride
llc_prefetcher no
llc_replacement drrip

Core_0_instructions 100000000
Core_0_cycles 424501879
Core_0_IPC 0.23557
Core_0_branch_prediction_accuracy 86.7629
Core_0_branch_MPKI 23.026
Core_0_average_ROB_occupancy_at_mispredict 20.5422

Core_0_ITLB_total_access 7297881
Core_0_ITLB_total_hit 7294725
Core_0_ITLB_total_miss 3156
Core_0_ITLB_total_MPKI 0.03156
Core_0_ITLB_total_miss_rate 0.000432454
Core_0_ITLB_demand_access 7297881
Core_0_ITLB_demand_hit 7294725
Core_0_ITLB_demand_miss 3156
Core_0_ITLB_demand_MPKI 0.03156
Core_0_ITLB_demand_miss_rate 0.000432454
Core_0_ITLB_load_access 7297881
Core_0_ITLB_load_hit 7294725
Core_0_ITLB_load_miss 3156
Core_0_ITLB_load_MPKI 0.03156
Core_0_ITLB_load_miss_rate 0.000432454
Core_0_ITLB_rfo_access 0
Core_0_ITLB_rfo_hit 0
Core_0_ITLB_rfo_miss 0
Core_0_ITLB_rfo_MPKI 0
Core_0_ITLB_rfo_miss_rate 0
Core_0_ITLB_prefetch_access 0
Core_0_ITLB_prefetch_hit 0
Core_0_ITLB_prefetch_miss 0
Core_0_ITLB_prefetch_MPKI 0
Core_0_ITLB_prefetch_miss_rate 0
Core_0_ITLB_writeback_access 0
Core_0_ITLB_writeback_hit 0
Core_0_ITLB_writeback_miss 0
Core_0_ITLB_writeback_MPKI 0
Core_0_ITLB_writeback_miss_rate 0
Core_0_ITLB_prefetch_requested 0
Core_0_ITLB_prefetch_issued 0
Core_0_ITLB_prefetch_useful 0
Core_0_ITLB_prefetch_useless 0
Core_0_ITLB_prefetch_late 0
Core_0_ITLB_prefetch_accuracy 0
Core_0_ITLB_prefetch_coverage 0

Core_0_DTLB_total_access 73222818
Core_0_DTLB_total_hit 71584532
Core_0_DTLB_total_miss 1638286
Core_0_DTLB_total_MPKI 16.3829
Core_0_DTLB_total_miss_rate 0.022374
Core_0_DTLB_demand_access 73222818
Core_0_DTLB_demand_hit 71584532
Core_0_DTLB_demand_miss 1638286
Core_0_DTLB_demand_MPKI 16.3829
Core_0_DTLB_demand_miss_rate 0.022374
Core_0_DTLB_load_access 73222818
Core_0_DTLB_load_hit 71584532
Core_0_DTLB_load_miss 1638286
Core_0_DTLB_load_MPKI 16.3829
Core_0_DTLB_load_miss_rate 0.022374
Core_0_DTLB_rfo_access 0
Core_0_DTLB_rfo_hit 0
Core_0_DTLB_rfo_miss 0
Core_0_DTLB_rfo_MPKI 0
Core_0_DTLB_rfo_miss_rate 0
Core_0_DTLB_prefetch_access 0
Core_0_DTLB_prefetch_hit 0
Core_0_DTLB_prefetch_miss 0
Core_0_DTLB_prefetch_MPKI 0
Core_0_DTLB_prefetch_miss_rate 0
Core_0_DTLB_writeback_access 0
Core_0_DTLB_writeback_hit 0
Core_0_DTLB_writeback_miss 0
Core_0_DTLB_writeback_MPKI 0
Core_0_DTLB_writeback_miss_rate 0
Core_0_DTLB_prefetch_requested 0
Core_0_DTLB_prefetch_issued 0
Core_0_DTLB_prefetch_useful 0
Core_0_DTLB_prefetch_useless 0
Core_0_DTLB_prefetch_late 0
Core_0_DTLB_prefetch_accuracy 0
Core_0_DTLB_prefetch_coverage 0

Core_0_STLB_total_access 1286871
Core_0_STLB_total_hit 1057875
Core_0_STLB_total_miss 228996
Core_0_STLB_total_MPKI 2.28996
Core_0_STLB_total_miss_rate 0.177948
Core_0_STLB_demand_access 1286871
Core_0_STLB_demand_hit 1057875
Core_0_STLB_demand_miss 228996
Core_0_STLB_demand_MPKI 2.28996
Core_0_STLB_demand_miss_rate 0.177948
Core_0_STLB_load_access 1286871
Core_0_STLB_load_hit 1057875
Core_0_STLB_load_miss 228996
Core_0_STLB_load_MPKI 2.28996
Core_0_STLB_load_miss_rate 0.177948
Core_0_STLB_rfo_access 0
Core_0_STLB_rfo_hit 0
Core_0_STLB_rfo_miss 0
Core_0_STLB_rfo_MPKI 0
Core_0_STLB_rfo_miss_rate 0
Core_0_STLB_prefetch_access 0
Core_0_STLB_prefetch_hit 0
Core_0_STLB_prefetch_miss 0
Core_0_STLB_prefetch_MPKI 0
Core_0_STLB_prefetch_miss_rate 0
Core_0_STLB_writeback_access 0
Core_0_STLB_writeback_hit 0
Core_0_STLB_writeback_miss 0
Core_0_STLB_writeback_MPKI 0
Core_0_STLB_writeback_miss_rate 0
Core_0_STLB_prefetch_requested 0
Core_0_STLB_prefetch_issued 0
Core_0_STLB_prefetch_useful 0
Core_0_STLB_prefetch_useless 0
Core_0_STLB_prefetch_late 0
Core_0_STLB_prefetch_accuracy 0
Core_0_STLB_prefetch_coverage 0

Core_0_L1I_total_access 7389746
Core_0_L1I_total_hit 7360403
Core_0_L1I_total_miss 29343
Core_0_L1I_total_MPKI 0.29343
Core_0_L1I_total_miss_rate 0.00397077
Core_0_L1I_demand_access 7389746
Core_0_L1I_demand_hit 7360403
Core_0_L1I_demand_miss 29343
Core_0_L1I_demand_MPKI 0.29343
Core_0_L1I_demand_miss_rate 0.00397077
Core_0_L1I_load_access 7389746
Core_0_L1I_load_hit 7360403
Core_0_L1I_load_miss 29343
Core_0_L1I_load_MPKI 0.29343
Core_0_L1I_load_miss_rate 0.00397077
Core_0_L1I_rfo_access 0
Core_0_L1I_rfo_hit 0
Core_0_L1I_rfo_miss 0
Core_0_L1I_rfo_MPKI 0
Core_0_L1I_rfo_miss_rate 0
Core_0_L1I_prefetch_access 0
Core_0_L1I_prefetch_hit 0
Core_0_L1I_prefetch_miss 0
Core_0_L1I_prefetch_MPKI 0
Core_0_L1I_prefetch_miss_rate 0
Core_0_L1I_writeback_access 0
Core_0_L1I_writeback_hit 0
Core_0_L1I_writeback_miss 0
Core_0_L1I_writeback_MPKI 0
Core_0_L1I_writeback_miss_rate 0
Core_0_L1I_prefetch_requested 0
Core_0_L1I_prefetch_issued 0
Core_0_L1I_prefetch_useful 0
Core_0_L1I_prefetch_useless 0
Core_0_L1I_prefetch_late 0
Core_0_L1I_prefetch_accuracy 0
Core_0_L1I_prefetch_coverage 0

Core_0_L1D_total_access 95143783
Core_0_L1D_total_hit 85691085
Core_0_L1D_total_miss 9452698
Core_0_L1D_total_MPKI 94.527
Core_0_L1D_total_miss_rate 0.0993517
Core_0_L1D_demand_access 31152103
Core_0_L1D_demand_hit 25337625
Core_0_L1D_demand_miss 5814478
Core_0_L1D_demand_MPKI 58.1448
Core_0_L1D_demand_miss_rate 0.186648
Core_0_L1D_load_access 31152103
Core_0_L1D_load_hit 25337625
Core_0_L1D_load_miss 5814478
Core_0_L1D_load_MPKI 58.1448
Core_0_L1D_load_miss_rate 0.186648
Core_0_L1D_rfo_access 0
Core_0_L1D_rfo_hit 0
Core_0_L1D_rfo_miss 0
Core_0_L1D_rfo_MPKI 0
Core_0_L1D_rfo_miss_rate 0
Core_0_L1D_prefetch_access 53158780
Core_0_L1D_prefetch_hit 49557040
Core_0_L1D_prefetch_miss 3601740
Core_0_L1D_prefetch_MPKI 36.0174
Core_0_L1D_prefetch_miss_rate 0.0677544
Core_0_L1D_writeback_access 10832900
Core_0_L1D_writeback_hit 10796420
Core_0_L1D_writeback_miss 36480
Core_0_L1D_writeback_MPKI 0.3648
Core_0_L1D_writeback_miss_rate 0.00336752
Core_0_L1D_prefetch_requested 125852770
Core_0_L1D_prefetch_issued 53158773
Core_0_L1D_prefetch_useful 400928
Core_0_L1D_prefetch_useless 17721
Core_0_L1D_prefetch_late 84
Core_0_L1D_prefetch_accuracy 0.00754209
Core_0_L1D_prefetch_coverage 0.0645055

Core_0_L2C_total_access 11062143
Core_0_L2C_total_hit 7453223
Core_0_L2C_total_miss 3608920
Core_0_L2C_total_MPKI 36.0892
Core_0_L2C_total_miss_rate 0.326241
Core_0_L2C_demand_access 4977347
Core_0_L2C_demand_hit 1719631
Core_0_L2C_demand_miss 3257716
Core_0_L2C_demand_MPKI 32.5772
Core_0_L2C_demand_miss_rate 0.654509
Core_0_L2C_load_access 4955292
Core_0_L2C_load_hit 1705853
Core_0_L2C_load_miss 3249439
Core_0_L2C_load_MPKI 32.4944
Core_0_L2C_load_miss_rate 0.655751
Core_0_L2C_rfo_access 22055
Core_0_L2C_rfo_hit 13778
Core_0_L2C_rfo_miss 8277
Core_0_L2C_rfo_MPKI 0.08277
Core_0_L2C_rfo_miss_rate 0.375289
Core_0_L2C_prefetch_access 4591851
Core_0_L2C_prefetch_hit 4240652
Core_0_L2C_prefetch_miss 351199
Core_0_L2C_prefetch_MPKI 3.51199
Core_0_L2C_prefetch_miss_rate 0.0764831
Core_0_L2C_writeback_access 1492945
Core_0_L2C_writeback_hit 1492940
Core_0_L2C_writeback_miss 5
Core_0_L2C_writeback_MPKI 5e-05
Core_0_L2C_writeback_miss_rate 3.34909e-06
Core_0_L2C_prefetch_requested 1025080
Core_0_L2C_prefetch_issued 1010616
Core_0_L2C_prefetch_useful 101842
Core_0_L2C_prefetch_useless 27207
Core_0_L2C_prefetch_late 150
Core_0_L2C_prefetch_accuracy 0.100772
Core_0_L2C_prefetch_coverage 0.0303141

Core_0_LLC_total_access 4418564
Core_0_LLC_total_hit 3180016
Core_0_LLC_total_miss 1238548
Core_0_LLC_total_MPKI 12.3855
Core_0_LLC_total_miss_rate 0.280306
Core_0_LLC_demand_access 3257255
Core_0_LLC_demand_hit 2210270
Core_0_LLC_demand_miss 1046985
Core_0_LLC_demand_MPKI 10.4698
Core_0_LLC_demand_miss_rate 0.321432
Core_0_LLC_load_access 3248978
Core_0_LLC_load_hit 2202047
Core_0_LLC_load_miss 1046931
Core_0_LLC_load_MPKI 10.4693
Core_0_LLC_load_miss_rate 0.322234
Core_0_LLC_rfo_access 8277
Core_0_LLC_rfo_hit 8223
Core_0_LLC_rfo_miss 54
Core_0_LLC_rfo_MPKI 0.00054
Core_0_LLC_rfo_miss_rate 0.0065241
Core_0_LLC_prefetch_access 251022
Core_0_LLC_prefetch_hit 97711
Core_0_LLC_prefetch_miss 153311
Core_0_LLC_prefetch_MPKI 1.53311
Core_0_LLC_prefetch_miss_rate 0.610747
Core_0_LLC_writeback_access 910287
Core_0_LLC_writeback_hit 872035
Core_0_LLC_writeback_miss 38252
Core_0_LLC_writeback_MPKI 0.38252
Core_0_LLC_writeback_miss_rate 0.0420219
Core_0_LLC_prefetch_requested 0
Core_0_LLC_prefetch_issued 0
Core_0_LLC_prefetch_useful 0
Core_0_LLC_prefetch_useless 0
Core_0_LLC_prefetch_late 0
Core_0_LLC_prefetch_accuracy 0
Core_0_LLC_prefetch_coverage 0

[DRAM Statistics]
Channel_0_RQ_row_buffer_hit 3629
Channel_0_RQ_row_buffer_miss 1206177
Channel_0_WQ_row_buffer_hit 75980
Channel_0_WQ_row_buffer_miss 206352
Channel_0_WQ_full 0
Channel_0_dbus_congested 3670933
DRAM_total_RQ_row_buffer_hit 3629
DRAM_total_RQ_row_buffer_miss 1206177
DRAM_total_WQ_row_buffer_hit 75980
DRAM_total_WQ_row_buffer_miss 206352
DRAM_total_WQ_full 0
DRAM_total_dbus_congested 3670933
DRAM_avg_congested_cycle 20.6927

====== DRAM_RQ_TRAFFIC ========
DRAM_RQ_READ_TRAFFIC_BREAKDOWN:
data_demand_read.count = 1046955
data_demand_read.share = 86.54%

inst_demand_read.count = 30
inst_demand_read.share = 0.00%

cache_inst_prefetch.count = 0
cache_inst_prefetch.share = 0.00%

cache_data_prefetch.count = 153310
cache_data_prefetch.share = 12.67%

stlb_data_demand.count = 9224
stlb_data_demand.share = 0.76%

stlb_inst_demand.count = 42
stlb_inst_demand.share = 0.00%

stlb_l1i_pref.count = 0
stlb_l1i_pref.share = 0.00%

stlb_l1d_pref.count = 276
stlb_l1d_pref.share = 0.02%

DRAM_RQ_READ_TRAFFIC_SUMMARY:
cache_demand.count = 1046985
cache_demand.share = 86.54%

cache_prefetch.count = 153310
cache_prefetch.share = 12.67%

stlb_demand.count = 9266
stlb_demand.share = 0.77%

stlb_prefetch.count = 276
stlb_prefetch.share = 0.02%

DRAM_RQ_READ_TRAFFIC_DEBUG:
total_classified_read.count = 1209837
unclassified_read.count = 0
total_read_with_other.count = 1209837

classified_plus_unclassified_check.count = 1209837
dram_rq_read_total_observed.count = 1209837
dram_rq_read_total_observed.per_1K_instructions = 12.0984

STLB_MISS_PTW_DRAM_TOUCH_BREAKDOWN:
stlb_miss_total.count = 228996

stlb_miss_touch_dram.count = 9479
stlb_miss_touch_dram.share = 4.14%

stlb_miss_no_dram_touch.count = 219517
stlb_miss_no_dram_touch.share = 95.86%

STLB_MISS_PTW_DRAM_TOUCH_DEBUG:
stlb_miss_touch_plus_no_touch.count = 228996
stlb_miss_total_check.count = 228996

======STLB miss causes ========
Core_0_STLB_miss_cause_breakdown
Core_0_STLB_cause_Demand_Data_miss 225795
Core_0_STLB_cause_Demand_Data_miss_rate 0.17546
Core_0_STLB_cause_Demand_Instruction_miss 608
Core_0_STLB_cause_Demand_Instruction_miss_rate 0.000472464
Core_0_STLB_cause_L1D_Prefetch_miss 2593
Core_0_STLB_cause_L1D_Prefetch_miss_rate 0.00201496
Core_0_STLB_cause_L1I_Prefetch_miss 0
Core_0_STLB_cause_L1I_Prefetch_miss_rate 0
Core_0_STLB_cause_Other_miss 0
Core_0_STLB_cause_Other_miss_rate 0
Core_0_STLB_Demand_miss 226403
Core_0_STLB_Demand_miss_rate 0.175933
Core_0_STLB_L1D_Prefetch_miss 2593
Core_0_STLB_L1D_Prefetch_miss_rate 0.00201496
Core_0_STLB_Other_miss 0
Core_0_STLB_Other_miss_rate 0
BERTI TO_L1: 160063005 TO_L2: 16598980 TO_L2_BC_MSHR: 11
BERTI AVG_LAT: 40.3471 NUM_TRACK_LATENCY: 8014018 NUM_CANT_TRACK_LATENCY: 8
BERTI CROSS_PAGE 12273011 NO_CROSS_PAGE: 164388974
BERTI FOUND_BERTI: 42209092 NO_FOUND_BERTI: 14286779
BERTI AVERAGE_ISSUED: 3.09287
