[VMEM] WARNING: physical memory size is smaller than virtual memory size.

*** ChampSim Multicore Out-of-Order Simulator ***
Warmup Instructions: 50000000
Simulation Instructions: 100000000
Number of CPUs: 1
Page size: 4096
Core 0: /data0/tzh/champsim_traces/Ligra/ligra_BFS.com-lj.ungraph.gcc_6.3.0_O3.drop_21500M.length_250M.champsimtrace.xz
VBerti Prefetcher
BERTI HASH ENTANGLING
BERTI IP MASK ffff
Off-chip DRAM Size: 16 GiB Channels: 1 Width: 64-bit Data Rate: 3205 MT/s
Warmup halting CPU 0 at instruction 50000002 cycle 11949520 for remainder of phase
Warmup finished CPU 0 instructions: 50000002 cycles: 11949520 cumulative IPC: 4.184 (Simulation time: 00 hr 02 min 19 sec)
Warmup complete CPU 0 instructions: 50000002 cycles: 11949520 cumulative IPC: 4.184 (Simulation time: 00 hr 02 min 19 sec)
Simulation finished CPU 0 instructions: 100000000 cycles: 160586037 cumulative IPC: 0.6227 (Simulation time: 00 hr 20 min 40 sec)
Simulation complete CPU 0 instructions: 100000000 cycles: 160586037 cumulative IPC: 0.6227 (Simulation time: 00 hr 20 min 40 sec)

ChampSim completed all CPUs

=== Simulation ===
CPU 0 runs /data0/tzh/champsim_traces/Ligra/ligra_BFS.com-lj.ungraph.gcc_6.3.0_O3.drop_21500M.length_250M.champsimtrace.xz

Region of Interest Statistics

CPU 0 cumulative IPC: 0.6227 instructions: 100000000 cycles: 160586037
CPU 0 Branch Prediction Accuracy: 91.69% MPKI: 19.06 Average ROB Occupancy at Mispredict: 16.06
Branch type MPKI
BRANCH_DIRECT_JUMP: 3.888
BRANCH_INDIRECT: 3e-05
BRANCH_CONDITIONAL: 15.17
BRANCH_DIRECT_CALL: 0.00093
BRANCH_INDIRECT_CALL: 0.00013
BRANCH_RETURN: 0.00113

cpu0->cpu0_STLB TOTAL        ACCESS:     499149 HIT:     393675 MISS:     105474 MSHR_MERGE:          0
cpu0->cpu0_STLB LOAD         ACCESS:     499149 HIT:     393675 MISS:     105474 MSHR_MERGE:          0
cpu0->cpu0_STLB RFO          ACCESS:          0 HIT:          0 MISS:          0 MSHR_MERGE:          0
cpu0->cpu0_STLB PREFETCH     ACCESS:          0 HIT:          0 MISS:          0 MSHR_MERGE:          0
cpu0->cpu0_STLB WRITE        ACCESS:          0 HIT:          0 MISS:          0 MSHR_MERGE:          0
cpu0->cpu0_STLB TRANSLATION  ACCESS:          0 HIT:          0 MISS:          0 MSHR_MERGE:          0
cpu0->cpu0_STLB PREFETCH REQUESTED:          0 ISSUED:          0 USEFUL:          0 USELESS:          0 LATE:          0
cpu0->cpu0_STLB AVERAGE MISS LATENCY: 190.5 cycles
cpu0->cpu0_L2C TOTAL        ACCESS:    8698875 HIT:    4254815 MISS:    4444060 MSHR_MERGE:    1806547
cpu0->cpu0_L2C LOAD         ACCESS:    2218398 HIT:    1608928 MISS:     609470 MSHR_MERGE:      32981
cpu0->cpu0_L2C RFO          ACCESS:     106514 HIT:      27180 MISS:      79334 MSHR_MERGE:      43910
cpu0->cpu0_L2C PREFETCH     ACCESS:    5662416 HIT:    1931895 MISS:    3730521 MSHR_MERGE:    1729656
cpu0->cpu0_L2C WRITE        ACCESS:     655246 HIT:     655234 MISS:         12 MSHR_MERGE:          0
cpu0->cpu0_L2C TRANSLATION  ACCESS:      56301 HIT:      31578 MISS:      24723 MSHR_MERGE:          0
cpu0->cpu0_L2C PREFETCH REQUESTED:    2250240 ISSUED:    2239793 USEFUL:     470920 USELESS:     208930 LATE:      24622
cpu0->cpu0_L2C AVERAGE MISS LATENCY: 263.1 cycles
cpu0->cpu0_L1I TOTAL        ACCESS:   17920227 HIT:   17919712 MISS:        515 MSHR_MERGE:         68
cpu0->cpu0_L1I LOAD         ACCESS:   17920227 HIT:   17919712 MISS:        515 MSHR_MERGE:         68
cpu0->cpu0_L1I RFO          ACCESS:          0 HIT:          0 MISS:          0 MSHR_MERGE:          0
cpu0->cpu0_L1I PREFETCH     ACCESS:          0 HIT:          0 MISS:          0 MSHR_MERGE:          0
cpu0->cpu0_L1I WRITE        ACCESS:          0 HIT:          0 MISS:          0 MSHR_MERGE:          0
cpu0->cpu0_L1I TRANSLATION  ACCESS:          0 HIT:          0 MISS:          0 MSHR_MERGE:          0
cpu0->cpu0_L1I PREFETCH REQUESTED:          0 ISSUED:          0 USEFUL:          0 USELESS:          0 LATE:          0
cpu0->cpu0_L1I AVERAGE MISS LATENCY: 222.6 cycles
cpu0->cpu0_L1D TOTAL        ACCESS:   95248489 HIT:   88454885 MISS:    6793604 MSHR_MERGE:     911520
cpu0->cpu0_L1D LOAD         ACCESS:   20382133 HIT:   17713295 MISS:    2668838 MSHR_MERGE:     450886
cpu0->cpu0_L1D RFO          ACCESS:          0 HIT:          0 MISS:          0 MSHR_MERGE:          0
cpu0->cpu0_L1D PREFETCH     ACCESS:   54498318 HIT:   50910049 MISS:    3588269 MSHR_MERGE:      86955
cpu0->cpu0_L1D WRITE        ACCESS:   20159087 HIT:   19683088 MISS:     475999 MSHR_MERGE:     369482
cpu0->cpu0_L1D TRANSLATION  ACCESS:     208951 HIT:     148453 MISS:      60498 MSHR_MERGE:       4197
cpu0->cpu0_L1D PREFETCH REQUESTED:  381943765 ISSUED:   54498310 USEFUL:    1444738 USELESS:     133730 LATE:      33740
cpu0->cpu0_L1D AVERAGE MISS LATENCY: 88.49 cycles
cpu0->cpu0_ITLB TOTAL        ACCESS:   17901899 HIT:   17901801 MISS:         98 MSHR_MERGE:         37
cpu0->cpu0_ITLB LOAD         ACCESS:   17901899 HIT:   17901801 MISS:         98 MSHR_MERGE:         37
cpu0->cpu0_ITLB RFO          ACCESS:          0 HIT:          0 MISS:          0 MSHR_MERGE:          0
cpu0->cpu0_ITLB PREFETCH     ACCESS:          0 HIT:          0 MISS:          0 MSHR_MERGE:          0
cpu0->cpu0_ITLB WRITE        ACCESS:          0 HIT:          0 MISS:          0 MSHR_MERGE:          0
cpu0->cpu0_ITLB TRANSLATION  ACCESS:          0 HIT:          0 MISS:          0 MSHR_MERGE:          0
cpu0->cpu0_ITLB PREFETCH REQUESTED:          0 ISSUED:          0 USEFUL:          0 USELESS:          0 LATE:          0
cpu0->cpu0_ITLB AVERAGE MISS LATENCY: 315.5 cycles
cpu0->cpu0_DTLB TOTAL        ACCESS:   72997058 HIT:   72230852 MISS:     766206 MSHR_MERGE:     267118
cpu0->cpu0_DTLB LOAD         ACCESS:   72997058 HIT:   72230852 MISS:     766206 MSHR_MERGE:     267118
cpu0->cpu0_DTLB RFO          ACCESS:          0 HIT:          0 MISS:          0 MSHR_MERGE:          0
cpu0->cpu0_DTLB PREFETCH     ACCESS:          0 HIT:          0 MISS:          0 MSHR_MERGE:          0
cpu0->cpu0_DTLB WRITE        ACCESS:          0 HIT:          0 MISS:          0 MSHR_MERGE:          0
cpu0->cpu0_DTLB TRANSLATION  ACCESS:          0 HIT:          0 MISS:          0 MSHR_MERGE:          0
cpu0->cpu0_DTLB PREFETCH REQUESTED:          0 ISSUED:          0 USEFUL:          0 USELESS:          0 LATE:          0
cpu0->cpu0_DTLB AVERAGE MISS LATENCY: 45.44 cycles
cpu0->LLC TOTAL        ACCESS:    3269095 HIT:     494028 MISS:    2775067 MSHR_MERGE:      87462
cpu0->LLC LOAD         ACCESS:     576489 HIT:     175473 MISS:     401016 MSHR_MERGE:       5357
cpu0->LLC RFO          ACCESS:      35424 HIT:       8576 MISS:      26848 MSHR_MERGE:       2322
cpu0->LLC PREFETCH     ACCESS:    2000827 HIT:     108375 MISS:    1892452 MSHR_MERGE:      79783
cpu0->LLC WRITE        ACCESS:     631632 HIT:     198530 MISS:     433102 MSHR_MERGE:          0
cpu0->LLC TRANSLATION  ACCESS:      24723 HIT:       3074 MISS:      21649 MSHR_MERGE:          0
cpu0->LLC PREFETCH REQUESTED:          0 ISSUED:          0 USEFUL:          0 USELESS:          0 LATE:          0
cpu0->LLC AVERAGE MISS LATENCY: 172.4 cycles

DRAM Statistics

Channel 0 RQ ROW_BUFFER_HIT:     235022
  ROW_BUFFER_MISS:    2019322
  AVG DBUS CONGESTED CYCLE: 7.121
Channel 0 WQ ROW_BUFFER_HIT:      55081
  ROW_BUFFER_MISS:     539705
  FULL:       2068
Channel 0 REFRESHES ISSUED:      13382

[ROI Statistics]
[System Configuration]
num_cpus 1
cpu_freq 4000
fetch_width 6
decode_width 6
dispatch_width 6
execute_width 6
lq_width 2
sq_width 2
retire_width 6
scheduler_size 128
branch_mispredict_penalty 15
rob_size 352
lq_size 128
sq_size 72
ifetch_buffer_size 64
decode_buffer_size 32
dispatch_buffer_size 32
register_file_size 288
decode_latency 1
dispatch_latency 1
schedule_latency 1
execute_latency 1
page_size 4096
block_size 64
core_0_itlb_set 16
core_0_itlb_way 4
core_0_itlb_rq_size 16
core_0_itlb_wq_size 16
core_0_itlb_pq_size 0
core_0_itlb_mshr_size 8
core_0_itlb_hit_latency 1
core_0_itlb_fill_latency 1
core_0_itlb_max_tag_check 2
core_0_itlb_max_fill 2
core_0_dtlb_set 16
core_0_dtlb_way 4
core_0_dtlb_rq_size 16
core_0_dtlb_wq_size 16
core_0_dtlb_pq_size 0
core_0_dtlb_mshr_size 8
core_0_dtlb_hit_latency 1
core_0_dtlb_fill_latency 1
core_0_dtlb_max_tag_check 2
core_0_dtlb_max_fill 2
core_0_stlb_set 128
core_0_stlb_way 12
core_0_stlb_rq_size 32
core_0_stlb_wq_size 32
core_0_stlb_pq_size 0
core_0_stlb_mshr_size 16
core_0_stlb_hit_latency 4
core_0_stlb_fill_latency 4
core_0_stlb_max_tag_check 1
core_0_stlb_max_fill 1
core_0_l1i_set 64
core_0_l1i_way 8
core_0_l1i_rq_size 64
core_0_l1i_wq_size 64
core_0_l1i_pq_size 32
core_0_l1i_mshr_size 8
core_0_l1i_hit_latency 2
core_0_l1i_fill_latency 2
core_0_l1i_max_tag_check 2
core_0_l1i_max_fill 2
core_0_l1d_set 64
core_0_l1d_way 12
core_0_l1d_rq_size 64
core_0_l1d_wq_size 64
core_0_l1d_pq_size 8
core_0_l1d_mshr_size 16
core_0_l1d_hit_latency 2
core_0_l1d_fill_latency 3
core_0_l1d_max_tag_check 2
core_0_l1d_max_fill 2
core_0_l2c_set 1024
core_0_l2c_way 8
core_0_l2c_rq_size 32
core_0_l2c_wq_size 32
core_0_l2c_pq_size 16
core_0_l2c_mshr_size 32
core_0_l2c_hit_latency 5
core_0_l2c_fill_latency 5
core_0_l2c_max_tag_check 1
core_0_l2c_max_fill 1
llc_set 2048
llc_way 16
llc_rq_size 32
llc_wq_size 32
llc_pq_size 32
llc_mshr_size 64
llc_hit_latency 10
llc_fill_latency 10
llc_max_tag_check 1
llc_max_fill 1
dram_channels 1
dram_ranks 1
dram_bankgroups 8
dram_banks 4
dram_rows 65536
dram_columns 1024
dram_channel_width 8
dram_rq_size 64
dram_wq_size 64
dram_size 17179869184
core_0_itlb_prefetcher no
core_0_dtlb_prefetcher no
core_0_stlb_prefetcher no
core_0_l1i_prefetcher next_line
core_0_l1d_prefetcher vberti
core_0_l2c_prefetcher ip_stride
llc_prefetcher no
llc_replacement drrip

Core_0_instructions 100000000
Core_0_cycles 160586037
Core_0_IPC 0.622719
Core_0_branch_prediction_accuracy 91.6881
Core_0_branch_MPKI 19.0619
Core_0_average_ROB_occupancy_at_mispredict 16.0598

Core_0_ITLB_total_access 17901899
Core_0_ITLB_total_hit 17901801
Core_0_ITLB_total_miss 98
Core_0_ITLB_total_MPKI 0.00098
Core_0_ITLB_total_miss_rate 5.47428e-06
Core_0_ITLB_demand_access 17901899
Core_0_ITLB_demand_hit 17901801
Core_0_ITLB_demand_miss 98
Core_0_ITLB_demand_MPKI 0.00098
Core_0_ITLB_demand_miss_rate 5.47428e-06
Core_0_ITLB_load_access 17901899
Core_0_ITLB_load_hit 17901801
Core_0_ITLB_load_miss 98
Core_0_ITLB_load_MPKI 0.00098
Core_0_ITLB_load_miss_rate 5.47428e-06
Core_0_ITLB_rfo_access 0
Core_0_ITLB_rfo_hit 0
Core_0_ITLB_rfo_miss 0
Core_0_ITLB_rfo_MPKI 0
Core_0_ITLB_rfo_miss_rate 0
Core_0_ITLB_prefetch_access 0
Core_0_ITLB_prefetch_hit 0
Core_0_ITLB_prefetch_miss 0
Core_0_ITLB_prefetch_MPKI 0
Core_0_ITLB_prefetch_miss_rate 0
Core_0_ITLB_writeback_access 0
Core_0_ITLB_writeback_hit 0
Core_0_ITLB_writeback_miss 0
Core_0_ITLB_writeback_MPKI 0
Core_0_ITLB_writeback_miss_rate 0
Core_0_ITLB_prefetch_requested 0
Core_0_ITLB_prefetch_issued 0
Core_0_ITLB_prefetch_useful 0
Core_0_ITLB_prefetch_useless 0
Core_0_ITLB_prefetch_late 0
Core_0_ITLB_prefetch_accuracy 0
Core_0_ITLB_prefetch_coverage 0

Core_0_DTLB_total_access 72997058
Core_0_DTLB_total_hit 72230852
Core_0_DTLB_total_miss 766206
Core_0_DTLB_total_MPKI 7.66206
Core_0_DTLB_total_miss_rate 0.0104964
Core_0_DTLB_demand_access 72997058
Core_0_DTLB_demand_hit 72230852
Core_0_DTLB_demand_miss 766206
Core_0_DTLB_demand_MPKI 7.66206
Core_0_DTLB_demand_miss_rate 0.0104964
Core_0_DTLB_load_access 72997058
Core_0_DTLB_load_hit 72230852
Core_0_DTLB_load_miss 766206
Core_0_DTLB_load_MPKI 7.66206
Core_0_DTLB_load_miss_rate 0.0104964
Core_0_DTLB_rfo_access 0
Core_0_DTLB_rfo_hit 0
Core_0_DTLB_rfo_miss 0
Core_0_DTLB_rfo_MPKI 0
Core_0_DTLB_rfo_miss_rate 0
Core_0_DTLB_prefetch_access 0
Core_0_DTLB_prefetch_hit 0
Core_0_DTLB_prefetch_miss 0
Core_0_DTLB_prefetch_MPKI 0
Core_0_DTLB_prefetch_miss_rate 0
Core_0_DTLB_writeback_access 0
Core_0_DTLB_writeback_hit 0
Core_0_DTLB_writeback_miss 0
Core_0_DTLB_writeback_MPKI 0
Core_0_DTLB_writeback_miss_rate 0
Core_0_DTLB_prefetch_requested 0
Core_0_DTLB_prefetch_issued 0
Core_0_DTLB_prefetch_useful 0
Core_0_DTLB_prefetch_useless 0
Core_0_DTLB_prefetch_late 0
Core_0_DTLB_prefetch_accuracy 0
Core_0_DTLB_prefetch_coverage 0

Core_0_STLB_total_access 499149
Core_0_STLB_total_hit 393675
Core_0_STLB_total_miss 105474
Core_0_STLB_total_MPKI 1.05474
Core_0_STLB_total_miss_rate 0.211308
Core_0_STLB_demand_access 499149
Core_0_STLB_demand_hit 393675
Core_0_STLB_demand_miss 105474
Core_0_STLB_demand_MPKI 1.05474
Core_0_STLB_demand_miss_rate 0.211308
Core_0_STLB_load_access 499149
Core_0_STLB_load_hit 393675
Core_0_STLB_load_miss 105474
Core_0_STLB_load_MPKI 1.05474
Core_0_STLB_load_miss_rate 0.211308
Core_0_STLB_rfo_access 0
Core_0_STLB_rfo_hit 0
Core_0_STLB_rfo_miss 0
Core_0_STLB_rfo_MPKI 0
Core_0_STLB_rfo_miss_rate 0
Core_0_STLB_prefetch_access 0
Core_0_STLB_prefetch_hit 0
Core_0_STLB_prefetch_miss 0
Core_0_STLB_prefetch_MPKI 0
Core_0_STLB_prefetch_miss_rate 0
Core_0_STLB_writeback_access 0
Core_0_STLB_writeback_hit 0
Core_0_STLB_writeback_miss 0
Core_0_STLB_writeback_MPKI 0
Core_0_STLB_writeback_miss_rate 0
Core_0_STLB_prefetch_requested 0
Core_0_STLB_prefetch_issued 0
Core_0_STLB_prefetch_useful 0
Core_0_STLB_prefetch_useless 0
Core_0_STLB_prefetch_late 0
Core_0_STLB_prefetch_accuracy 0
Core_0_STLB_prefetch_coverage 0

Core_0_L1I_total_access 17920227
Core_0_L1I_total_hit 17919712
Core_0_L1I_total_miss 515
Core_0_L1I_total_MPKI 0.00515
Core_0_L1I_total_miss_rate 2.87385e-05
Core_0_L1I_demand_access 17920227
Core_0_L1I_demand_hit 17919712
Core_0_L1I_demand_miss 515
Core_0_L1I_demand_MPKI 0.00515
Core_0_L1I_demand_miss_rate 2.87385e-05
Core_0_L1I_load_access 17920227
Core_0_L1I_load_hit 17919712
Core_0_L1I_load_miss 515
Core_0_L1I_load_MPKI 0.00515
Core_0_L1I_load_miss_rate 2.87385e-05
Core_0_L1I_rfo_access 0
Core_0_L1I_rfo_hit 0
Core_0_L1I_rfo_miss 0
Core_0_L1I_rfo_MPKI 0
Core_0_L1I_rfo_miss_rate 0
Core_0_L1I_prefetch_access 0
Core_0_L1I_prefetch_hit 0
Core_0_L1I_prefetch_miss 0
Core_0_L1I_prefetch_MPKI 0
Core_0_L1I_prefetch_miss_rate 0
Core_0_L1I_writeback_access 0
Core_0_L1I_writeback_hit 0
Core_0_L1I_writeback_miss 0
Core_0_L1I_writeback_MPKI 0
Core_0_L1I_writeback_miss_rate 0
Core_0_L1I_prefetch_requested 0
Core_0_L1I_prefetch_issued 0
Core_0_L1I_prefetch_useful 0
Core_0_L1I_prefetch_useless 0
Core_0_L1I_prefetch_late 0
Core_0_L1I_prefetch_accuracy 0
Core_0_L1I_prefetch_coverage 0

Core_0_L1D_total_access 95039538
Core_0_L1D_total_hit 88306432
Core_0_L1D_total_miss 6733106
Core_0_L1D_total_MPKI 67.3311
Core_0_L1D_total_miss_rate 0.0708453
Core_0_L1D_demand_access 20382133
Core_0_L1D_demand_hit 17713295
Core_0_L1D_demand_miss 2668838
Core_0_L1D_demand_MPKI 26.6884
Core_0_L1D_demand_miss_rate 0.13094
Core_0_L1D_load_access 20382133
Core_0_L1D_load_hit 17713295
Core_0_L1D_load_miss 2668838
Core_0_L1D_load_MPKI 26.6884
Core_0_L1D_load_miss_rate 0.13094
Core_0_L1D_rfo_access 0
Core_0_L1D_rfo_hit 0
Core_0_L1D_rfo_miss 0
Core_0_L1D_rfo_MPKI 0
Core_0_L1D_rfo_miss_rate 0
Core_0_L1D_prefetch_access 54498318
Core_0_L1D_prefetch_hit 50910049
Core_0_L1D_prefetch_miss 3588269
Core_0_L1D_prefetch_MPKI 35.8827
Core_0_L1D_prefetch_miss_rate 0.0658418
Core_0_L1D_writeback_access 20159087
Core_0_L1D_writeback_hit 19683088
Core_0_L1D_writeback_miss 475999
Core_0_L1D_writeback_MPKI 4.75999
Core_0_L1D_writeback_miss_rate 0.0236121
Core_0_L1D_prefetch_requested 381943765
Core_0_L1D_prefetch_issued 54498310
Core_0_L1D_prefetch_useful 1444738
Core_0_L1D_prefetch_useless 133730
Core_0_L1D_prefetch_late 33740
Core_0_L1D_prefetch_accuracy 0.0265098
Core_0_L1D_prefetch_coverage 0.351212

Core_0_L2C_total_access 8642574
Core_0_L2C_total_hit 4223237
Core_0_L2C_total_miss 4419337
Core_0_L2C_total_MPKI 44.1934
Core_0_L2C_total_miss_rate 0.511345
Core_0_L2C_demand_access 2324912
Core_0_L2C_demand_hit 1636108
Core_0_L2C_demand_miss 688804
Core_0_L2C_demand_MPKI 6.88804
Core_0_L2C_demand_miss_rate 0.296271
Core_0_L2C_load_access 2218398
Core_0_L2C_load_hit 1608928
Core_0_L2C_load_miss 609470
Core_0_L2C_load_MPKI 6.0947
Core_0_L2C_load_miss_rate 0.274734
Core_0_L2C_rfo_access 106514
Core_0_L2C_rfo_hit 27180
Core_0_L2C_rfo_miss 79334
Core_0_L2C_rfo_MPKI 0.79334
Core_0_L2C_rfo_miss_rate 0.744822
Core_0_L2C_prefetch_access 5662416
Core_0_L2C_prefetch_hit 1931895
Core_0_L2C_prefetch_miss 3730521
Core_0_L2C_prefetch_MPKI 37.3052
Core_0_L2C_prefetch_miss_rate 0.658821
Core_0_L2C_writeback_access 655246
Core_0_L2C_writeback_hit 655234
Core_0_L2C_writeback_miss 12
Core_0_L2C_writeback_MPKI 0.00012
Core_0_L2C_writeback_miss_rate 1.83137e-05
Core_0_L2C_prefetch_requested 2250240
Core_0_L2C_prefetch_issued 2239793
Core_0_L2C_prefetch_useful 470920
Core_0_L2C_prefetch_useless 208930
Core_0_L2C_prefetch_late 24622
Core_0_L2C_prefetch_accuracy 0.210252
Core_0_L2C_prefetch_coverage 0.406062

Core_0_LLC_total_access 3244372
Core_0_LLC_total_hit 490954
Core_0_LLC_total_miss 2753418
Core_0_LLC_total_MPKI 27.5342
Core_0_LLC_total_miss_rate 0.848675
Core_0_LLC_demand_access 611913
Core_0_LLC_demand_hit 184049
Core_0_LLC_demand_miss 427864
Core_0_LLC_demand_MPKI 4.27864
Core_0_LLC_demand_miss_rate 0.699224
Core_0_LLC_load_access 576489
Core_0_LLC_load_hit 175473
Core_0_LLC_load_miss 401016
Core_0_LLC_load_MPKI 4.01016
Core_0_LLC_load_miss_rate 0.695618
Core_0_LLC_rfo_access 35424
Core_0_LLC_rfo_hit 8576
Core_0_LLC_rfo_miss 26848
Core_0_LLC_rfo_MPKI 0.26848
Core_0_LLC_rfo_miss_rate 0.757904
Core_0_LLC_prefetch_access 2000827
Core_0_LLC_prefetch_hit 108375
Core_0_LLC_prefetch_miss 1892452
Core_0_LLC_prefetch_MPKI 18.9245
Core_0_LLC_prefetch_miss_rate 0.945835
Core_0_LLC_writeback_access 631632
Core_0_LLC_writeback_hit 198530
Core_0_LLC_writeback_miss 433102
Core_0_LLC_writeback_MPKI 4.33102
Core_0_LLC_writeback_miss_rate 0.685687
Core_0_LLC_prefetch_requested 0
Core_0_LLC_prefetch_issued 0
Core_0_LLC_prefetch_useful 0
Core_0_LLC_prefetch_useless 0
Core_0_LLC_prefetch_late 0
Core_0_LLC_prefetch_accuracy 0
Core_0_LLC_prefetch_coverage 0

[DRAM Statistics]
Channel_0_RQ_row_buffer_hit 235022
Channel_0_RQ_row_buffer_miss 2019322
Channel_0_WQ_row_buffer_hit 55081
Channel_0_WQ_row_buffer_miss 539705
Channel_0_WQ_full 2068
Channel_0_dbus_congested 6825840
DRAM_total_RQ_row_buffer_hit 235022
DRAM_total_RQ_row_buffer_miss 2019322
DRAM_total_WQ_row_buffer_hit 55081
DRAM_total_WQ_row_buffer_miss 539705
DRAM_total_WQ_full 2068
DRAM_total_dbus_congested 6825840
DRAM_avg_congested_cycle 7.12125

====== DRAM_RQ_TRAFFIC ========
DRAM_RQ_READ_TRAFFIC_BREAKDOWN:
data_demand_read.count = 419739
data_demand_read.share = 18.62%

inst_demand_read.count = 446
inst_demand_read.share = 0.02%

cache_inst_prefetch.count = 0
cache_inst_prefetch.share = 0.00%

cache_data_prefetch.count = 1812669
cache_data_prefetch.share = 80.40%

stlb_data_demand.count = 17882
stlb_data_demand.share = 0.79%

stlb_inst_demand.count = 34
stlb_inst_demand.share = 0.00%

stlb_l1i_pref.count = 0
stlb_l1i_pref.share = 0.00%

stlb_l1d_pref.count = 3733
stlb_l1d_pref.share = 0.17%

DRAM_RQ_READ_TRAFFIC_SUMMARY:
cache_demand.count = 420185
cache_demand.share = 18.64%

cache_prefetch.count = 1812669
cache_prefetch.share = 80.40%

stlb_demand.count = 17916
stlb_demand.share = 0.79%

stlb_prefetch.count = 3733
stlb_prefetch.share = 0.17%

DRAM_RQ_READ_TRAFFIC_DEBUG:
total_classified_read.count = 2254503
unclassified_read.count = 0
total_read_with_other.count = 2254503

classified_plus_unclassified_check.count = 2254503
dram_rq_read_total_observed.count = 2254503
dram_rq_read_total_observed.per_1K_instructions = 22.545

STLB_MISS_PTW_DRAM_TOUCH_BREAKDOWN:
stlb_miss_total.count = 105474

stlb_miss_touch_dram.count = 21546
stlb_miss_touch_dram.share = 20.43%

stlb_miss_no_dram_touch.count = 83928
stlb_miss_no_dram_touch.share = 79.57%

STLB_MISS_PTW_DRAM_TOUCH_DEBUG:
stlb_miss_touch_plus_no_touch.count = 105474
stlb_miss_total_check.count = 105474

======STLB miss causes ========
Core_0_STLB_miss_cause_breakdown
Core_0_STLB_cause_Demand_Data_miss 77389
Core_0_STLB_cause_Demand_Data_miss_rate 0.155042
Core_0_STLB_cause_Demand_Instruction_miss 58
Core_0_STLB_cause_Demand_Instruction_miss_rate 0.000116198
Core_0_STLB_cause_L1D_Prefetch_miss 28027
Core_0_STLB_cause_L1D_Prefetch_miss_rate 0.0561496
Core_0_STLB_cause_L1I_Prefetch_miss 0
Core_0_STLB_cause_L1I_Prefetch_miss_rate 0
Core_0_STLB_cause_Other_miss 0
Core_0_STLB_cause_Other_miss_rate 0
Core_0_STLB_Demand_miss 77447
Core_0_STLB_Demand_miss_rate 0.155158
Core_0_STLB_L1D_Prefetch_miss 28027
Core_0_STLB_L1D_Prefetch_miss_rate 0.0561496
Core_0_STLB_Other_miss 0
Core_0_STLB_Other_miss_rate 0
BERTI TO_L1: 424064230 TO_L2: 53018450 TO_L2_BC_MSHR: 11275298
BERTI AVG_LAT: 121.635 NUM_TRACK_LATENCY: 4046268 NUM_CANT_TRACK_LATENCY: 107
BERTI CROSS_PAGE 64176055 NO_CROSS_PAGE: 412906625
BERTI FOUND_BERTI: 47561295 NO_FOUND_BERTI: 3197749
BERTI AVERAGE_ISSUED: 1.89763
