[VMEM] WARNING: physical memory size is smaller than virtual memory size.

*** ChampSim Multicore Out-of-Order Simulator ***
Warmup Instructions: 50000000
Simulation Instructions: 100000000
Number of CPUs: 1
Page size: 4096
Core 0: /data0/tzh/champsim_traces/PARSEC/parsec_2.1.canneal.simlarge.prebuilt.drop_4750M.length_250M.champsimtrace.xz
VBerti Prefetcher
BERTI HASH ENTANGLING
BERTI IP MASK ffff
Off-chip DRAM Size: 16 GiB Channels: 1 Width: 64-bit Data Rate: 3205 MT/s
Warmup halting CPU 0 at instruction 50000003 cycle 13865141 for remainder of phase
Warmup finished CPU 0 instructions: 50000003 cycles: 13865141 cumulative IPC: 3.606 (Simulation time: 00 hr 03 min 02 sec)
Warmup complete CPU 0 instructions: 50000003 cycles: 13865141 cumulative IPC: 3.606 (Simulation time: 00 hr 03 min 02 sec)
Simulation finished CPU 0 instructions: 100000002 cycles: 335075922 cumulative IPC: 0.2984 (Simulation time: 00 hr 34 min 04 sec)
Simulation complete CPU 0 instructions: 100000002 cycles: 335075922 cumulative IPC: 0.2984 (Simulation time: 00 hr 34 min 04 sec)

ChampSim completed all CPUs

=== Simulation ===
CPU 0 runs /data0/tzh/champsim_traces/PARSEC/parsec_2.1.canneal.simlarge.prebuilt.drop_4750M.length_250M.champsimtrace.xz

Region of Interest Statistics

CPU 0 cumulative IPC: 0.2984 instructions: 100000002 cycles: 335075922
CPU 0 Branch Prediction Accuracy: 96.81% MPKI: 2.754 Average ROB Occupancy at Mispredict: 189.6
Branch type MPKI
BRANCH_DIRECT_JUMP: 0.00038
BRANCH_INDIRECT: 2e-05
BRANCH_CONDITIONAL: 2.751
BRANCH_DIRECT_CALL: 0.00046
BRANCH_INDIRECT_CALL: 0
BRANCH_RETURN: 0.00159

cpu0->cpu0_STLB TOTAL        ACCESS:    2503326 HIT:    1275737 MISS:    1227589 MSHR_MERGE:          0
cpu0->cpu0_STLB LOAD         ACCESS:    2503326 HIT:    1275737 MISS:    1227589 MSHR_MERGE:          0
cpu0->cpu0_STLB RFO          ACCESS:          0 HIT:          0 MISS:          0 MSHR_MERGE:          0
cpu0->cpu0_STLB PREFETCH     ACCESS:          0 HIT:          0 MISS:          0 MSHR_MERGE:          0
cpu0->cpu0_STLB WRITE        ACCESS:          0 HIT:          0 MISS:          0 MSHR_MERGE:          0
cpu0->cpu0_STLB TRANSLATION  ACCESS:          0 HIT:          0 MISS:          0 MSHR_MERGE:          0
cpu0->cpu0_STLB PREFETCH REQUESTED:          0 ISSUED:          0 USEFUL:          0 USELESS:          0 LATE:          0
cpu0->cpu0_STLB AVERAGE MISS LATENCY: 32.17 cycles
cpu0->cpu0_L2C TOTAL        ACCESS:    5280185 HIT:    2870679 MISS:    2409506 MSHR_MERGE:      11093
cpu0->cpu0_L2C LOAD         ACCESS:    2284789 HIT:     169255 MISS:    2115534 MSHR_MERGE:       2077
cpu0->cpu0_L2C RFO          ACCESS:       2760 HIT:       2401 MISS:        359 MSHR_MERGE:          5
cpu0->cpu0_L2C PREFETCH     ACCESS:    1014800 HIT:     956514 MISS:      58286 MSHR_MERGE:       9011
cpu0->cpu0_L2C WRITE        ACCESS:     977287 HIT:     977285 MISS:          2 MSHR_MERGE:          0
cpu0->cpu0_L2C TRANSLATION  ACCESS:    1000549 HIT:     765224 MISS:     235325 MSHR_MERGE:          0
cpu0->cpu0_L2C PREFETCH REQUESTED:     224246 ISSUED:     223876 USEFUL:       9111 USELESS:      19554 LATE:       1952
cpu0->cpu0_L2C AVERAGE MISS LATENCY: 181.2 cycles
cpu0->cpu0_L1I TOTAL        ACCESS:    7721051 HIT:    7720937 MISS:        114 MSHR_MERGE:         11
cpu0->cpu0_L1I LOAD         ACCESS:    7721051 HIT:    7720937 MISS:        114 MSHR_MERGE:         11
cpu0->cpu0_L1I RFO          ACCESS:          0 HIT:          0 MISS:          0 MSHR_MERGE:          0
cpu0->cpu0_L1I PREFETCH     ACCESS:          0 HIT:          0 MISS:          0 MSHR_MERGE:          0
cpu0->cpu0_L1I WRITE        ACCESS:          0 HIT:          0 MISS:          0 MSHR_MERGE:          0
cpu0->cpu0_L1I TRANSLATION  ACCESS:          0 HIT:          0 MISS:          0 MSHR_MERGE:          0
cpu0->cpu0_L1I PREFETCH REQUESTED:          0 ISSUED:          0 USEFUL:          0 USELESS:          0 LATE:          0
cpu0->cpu0_L1I AVERAGE MISS LATENCY: 204.5 cycles
cpu0->cpu0_L1D TOTAL        ACCESS:   28700587 HIT:   23472464 MISS:    5228123 MSHR_MERGE:    1148553
cpu0->cpu0_L1D LOAD         ACCESS:   18576249 HIT:   15145738 MISS:    3430511 MSHR_MERGE:    1145825
cpu0->cpu0_L1D RFO          ACCESS:          0 HIT:          0 MISS:          0 MSHR_MERGE:          0
cpu0->cpu0_L1D PREFETCH     ACCESS:    1492145 HIT:     699618 MISS:     792527 MSHR_MERGE:        952
cpu0->cpu0_L1D WRITE        ACCESS:    6033526 HIT:    6029715 MISS:       3811 MSHR_MERGE:       1051
cpu0->cpu0_L1D TRANSLATION  ACCESS:    2598667 HIT:    1597393 MISS:    1001274 MSHR_MERGE:        725
cpu0->cpu0_L1D PREFETCH REQUESTED:    1877775 ISSUED:    1492145 USEFUL:      48868 USELESS:       4718 LATE:        265
cpu0->cpu0_L1D AVERAGE MISS LATENCY: 138.3 cycles
cpu0->cpu0_ITLB TOTAL        ACCESS:    7022965 HIT:    7022957 MISS:          8 MSHR_MERGE:          1
cpu0->cpu0_ITLB LOAD         ACCESS:    7022965 HIT:    7022957 MISS:          8 MSHR_MERGE:          1
cpu0->cpu0_ITLB RFO          ACCESS:          0 HIT:          0 MISS:          0 MSHR_MERGE:          0
cpu0->cpu0_ITLB PREFETCH     ACCESS:          0 HIT:          0 MISS:          0 MSHR_MERGE:          0
cpu0->cpu0_ITLB WRITE        ACCESS:          0 HIT:          0 MISS:          0 MSHR_MERGE:          0
cpu0->cpu0_ITLB TRANSLATION  ACCESS:          0 HIT:          0 MISS:          0 MSHR_MERGE:          0
cpu0->cpu0_ITLB PREFETCH REQUESTED:          0 ISSUED:          0 USEFUL:          0 USELESS:          0 LATE:          0
cpu0->cpu0_ITLB AVERAGE MISS LATENCY: 296.4 cycles
cpu0->cpu0_DTLB TOTAL        ACCESS:   25220649 HIT:   21818956 MISS:    3401693 MSHR_MERGE:     898375
cpu0->cpu0_DTLB LOAD         ACCESS:   25220649 HIT:   21818956 MISS:    3401693 MSHR_MERGE:     898375
cpu0->cpu0_DTLB RFO          ACCESS:          0 HIT:          0 MISS:          0 MSHR_MERGE:          0
cpu0->cpu0_DTLB PREFETCH     ACCESS:          0 HIT:          0 MISS:          0 MSHR_MERGE:          0
cpu0->cpu0_DTLB WRITE        ACCESS:          0 HIT:          0 MISS:          0 MSHR_MERGE:          0
cpu0->cpu0_DTLB TRANSLATION  ACCESS:          0 HIT:          0 MISS:          0 MSHR_MERGE:          0
cpu0->cpu0_DTLB PREFETCH REQUESTED:          0 ISSUED:          0 USEFUL:          0 USELESS:          0 LATE:          0
cpu0->cpu0_DTLB AVERAGE MISS LATENCY: 21.26 cycles
cpu0->LLC TOTAL        ACCESS:    3331999 HIT:    1194767 MISS:    2137232 MSHR_MERGE:          0
cpu0->LLC LOAD         ACCESS:    2113457 HIT:     188479 MISS:    1924978 MSHR_MERGE:          0
cpu0->LLC RFO          ACCESS:        354 HIT:         97 MISS:        257 MSHR_MERGE:          0
cpu0->LLC PREFETCH     ACCESS:      49275 HIT:       6955 MISS:      42320 MSHR_MERGE:          0
cpu0->LLC WRITE        ACCESS:     933588 HIT:     828558 MISS:     105030 MSHR_MERGE:          0
cpu0->LLC TRANSLATION  ACCESS:     235325 HIT:     170678 MISS:      64647 MSHR_MERGE:          0
cpu0->LLC PREFETCH REQUESTED:          0 ISSUED:          0 USEFUL:          0 USELESS:          0 LATE:          0
cpu0->LLC AVERAGE MISS LATENCY: 186 cycles

DRAM Statistics

Channel 0 RQ ROW_BUFFER_HIT:        136
  ROW_BUFFER_MISS:    2032047
  AVG DBUS CONGESTED CYCLE: 15.66
Channel 0 WQ ROW_BUFFER_HIT:     338119
  ROW_BUFFER_MISS:     563553
  FULL:          0
Channel 0 REFRESHES ISSUED:      27923

[ROI Statistics]
[System Configuration]
num_cpus 1
cpu_freq 4000
fetch_width 6
decode_width 6
dispatch_width 6
execute_width 6
lq_width 2
sq_width 2
retire_width 6
scheduler_size 128
branch_mispredict_penalty 15
rob_size 352
lq_size 128
sq_size 72
ifetch_buffer_size 64
decode_buffer_size 32
dispatch_buffer_size 32
register_file_size 288
decode_latency 1
dispatch_latency 1
schedule_latency 1
execute_latency 1
page_size 4096
block_size 64
core_0_itlb_set 16
core_0_itlb_way 4
core_0_itlb_rq_size 16
core_0_itlb_wq_size 16
core_0_itlb_pq_size 0
core_0_itlb_mshr_size 8
core_0_itlb_hit_latency 1
core_0_itlb_fill_latency 1
core_0_itlb_max_tag_check 2
core_0_itlb_max_fill 2
core_0_dtlb_set 16
core_0_dtlb_way 4
core_0_dtlb_rq_size 16
core_0_dtlb_wq_size 16
core_0_dtlb_pq_size 0
core_0_dtlb_mshr_size 8
core_0_dtlb_hit_latency 1
core_0_dtlb_fill_latency 1
core_0_dtlb_max_tag_check 2
core_0_dtlb_max_fill 2
core_0_stlb_set 128
core_0_stlb_way 12
core_0_stlb_rq_size 32
core_0_stlb_wq_size 32
core_0_stlb_pq_size 0
core_0_stlb_mshr_size 16
core_0_stlb_hit_latency 4
core_0_stlb_fill_latency 4
core_0_stlb_max_tag_check 1
core_0_stlb_max_fill 1
core_0_l1i_set 64
core_0_l1i_way 8
core_0_l1i_rq_size 64
core_0_l1i_wq_size 64
core_0_l1i_pq_size 32
core_0_l1i_mshr_size 8
core_0_l1i_hit_latency 2
core_0_l1i_fill_latency 2
core_0_l1i_max_tag_check 2
core_0_l1i_max_fill 2
core_0_l1d_set 64
core_0_l1d_way 12
core_0_l1d_rq_size 64
core_0_l1d_wq_size 64
core_0_l1d_pq_size 8
core_0_l1d_mshr_size 16
core_0_l1d_hit_latency 2
core_0_l1d_fill_latency 3
core_0_l1d_max_tag_check 2
core_0_l1d_max_fill 2
core_0_l2c_set 1024
core_0_l2c_way 8
core_0_l2c_rq_size 32
core_0_l2c_wq_size 32
core_0_l2c_pq_size 16
core_0_l2c_mshr_size 32
core_0_l2c_hit_latency 5
core_0_l2c_fill_latency 5
core_0_l2c_max_tag_check 1
core_0_l2c_max_fill 1
llc_set 2048
llc_way 16
llc_rq_size 32
llc_wq_size 32
llc_pq_size 32
llc_mshr_size 64
llc_hit_latency 10
llc_fill_latency 10
llc_max_tag_check 1
llc_max_fill 1
dram_channels 1
dram_ranks 1
dram_bankgroups 8
dram_banks 4
dram_rows 65536
dram_columns 1024
dram_channel_width 8
dram_rq_size 64
dram_wq_size 64
dram_size 17179869184
core_0_itlb_prefetcher no
core_0_dtlb_prefetcher no
core_0_stlb_prefetcher no
core_0_l1i_prefetcher next_line
core_0_l1d_prefetcher vberti
core_0_l2c_prefetcher ip_stride
llc_prefetcher no
llc_replacement drrip

Core_0_instructions 100000002
Core_0_cycles 335075922
Core_0_IPC 0.29844
Core_0_branch_prediction_accuracy 96.8101
Core_0_branch_MPKI 2.75384
Core_0_average_ROB_occupancy_at_mispredict 189.557

Core_0_ITLB_total_access 7022965
Core_0_ITLB_total_hit 7022957
Core_0_ITLB_total_miss 8
Core_0_ITLB_total_MPKI 8e-05
Core_0_ITLB_total_miss_rate 1.13912e-06
Core_0_ITLB_demand_access 7022965
Core_0_ITLB_demand_hit 7022957
Core_0_ITLB_demand_miss 8
Core_0_ITLB_demand_MPKI 8e-05
Core_0_ITLB_demand_miss_rate 1.13912e-06
Core_0_ITLB_load_access 7022965
Core_0_ITLB_load_hit 7022957
Core_0_ITLB_load_miss 8
Core_0_ITLB_load_MPKI 8e-05
Core_0_ITLB_load_miss_rate 1.13912e-06
Core_0_ITLB_rfo_access 0
Core_0_ITLB_rfo_hit 0
Core_0_ITLB_rfo_miss 0
Core_0_ITLB_rfo_MPKI 0
Core_0_ITLB_rfo_miss_rate 0
Core_0_ITLB_prefetch_access 0
Core_0_ITLB_prefetch_hit 0
Core_0_ITLB_prefetch_miss 0
Core_0_ITLB_prefetch_MPKI 0
Core_0_ITLB_prefetch_miss_rate 0
Core_0_ITLB_writeback_access 0
Core_0_ITLB_writeback_hit 0
Core_0_ITLB_writeback_miss 0
Core_0_ITLB_writeback_MPKI 0
Core_0_ITLB_writeback_miss_rate 0
Core_0_ITLB_prefetch_requested 0
Core_0_ITLB_prefetch_issued 0
Core_0_ITLB_prefetch_useful 0
Core_0_ITLB_prefetch_useless 0
Core_0_ITLB_prefetch_late 0
Core_0_ITLB_prefetch_accuracy 0
Core_0_ITLB_prefetch_coverage 0

Core_0_DTLB_total_access 25220649
Core_0_DTLB_total_hit 21818956
Core_0_DTLB_total_miss 3401693
Core_0_DTLB_total_MPKI 34.0169
Core_0_DTLB_total_miss_rate 0.134877
Core_0_DTLB_demand_access 25220649
Core_0_DTLB_demand_hit 21818956
Core_0_DTLB_demand_miss 3401693
Core_0_DTLB_demand_MPKI 34.0169
Core_0_DTLB_demand_miss_rate 0.134877
Core_0_DTLB_load_access 25220649
Core_0_DTLB_load_hit 21818956
Core_0_DTLB_load_miss 3401693
Core_0_DTLB_load_MPKI 34.0169
Core_0_DTLB_load_miss_rate 0.134877
Core_0_DTLB_rfo_access 0
Core_0_DTLB_rfo_hit 0
Core_0_DTLB_rfo_miss 0
Core_0_DTLB_rfo_MPKI 0
Core_0_DTLB_rfo_miss_rate 0
Core_0_DTLB_prefetch_access 0
Core_0_DTLB_prefetch_hit 0
Core_0_DTLB_prefetch_miss 0
Core_0_DTLB_prefetch_MPKI 0
Core_0_DTLB_prefetch_miss_rate 0
Core_0_DTLB_writeback_access 0
Core_0_DTLB_writeback_hit 0
Core_0_DTLB_writeback_miss 0
Core_0_DTLB_writeback_MPKI 0
Core_0_DTLB_writeback_miss_rate 0
Core_0_DTLB_prefetch_requested 0
Core_0_DTLB_prefetch_issued 0
Core_0_DTLB_prefetch_useful 0
Core_0_DTLB_prefetch_useless 0
Core_0_DTLB_prefetch_late 0
Core_0_DTLB_prefetch_accuracy 0
Core_0_DTLB_prefetch_coverage 0

Core_0_STLB_total_access 2503326
Core_0_STLB_total_hit 1275737
Core_0_STLB_total_miss 1227589
Core_0_STLB_total_MPKI 12.2759
Core_0_STLB_total_miss_rate 0.490383
Core_0_STLB_demand_access 2503326
Core_0_STLB_demand_hit 1275737
Core_0_STLB_demand_miss 1227589
Core_0_STLB_demand_MPKI 12.2759
Core_0_STLB_demand_miss_rate 0.490383
Core_0_STLB_load_access 2503326
Core_0_STLB_load_hit 1275737
Core_0_STLB_load_miss 1227589
Core_0_STLB_load_MPKI 12.2759
Core_0_STLB_load_miss_rate 0.490383
Core_0_STLB_rfo_access 0
Core_0_STLB_rfo_hit 0
Core_0_STLB_rfo_miss 0
Core_0_STLB_rfo_MPKI 0
Core_0_STLB_rfo_miss_rate 0
Core_0_STLB_prefetch_access 0
Core_0_STLB_prefetch_hit 0
Core_0_STLB_prefetch_miss 0
Core_0_STLB_prefetch_MPKI 0
Core_0_STLB_prefetch_miss_rate 0
Core_0_STLB_writeback_access 0
Core_0_STLB_writeback_hit 0
Core_0_STLB_writeback_miss 0
Core_0_STLB_writeback_MPKI 0
Core_0_STLB_writeback_miss_rate 0
Core_0_STLB_prefetch_requested 0
Core_0_STLB_prefetch_issued 0
Core_0_STLB_prefetch_useful 0
Core_0_STLB_prefetch_useless 0
Core_0_STLB_prefetch_late 0
Core_0_STLB_prefetch_accuracy 0
Core_0_STLB_prefetch_coverage 0

Core_0_L1I_total_access 7721051
Core_0_L1I_total_hit 7720937
Core_0_L1I_total_miss 114
Core_0_L1I_total_MPKI 0.00114
Core_0_L1I_total_miss_rate 1.47648e-05
Core_0_L1I_demand_access 7721051
Core_0_L1I_demand_hit 7720937
Core_0_L1I_demand_miss 114
Core_0_L1I_demand_MPKI 0.00114
Core_0_L1I_demand_miss_rate 1.47648e-05
Core_0_L1I_load_access 7721051
Core_0_L1I_load_hit 7720937
Core_0_L1I_load_miss 114
Core_0_L1I_load_MPKI 0.00114
Core_0_L1I_load_miss_rate 1.47648e-05
Core_0_L1I_rfo_access 0
Core_0_L1I_rfo_hit 0
Core_0_L1I_rfo_miss 0
Core_0_L1I_rfo_MPKI 0
Core_0_L1I_rfo_miss_rate 0
Core_0_L1I_prefetch_access 0
Core_0_L1I_prefetch_hit 0
Core_0_L1I_prefetch_miss 0
Core_0_L1I_prefetch_MPKI 0
Core_0_L1I_prefetch_miss_rate 0
Core_0_L1I_writeback_access 0
Core_0_L1I_writeback_hit 0
Core_0_L1I_writeback_miss 0
Core_0_L1I_writeback_MPKI 0
Core_0_L1I_writeback_miss_rate 0
Core_0_L1I_prefetch_requested 0
Core_0_L1I_prefetch_issued 0
Core_0_L1I_prefetch_useful 0
Core_0_L1I_prefetch_useless 0
Core_0_L1I_prefetch_late 0
Core_0_L1I_prefetch_accuracy 0
Core_0_L1I_prefetch_coverage 0

Core_0_L1D_total_access 26101920
Core_0_L1D_total_hit 21875071
Core_0_L1D_total_miss 4226849
Core_0_L1D_total_MPKI 42.2685
Core_0_L1D_total_miss_rate 0.161936
Core_0_L1D_demand_access 18576249
Core_0_L1D_demand_hit 15145738
Core_0_L1D_demand_miss 3430511
Core_0_L1D_demand_MPKI 34.3051
Core_0_L1D_demand_miss_rate 0.184672
Core_0_L1D_load_access 18576249
Core_0_L1D_load_hit 15145738
Core_0_L1D_load_miss 3430511
Core_0_L1D_load_MPKI 34.3051
Core_0_L1D_load_miss_rate 0.184672
Core_0_L1D_rfo_access 0
Core_0_L1D_rfo_hit 0
Core_0_L1D_rfo_miss 0
Core_0_L1D_rfo_MPKI 0
Core_0_L1D_rfo_miss_rate 0
Core_0_L1D_prefetch_access 1492145
Core_0_L1D_prefetch_hit 699618
Core_0_L1D_prefetch_miss 792527
Core_0_L1D_prefetch_MPKI 7.92527
Core_0_L1D_prefetch_miss_rate 0.531133
Core_0_L1D_writeback_access 6033526
Core_0_L1D_writeback_hit 6029715
Core_0_L1D_writeback_miss 3811
Core_0_L1D_writeback_MPKI 0.03811
Core_0_L1D_writeback_miss_rate 0.000631637
Core_0_L1D_prefetch_requested 1877775
Core_0_L1D_prefetch_issued 1492145
Core_0_L1D_prefetch_useful 48868
Core_0_L1D_prefetch_useless 4718
Core_0_L1D_prefetch_late 265
Core_0_L1D_prefetch_accuracy 0.0327502
Core_0_L1D_prefetch_coverage 0.014045

Core_0_L2C_total_access 4279636
Core_0_L2C_total_hit 2105455
Core_0_L2C_total_miss 2174181
Core_0_L2C_total_MPKI 21.7418
Core_0_L2C_total_miss_rate 0.508029
Core_0_L2C_demand_access 2287549
Core_0_L2C_demand_hit 171656
Core_0_L2C_demand_miss 2115893
Core_0_L2C_demand_MPKI 21.1589
Core_0_L2C_demand_miss_rate 0.924961
Core_0_L2C_load_access 2284789
Core_0_L2C_load_hit 169255
Core_0_L2C_load_miss 2115534
Core_0_L2C_load_MPKI 21.1553
Core_0_L2C_load_miss_rate 0.925921
Core_0_L2C_rfo_access 2760
Core_0_L2C_rfo_hit 2401
Core_0_L2C_rfo_miss 359
Core_0_L2C_rfo_MPKI 0.00359
Core_0_L2C_rfo_miss_rate 0.130072
Core_0_L2C_prefetch_access 1014800
Core_0_L2C_prefetch_hit 956514
Core_0_L2C_prefetch_miss 58286
Core_0_L2C_prefetch_MPKI 0.58286
Core_0_L2C_prefetch_miss_rate 0.0574359
Core_0_L2C_writeback_access 977287
Core_0_L2C_writeback_hit 977285
Core_0_L2C_writeback_miss 2
Core_0_L2C_writeback_MPKI 2e-05
Core_0_L2C_writeback_miss_rate 2.04648e-06
Core_0_L2C_prefetch_requested 224246
Core_0_L2C_prefetch_issued 223876
Core_0_L2C_prefetch_useful 9111
Core_0_L2C_prefetch_useless 19554
Core_0_L2C_prefetch_late 1952
Core_0_L2C_prefetch_accuracy 0.0406966
Core_0_L2C_prefetch_coverage 0.00428752

Core_0_LLC_total_access 3096674
Core_0_LLC_total_hit 1024089
Core_0_LLC_total_miss 2072585
Core_0_LLC_total_MPKI 20.7258
Core_0_LLC_total_miss_rate 0.669294
Core_0_LLC_demand_access 2113811
Core_0_LLC_demand_hit 188576
Core_0_LLC_demand_miss 1925235
Core_0_LLC_demand_MPKI 19.2523
Core_0_LLC_demand_miss_rate 0.910789
Core_0_LLC_load_access 2113457
Core_0_LLC_load_hit 188479
Core_0_LLC_load_miss 1924978
Core_0_LLC_load_MPKI 19.2498
Core_0_LLC_load_miss_rate 0.91082
Core_0_LLC_rfo_access 354
Core_0_LLC_rfo_hit 97
Core_0_LLC_rfo_miss 257
Core_0_LLC_rfo_MPKI 0.00257
Core_0_LLC_rfo_miss_rate 0.725989
Core_0_LLC_prefetch_access 49275
Core_0_LLC_prefetch_hit 6955
Core_0_LLC_prefetch_miss 42320
Core_0_LLC_prefetch_MPKI 0.4232
Core_0_LLC_prefetch_miss_rate 0.858853
Core_0_LLC_writeback_access 933588
Core_0_LLC_writeback_hit 828558
Core_0_LLC_writeback_miss 105030
Core_0_LLC_writeback_MPKI 1.0503
Core_0_LLC_writeback_miss_rate 0.112501
Core_0_LLC_prefetch_requested 0
Core_0_LLC_prefetch_issued 0
Core_0_LLC_prefetch_useful 0
Core_0_LLC_prefetch_useless 0
Core_0_LLC_prefetch_late 0
Core_0_LLC_prefetch_accuracy 0
Core_0_LLC_prefetch_coverage 0

[DRAM Statistics]
Channel_0_RQ_row_buffer_hit 136
Channel_0_RQ_row_buffer_miss 2032047
Channel_0_WQ_row_buffer_hit 338119
Channel_0_WQ_row_buffer_miss 563553
Channel_0_WQ_full 0
Channel_0_dbus_congested 7867591
DRAM_total_RQ_row_buffer_hit 136
DRAM_total_RQ_row_buffer_miss 2032047
DRAM_total_WQ_row_buffer_hit 338119
DRAM_total_WQ_row_buffer_miss 563553
DRAM_total_WQ_full 0
DRAM_total_dbus_congested 7867591
DRAM_avg_congested_cycle 15.6646

====== DRAM_RQ_TRAFFIC ========
DRAM_RQ_READ_TRAFFIC_BREAKDOWN:
data_demand_read.count = 1925132
data_demand_read.share = 94.73%

inst_demand_read.count = 103
inst_demand_read.share = 0.01%

cache_inst_prefetch.count = 0
cache_inst_prefetch.share = 0.00%

cache_data_prefetch.count = 42320
cache_data_prefetch.share = 2.08%

stlb_data_demand.count = 64638
stlb_data_demand.share = 3.18%

stlb_inst_demand.count = 3
stlb_inst_demand.share = 0.00%

stlb_l1i_pref.count = 0
stlb_l1i_pref.share = 0.00%

stlb_l1d_pref.count = 6
stlb_l1d_pref.share = 0.00%

DRAM_RQ_READ_TRAFFIC_SUMMARY:
cache_demand.count = 1925235
cache_demand.share = 94.74%

cache_prefetch.count = 42320
cache_prefetch.share = 2.08%

stlb_demand.count = 64641
stlb_demand.share = 3.18%

stlb_prefetch.count = 6
stlb_prefetch.share = 0.00%

DRAM_RQ_READ_TRAFFIC_DEBUG:
total_classified_read.count = 2032202
unclassified_read.count = 0
total_read_with_other.count = 2032202

classified_plus_unclassified_check.count = 2032202
dram_rq_read_total_observed.count = 2032202
dram_rq_read_total_observed.per_1K_instructions = 20.322

STLB_MISS_PTW_DRAM_TOUCH_BREAKDOWN:
stlb_miss_total.count = 1227589

stlb_miss_touch_dram.count = 64707
stlb_miss_touch_dram.share = 5.27%

stlb_miss_no_dram_touch.count = 1162882
stlb_miss_no_dram_touch.share = 94.73%

STLB_MISS_PTW_DRAM_TOUCH_DEBUG:
stlb_miss_touch_plus_no_touch.count = 1227589
stlb_miss_total_check.count = 1227589

======STLB miss causes ========
Core_0_STLB_miss_cause_breakdown
Core_0_STLB_cause_Demand_Data_miss 1227074
Core_0_STLB_cause_Demand_Data_miss_rate 0.490177
Core_0_STLB_cause_Demand_Instruction_miss 7
Core_0_STLB_cause_Demand_Instruction_miss_rate 2.79628e-06
Core_0_STLB_cause_L1D_Prefetch_miss 508
Core_0_STLB_cause_L1D_Prefetch_miss_rate 0.00020293
Core_0_STLB_cause_L1I_Prefetch_miss 0
Core_0_STLB_cause_L1I_Prefetch_miss_rate 0
Core_0_STLB_cause_Other_miss 0
Core_0_STLB_cause_Other_miss_rate 0
Core_0_STLB_Demand_miss 1227081
Core_0_STLB_Demand_miss_rate 0.49018
Core_0_STLB_L1D_Prefetch_miss 508
Core_0_STLB_L1D_Prefetch_miss_rate 0.00020293
Core_0_STLB_Other_miss 0
Core_0_STLB_Other_miss_rate 0
BERTI TO_L1: 1120637 TO_L2: 2190521 TO_L2_BC_MSHR: 0
BERTI AVG_LAT: 124.356 NUM_TRACK_LATENCY: 3515697 NUM_CANT_TRACK_LATENCY: 0
BERTI CROSS_PAGE 339407 NO_CROSS_PAGE: 2971751
BERTI FOUND_BERTI: 16647247 NO_FOUND_BERTI: 16381669
BERTI AVERAGE_ISSUED: 3.49183
