[VMEM] WARNING: physical memory size is smaller than virtual memory size.

*** ChampSim Multicore Out-of-Order Simulator ***
Warmup Instructions: 20000000
Simulation Instructions: 50000000
Number of CPUs: 1
Page size: 4096
Core 0: /data0/tzh/champsim_traces/SPEC06/401.bzip2-38B.champsimtrace.xz
 L1D Berti prefetcher
Off-chip DRAM Size: 4 GiB Channels: 1 Width: 64-bit Data Rate: 3205 MT/s
Warmup halting CPU 0 at instruction 20000004 cycle 4490352 for remainder of phase
Warmup finished CPU 0 instructions: 20000004 cycles: 4490352 cumulative IPC: 4.454 (Simulation time: 00 hr 00 min 57 sec)
Warmup complete CPU 0 instructions: 20000004 cycles: 4490352 cumulative IPC: 4.454 (Simulation time: 00 hr 00 min 57 sec)
Simulation finished CPU 0 instructions: 50000004 cycles: 23706870 cumulative IPC: 2.109 (Simulation time: 00 hr 04 min 23 sec)
Simulation complete CPU 0 instructions: 50000004 cycles: 23706870 cumulative IPC: 2.109 (Simulation time: 00 hr 04 min 23 sec)

ChampSim completed all CPUs

=== Simulation ===
CPU 0 runs /data0/tzh/champsim_traces/SPEC06/401.bzip2-38B.champsimtrace.xz

Region of Interest Statistics

CPU 0 cumulative IPC: 2.109 instructions: 50000004 cycles: 23706870
CPU 0 Branch Prediction Accuracy: 95.92% MPKI: 4.818 Average ROB Occupancy at Mispredict: 97.62
Branch type MPKI
BRANCH_DIRECT_JUMP: 0.0005
BRANCH_INDIRECT: 0
BRANCH_CONDITIONAL: 4.814
BRANCH_DIRECT_CALL: 0.0015
BRANCH_INDIRECT_CALL: 0
BRANCH_RETURN: 0.00164

cpu0->cpu0_STLB TOTAL        ACCESS:        917 HIT:        698 MISS:        219 MSHR_MERGE:          0
cpu0->cpu0_STLB LOAD         ACCESS:        917 HIT:        698 MISS:        219 MSHR_MERGE:          0
cpu0->cpu0_STLB RFO          ACCESS:          0 HIT:          0 MISS:          0 MSHR_MERGE:          0
cpu0->cpu0_STLB PREFETCH     ACCESS:          0 HIT:          0 MISS:          0 MSHR_MERGE:          0
cpu0->cpu0_STLB WRITE        ACCESS:          0 HIT:          0 MISS:          0 MSHR_MERGE:          0
cpu0->cpu0_STLB TRANSLATION  ACCESS:          0 HIT:          0 MISS:          0 MSHR_MERGE:          0
cpu0->cpu0_STLB PREFETCH REQUESTED:          0 ISSUED:          0 USEFUL:          0 USELESS:          0 LATE:          0
cpu0->cpu0_STLB AVERAGE MISS LATENCY: 247.7 cycles
cpu0->cpu0_L2C TOTAL        ACCESS:     294578 HIT:     222963 MISS:      71615 MSHR_MERGE:      27174
cpu0->cpu0_L2C LOAD         ACCESS:       1395 HIT:        718 MISS:        677 MSHR_MERGE:          2
cpu0->cpu0_L2C RFO          ACCESS:      13058 HIT:        709 MISS:      12349 MSHR_MERGE:          0
cpu0->cpu0_L2C PREFETCH     ACCESS:     266934 HIT:     208467 MISS:      58467 MSHR_MERGE:      27172
cpu0->cpu0_L2C WRITE        ACCESS:      13149 HIT:      13067 MISS:         82 MSHR_MERGE:          0
cpu0->cpu0_L2C TRANSLATION  ACCESS:         42 HIT:          2 MISS:         40 MSHR_MERGE:          0
cpu0->cpu0_L2C PREFETCH REQUESTED:     223626 ISSUED:     223590 USEFUL:      28419 USELESS:       1190 LATE:          2
cpu0->cpu0_L2C AVERAGE MISS LATENCY: 81.67 cycles
cpu0->cpu0_L1I TOTAL        ACCESS:    3827060 HIT:    3826919 MISS:        141 MSHR_MERGE:         16
cpu0->cpu0_L1I LOAD         ACCESS:    3827060 HIT:    3826919 MISS:        141 MSHR_MERGE:         16
cpu0->cpu0_L1I RFO          ACCESS:          0 HIT:          0 MISS:          0 MSHR_MERGE:          0
cpu0->cpu0_L1I PREFETCH     ACCESS:          0 HIT:          0 MISS:          0 MSHR_MERGE:          0
cpu0->cpu0_L1I WRITE        ACCESS:          0 HIT:          0 MISS:          0 MSHR_MERGE:          0
cpu0->cpu0_L1I TRANSLATION  ACCESS:          0 HIT:          0 MISS:          0 MSHR_MERGE:          0
cpu0->cpu0_L1I PREFETCH REQUESTED:          0 ISSUED:          0 USEFUL:          0 USELESS:          0 LATE:          0
cpu0->cpu0_L1I AVERAGE MISS LATENCY: 194.6 cycles
cpu0->cpu0_L1D TOTAL        ACCESS:   18680640 HIT:   18562106 MISS:     118534 MSHR_MERGE:      60820
cpu0->cpu0_L1D LOAD         ACCESS:    9652869 HIT:    9648252 MISS:       4617 MSHR_MERGE:       3347
cpu0->cpu0_L1D RFO          ACCESS:          0 HIT:          0 MISS:          0 MSHR_MERGE:          0
cpu0->cpu0_L1D PREFETCH     ACCESS:      54264 HIT:      10911 MISS:      43353 MSHR_MERGE:          9
cpu0->cpu0_L1D WRITE        ACCESS:    8973066 HIT:    8902545 MISS:      70521 MSHR_MERGE:      57463
cpu0->cpu0_L1D TRANSLATION  ACCESS:        441 HIT:        398 MISS:         43 MSHR_MERGE:          1
cpu0->cpu0_L1D PREFETCH REQUESTED:      54262 ISSUED:      54262 USEFUL:      42805 USELESS:        536 LATE:        184
cpu0->cpu0_L1D AVERAGE MISS LATENCY: 81.57 cycles
cpu0->cpu0_ITLB TOTAL        ACCESS:    3116481 HIT:    3116474 MISS:          7 MSHR_MERGE:          2
cpu0->cpu0_ITLB LOAD         ACCESS:    3116481 HIT:    3116474 MISS:          7 MSHR_MERGE:          2
cpu0->cpu0_ITLB RFO          ACCESS:          0 HIT:          0 MISS:          0 MSHR_MERGE:          0
cpu0->cpu0_ITLB PREFETCH     ACCESS:          0 HIT:          0 MISS:          0 MSHR_MERGE:          0
cpu0->cpu0_ITLB WRITE        ACCESS:          0 HIT:          0 MISS:          0 MSHR_MERGE:          0
cpu0->cpu0_ITLB TRANSLATION  ACCESS:          0 HIT:          0 MISS:          0 MSHR_MERGE:          0
cpu0->cpu0_ITLB PREFETCH REQUESTED:          0 ISSUED:          0 USEFUL:          0 USELESS:          0 LATE:          0
cpu0->cpu0_ITLB AVERAGE MISS LATENCY: 298.4 cycles
cpu0->cpu0_DTLB TOTAL        ACCESS:   16784175 HIT:   16781918 MISS:       2257 MSHR_MERGE:       1345
cpu0->cpu0_DTLB LOAD         ACCESS:   16784175 HIT:   16781918 MISS:       2257 MSHR_MERGE:       1345
cpu0->cpu0_DTLB RFO          ACCESS:          0 HIT:          0 MISS:          0 MSHR_MERGE:          0
cpu0->cpu0_DTLB PREFETCH     ACCESS:          0 HIT:          0 MISS:          0 MSHR_MERGE:          0
cpu0->cpu0_DTLB WRITE        ACCESS:          0 HIT:          0 MISS:          0 MSHR_MERGE:          0
cpu0->cpu0_DTLB TRANSLATION  ACCESS:          0 HIT:          0 MISS:          0 MSHR_MERGE:          0
cpu0->cpu0_DTLB PREFETCH REQUESTED:          0 ISSUED:          0 USEFUL:          0 USELESS:          0 LATE:          0
cpu0->cpu0_DTLB AVERAGE MISS LATENCY: 63.12 cycles
cpu0->LLC TOTAL        ACCESS:      53508 HIT:      35616 MISS:      17892 MSHR_MERGE:          0
cpu0->LLC LOAD         ACCESS:        675 HIT:        311 MISS:        364 MSHR_MERGE:          0
cpu0->LLC RFO          ACCESS:      12349 HIT:       6733 MISS:       5616 MSHR_MERGE:          0
cpu0->LLC PREFETCH     ACCESS:      31295 HIT:      20212 MISS:      11083 MSHR_MERGE:          0
cpu0->LLC WRITE        ACCESS:       9149 HIT:       8357 MISS:        792 MSHR_MERGE:          0
cpu0->LLC TRANSLATION  ACCESS:         40 HIT:          3 MISS:         37 MSHR_MERGE:          0
cpu0->LLC PREFETCH REQUESTED:          0 ISSUED:          0 USEFUL:          0 USELESS:          0 LATE:          0
cpu0->LLC AVERAGE MISS LATENCY: 129 cycles

DRAM Statistics

Channel 0 RQ ROW_BUFFER_HIT:       3014
  ROW_BUFFER_MISS:      14086
  AVG DBUS CONGESTED CYCLE: 3.878
Channel 0 WQ ROW_BUFFER_HIT:         73
  ROW_BUFFER_MISS:        925
  FULL:          0
Channel 0 REFRESHES ISSUED:       1975

[ROI Statistics]
[System Configuration]
num_cpus 1
cpu_freq 4000
fetch_width 6
decode_width 6
dispatch_width 6
execute_width 6
lq_width 2
sq_width 2
retire_width 6
scheduler_size 160
branch_mispredict_penalty 1
rob_size 352
lq_size 240
sq_size 112
ifetch_buffer_size 64
decode_buffer_size 32
dispatch_buffer_size 32
register_file_size 288
decode_latency 1
dispatch_latency 1
schedule_latency 0
execute_latency 0
page_size 4096
block_size 64
core_0_itlb_set 16
core_0_itlb_way 4
core_0_itlb_rq_size 16
core_0_itlb_wq_size 16
core_0_itlb_pq_size 0
core_0_itlb_mshr_size 8
core_0_itlb_hit_latency 1
core_0_itlb_fill_latency 1
core_0_itlb_max_tag_check 2
core_0_itlb_max_fill 2
core_0_dtlb_set 16
core_0_dtlb_way 4
core_0_dtlb_rq_size 16
core_0_dtlb_wq_size 16
core_0_dtlb_pq_size 0
core_0_dtlb_mshr_size 8
core_0_dtlb_hit_latency 1
core_0_dtlb_fill_latency 1
core_0_dtlb_max_tag_check 2
core_0_dtlb_max_fill 2
core_0_stlb_set 128
core_0_stlb_way 12
core_0_stlb_rq_size 32
core_0_stlb_wq_size 32
core_0_stlb_pq_size 0
core_0_stlb_mshr_size 16
core_0_stlb_hit_latency 4
core_0_stlb_fill_latency 4
core_0_stlb_max_tag_check 1
core_0_stlb_max_fill 1
core_0_l1i_set 64
core_0_l1i_way 8
core_0_l1i_rq_size 64
core_0_l1i_wq_size 64
core_0_l1i_pq_size 32
core_0_l1i_mshr_size 8
core_0_l1i_hit_latency 2
core_0_l1i_fill_latency 2
core_0_l1i_max_tag_check 2
core_0_l1i_max_fill 2
core_0_l1d_set 64
core_0_l1d_way 12
core_0_l1d_rq_size 64
core_0_l1d_wq_size 64
core_0_l1d_pq_size 8
core_0_l1d_mshr_size 16
core_0_l1d_hit_latency 2
core_0_l1d_fill_latency 3
core_0_l1d_max_tag_check 2
core_0_l1d_max_fill 2
core_0_l2c_set 1024
core_0_l2c_way 8
core_0_l2c_rq_size 32
core_0_l2c_wq_size 32
core_0_l2c_pq_size 16
core_0_l2c_mshr_size 32
core_0_l2c_hit_latency 5
core_0_l2c_fill_latency 5
core_0_l2c_max_tag_check 1
core_0_l2c_max_fill 1
llc_set 2048
llc_way 16
llc_rq_size 32
llc_wq_size 32
llc_pq_size 32
llc_mshr_size 64
llc_hit_latency 10
llc_fill_latency 10
llc_max_tag_check 1
llc_max_fill 1
dram_channels 1
dram_ranks 1
dram_bankgroups 8
dram_banks 4
dram_rows 16384
dram_columns 1024
dram_channel_width 8
dram_rq_size 64
dram_wq_size 64
dram_size 4294967296
core_0_itlb_prefetcher no
core_0_dtlb_prefetcher no
core_0_stlb_prefetcher no
core_0_l1i_prefetcher next_line
core_0_l1d_prefetcher berti
core_0_l2c_prefetcher pythia
llc_prefetcher no
llc_replacement drrip

Core_0_instructions 50000004
Core_0_cycles 23706870
Core_0_IPC 2.10909
Core_0_branch_prediction_accuracy 95.9219
Core_0_branch_MPKI 4.81764
Core_0_average_ROB_occupancy_at_mispredict 97.6196

Core_0_ITLB_total_access 3116481
Core_0_ITLB_total_hit 3116474
Core_0_ITLB_total_miss 7
Core_0_ITLB_total_MPKI 0.00014
Core_0_ITLB_total_miss_rate 2.24612e-06
Core_0_ITLB_demand_access 3116481
Core_0_ITLB_demand_hit 3116474
Core_0_ITLB_demand_miss 7
Core_0_ITLB_demand_MPKI 0.00014
Core_0_ITLB_demand_miss_rate 2.24612e-06
Core_0_ITLB_load_access 3116481
Core_0_ITLB_load_hit 3116474
Core_0_ITLB_load_miss 7
Core_0_ITLB_load_MPKI 0.00014
Core_0_ITLB_load_miss_rate 2.24612e-06
Core_0_ITLB_rfo_access 0
Core_0_ITLB_rfo_hit 0
Core_0_ITLB_rfo_miss 0
Core_0_ITLB_rfo_MPKI 0
Core_0_ITLB_rfo_miss_rate 0
Core_0_ITLB_prefetch_access 0
Core_0_ITLB_prefetch_hit 0
Core_0_ITLB_prefetch_miss 0
Core_0_ITLB_prefetch_MPKI 0
Core_0_ITLB_prefetch_miss_rate 0
Core_0_ITLB_writeback_access 0
Core_0_ITLB_writeback_hit 0
Core_0_ITLB_writeback_miss 0
Core_0_ITLB_writeback_MPKI 0
Core_0_ITLB_writeback_miss_rate 0
Core_0_ITLB_prefetch_requested 0
Core_0_ITLB_prefetch_issued 0
Core_0_ITLB_prefetch_useful 0
Core_0_ITLB_prefetch_useless 0
Core_0_ITLB_prefetch_late 0
Core_0_ITLB_prefetch_accuracy 0
Core_0_ITLB_prefetch_coverage 0

Core_0_DTLB_total_access 16784175
Core_0_DTLB_total_hit 16781918
Core_0_DTLB_total_miss 2257
Core_0_DTLB_total_MPKI 0.04514
Core_0_DTLB_total_miss_rate 0.000134472
Core_0_DTLB_demand_access 16784175
Core_0_DTLB_demand_hit 16781918
Core_0_DTLB_demand_miss 2257
Core_0_DTLB_demand_MPKI 0.04514
Core_0_DTLB_demand_miss_rate 0.000134472
Core_0_DTLB_load_access 16784175
Core_0_DTLB_load_hit 16781918
Core_0_DTLB_load_miss 2257
Core_0_DTLB_load_MPKI 0.04514
Core_0_DTLB_load_miss_rate 0.000134472
Core_0_DTLB_rfo_access 0
Core_0_DTLB_rfo_hit 0
Core_0_DTLB_rfo_miss 0
Core_0_DTLB_rfo_MPKI 0
Core_0_DTLB_rfo_miss_rate 0
Core_0_DTLB_prefetch_access 0
Core_0_DTLB_prefetch_hit 0
Core_0_DTLB_prefetch_miss 0
Core_0_DTLB_prefetch_MPKI 0
Core_0_DTLB_prefetch_miss_rate 0
Core_0_DTLB_writeback_access 0
Core_0_DTLB_writeback_hit 0
Core_0_DTLB_writeback_miss 0
Core_0_DTLB_writeback_MPKI 0
Core_0_DTLB_writeback_miss_rate 0
Core_0_DTLB_prefetch_requested 0
Core_0_DTLB_prefetch_issued 0
Core_0_DTLB_prefetch_useful 0
Core_0_DTLB_prefetch_useless 0
Core_0_DTLB_prefetch_late 0
Core_0_DTLB_prefetch_accuracy 0
Core_0_DTLB_prefetch_coverage 0

Core_0_STLB_total_access 917
Core_0_STLB_total_hit 698
Core_0_STLB_total_miss 219
Core_0_STLB_total_MPKI 0.00438
Core_0_STLB_total_miss_rate 0.238822
Core_0_STLB_demand_access 917
Core_0_STLB_demand_hit 698
Core_0_STLB_demand_miss 219
Core_0_STLB_demand_MPKI 0.00438
Core_0_STLB_demand_miss_rate 0.238822
Core_0_STLB_load_access 917
Core_0_STLB_load_hit 698
Core_0_STLB_load_miss 219
Core_0_STLB_load_MPKI 0.00438
Core_0_STLB_load_miss_rate 0.238822
Core_0_STLB_rfo_access 0
Core_0_STLB_rfo_hit 0
Core_0_STLB_rfo_miss 0
Core_0_STLB_rfo_MPKI 0
Core_0_STLB_rfo_miss_rate 0
Core_0_STLB_prefetch_access 0
Core_0_STLB_prefetch_hit 0
Core_0_STLB_prefetch_miss 0
Core_0_STLB_prefetch_MPKI 0
Core_0_STLB_prefetch_miss_rate 0
Core_0_STLB_writeback_access 0
Core_0_STLB_writeback_hit 0
Core_0_STLB_writeback_miss 0
Core_0_STLB_writeback_MPKI 0
Core_0_STLB_writeback_miss_rate 0
Core_0_STLB_prefetch_requested 0
Core_0_STLB_prefetch_issued 0
Core_0_STLB_prefetch_useful 0
Core_0_STLB_prefetch_useless 0
Core_0_STLB_prefetch_late 0
Core_0_STLB_prefetch_accuracy 0
Core_0_STLB_prefetch_coverage 0

Core_0_L1I_total_access 3827060
Core_0_L1I_total_hit 3826919
Core_0_L1I_total_miss 141
Core_0_L1I_total_MPKI 0.00282
Core_0_L1I_total_miss_rate 3.68429e-05
Core_0_L1I_demand_access 3827060
Core_0_L1I_demand_hit 3826919
Core_0_L1I_demand_miss 141
Core_0_L1I_demand_MPKI 0.00282
Core_0_L1I_demand_miss_rate 3.68429e-05
Core_0_L1I_load_access 3827060
Core_0_L1I_load_hit 3826919
Core_0_L1I_load_miss 141
Core_0_L1I_load_MPKI 0.00282
Core_0_L1I_load_miss_rate 3.68429e-05
Core_0_L1I_rfo_access 0
Core_0_L1I_rfo_hit 0
Core_0_L1I_rfo_miss 0
Core_0_L1I_rfo_MPKI 0
Core_0_L1I_rfo_miss_rate 0
Core_0_L1I_prefetch_access 0
Core_0_L1I_prefetch_hit 0
Core_0_L1I_prefetch_miss 0
Core_0_L1I_prefetch_MPKI 0
Core_0_L1I_prefetch_miss_rate 0
Core_0_L1I_writeback_access 0
Core_0_L1I_writeback_hit 0
Core_0_L1I_writeback_miss 0
Core_0_L1I_writeback_MPKI 0
Core_0_L1I_writeback_miss_rate 0
Core_0_L1I_prefetch_requested 0
Core_0_L1I_prefetch_issued 0
Core_0_L1I_prefetch_useful 0
Core_0_L1I_prefetch_useless 0
Core_0_L1I_prefetch_late 0
Core_0_L1I_prefetch_accuracy 0
Core_0_L1I_prefetch_coverage 0

Core_0_L1D_total_access 18680199
Core_0_L1D_total_hit 18561708
Core_0_L1D_total_miss 118491
Core_0_L1D_total_MPKI 2.36982
Core_0_L1D_total_miss_rate 0.00634313
Core_0_L1D_demand_access 9652869
Core_0_L1D_demand_hit 9648252
Core_0_L1D_demand_miss 4617
Core_0_L1D_demand_MPKI 0.09234
Core_0_L1D_demand_miss_rate 0.000478303
Core_0_L1D_load_access 9652869
Core_0_L1D_load_hit 9648252
Core_0_L1D_load_miss 4617
Core_0_L1D_load_MPKI 0.09234
Core_0_L1D_load_miss_rate 0.000478303
Core_0_L1D_rfo_access 0
Core_0_L1D_rfo_hit 0
Core_0_L1D_rfo_miss 0
Core_0_L1D_rfo_MPKI 0
Core_0_L1D_rfo_miss_rate 0
Core_0_L1D_prefetch_access 54264
Core_0_L1D_prefetch_hit 10911
Core_0_L1D_prefetch_miss 43353
Core_0_L1D_prefetch_MPKI 0.86706
Core_0_L1D_prefetch_miss_rate 0.798927
Core_0_L1D_writeback_access 8973066
Core_0_L1D_writeback_hit 8902545
Core_0_L1D_writeback_miss 70521
Core_0_L1D_writeback_MPKI 1.41042
Core_0_L1D_writeback_miss_rate 0.00785919
Core_0_L1D_prefetch_requested 54262
Core_0_L1D_prefetch_issued 54262
Core_0_L1D_prefetch_useful 42805
Core_0_L1D_prefetch_useless 536
Core_0_L1D_prefetch_late 184
Core_0_L1D_prefetch_accuracy 0.788858
Core_0_L1D_prefetch_coverage 0.90264

Core_0_L2C_total_access 294536
Core_0_L2C_total_hit 222961
Core_0_L2C_total_miss 71575
Core_0_L2C_total_MPKI 1.4315
Core_0_L2C_total_miss_rate 0.243009
Core_0_L2C_demand_access 14453
Core_0_L2C_demand_hit 1427
Core_0_L2C_demand_miss 13026
Core_0_L2C_demand_MPKI 0.26052
Core_0_L2C_demand_miss_rate 0.901266
Core_0_L2C_load_access 1395
Core_0_L2C_load_hit 718
Core_0_L2C_load_miss 677
Core_0_L2C_load_MPKI 0.01354
Core_0_L2C_load_miss_rate 0.485305
Core_0_L2C_rfo_access 13058
Core_0_L2C_rfo_hit 709
Core_0_L2C_rfo_miss 12349
Core_0_L2C_rfo_MPKI 0.24698
Core_0_L2C_rfo_miss_rate 0.945704
Core_0_L2C_prefetch_access 266934
Core_0_L2C_prefetch_hit 208467
Core_0_L2C_prefetch_miss 58467
Core_0_L2C_prefetch_MPKI 1.16934
Core_0_L2C_prefetch_miss_rate 0.219032
Core_0_L2C_writeback_access 13149
Core_0_L2C_writeback_hit 13067
Core_0_L2C_writeback_miss 82
Core_0_L2C_writeback_MPKI 0.00164
Core_0_L2C_writeback_miss_rate 0.00623622
Core_0_L2C_prefetch_requested 223626
Core_0_L2C_prefetch_issued 223590
Core_0_L2C_prefetch_useful 28419
Core_0_L2C_prefetch_useless 1190
Core_0_L2C_prefetch_late 2
Core_0_L2C_prefetch_accuracy 0.127103
Core_0_L2C_prefetch_coverage 0.685704

Core_0_LLC_total_access 53468
Core_0_LLC_total_hit 35613
Core_0_LLC_total_miss 17855
Core_0_LLC_total_MPKI 0.3571
Core_0_LLC_total_miss_rate 0.333938
Core_0_LLC_demand_access 13024
Core_0_LLC_demand_hit 7044
Core_0_LLC_demand_miss 5980
Core_0_LLC_demand_MPKI 0.1196
Core_0_LLC_demand_miss_rate 0.459152
Core_0_LLC_load_access 675
Core_0_LLC_load_hit 311
Core_0_LLC_load_miss 364
Core_0_LLC_load_MPKI 0.00728
Core_0_LLC_load_miss_rate 0.539259
Core_0_LLC_rfo_access 12349
Core_0_LLC_rfo_hit 6733
Core_0_LLC_rfo_miss 5616
Core_0_LLC_rfo_MPKI 0.11232
Core_0_LLC_rfo_miss_rate 0.454774
Core_0_LLC_prefetch_access 31295
Core_0_LLC_prefetch_hit 20212
Core_0_LLC_prefetch_miss 11083
Core_0_LLC_prefetch_MPKI 0.22166
Core_0_LLC_prefetch_miss_rate 0.354146
Core_0_LLC_writeback_access 9149
Core_0_LLC_writeback_hit 8357
Core_0_LLC_writeback_miss 792
Core_0_LLC_writeback_MPKI 0.01584
Core_0_LLC_writeback_miss_rate 0.0865668
Core_0_LLC_prefetch_requested 0
Core_0_LLC_prefetch_issued 0
Core_0_LLC_prefetch_useful 0
Core_0_LLC_prefetch_useless 0
Core_0_LLC_prefetch_late 0
Core_0_LLC_prefetch_accuracy 0
Core_0_LLC_prefetch_coverage 0

[DRAM Statistics]
Channel_0_RQ_row_buffer_hit 3014
Channel_0_RQ_row_buffer_miss 14086
Channel_0_WQ_row_buffer_hit 73
Channel_0_WQ_row_buffer_miss 925
Channel_0_WQ_full 0
Channel_0_dbus_congested 9193
DRAM_total_RQ_row_buffer_hit 3014
DRAM_total_RQ_row_buffer_miss 14086
DRAM_total_WQ_row_buffer_hit 73
DRAM_total_WQ_row_buffer_miss 925
DRAM_total_WQ_full 0
DRAM_total_dbus_congested 9193
DRAM_avg_congested_cycle 3.87773

======STLB miss causes ========
Core_0_STLB_miss_cause_breakdown
Core_0_STLB_cause_Demand_Data_miss 212
Core_0_STLB_cause_Demand_Data_miss_rate 0.231189
Core_0_STLB_cause_Demand_Instruction_miss 5
Core_0_STLB_cause_Demand_Instruction_miss_rate 0.00545256
Core_0_STLB_cause_L1D_Prefetch_miss 2
Core_0_STLB_cause_L1D_Prefetch_miss_rate 0.00218103
Core_0_STLB_cause_L1I_Prefetch_miss 0
Core_0_STLB_cause_L1I_Prefetch_miss_rate 0
Core_0_STLB_cause_Other_miss 0
Core_0_STLB_cause_Other_miss_rate 0
Core_0_STLB_Demand_miss 217
Core_0_STLB_Demand_miss_rate 0.236641
Core_0_STLB_L1D_Prefetch_miss 2
Core_0_STLB_L1D_Prefetch_miss_rate 0.00218103
Core_0_STLB_Other_miss 0
Core_0_STLB_Other_miss_rate 0
