[VMEM] WARNING: physical memory size is smaller than virtual memory size.

*** ChampSim Multicore Out-of-Order Simulator ***
Warmup Instructions: 20000000
Simulation Instructions: 50000000
Number of CPUs: 1
Page size: 4096
Core 0: /data0/tzh/champsim_traces/SPEC06/429.mcf-22B.champsimtrace.xz
 L1D Berti prefetcher
Off-chip DRAM Size: 4 GiB Channels: 1 Width: 64-bit Data Rate: 3205 MT/s
Warmup halting CPU 0 at instruction 20000001 cycle 8195601 for remainder of phase
Warmup finished CPU 0 instructions: 20000001 cycles: 8195601 cumulative IPC: 2.44 (Simulation time: 00 hr 01 min 40 sec)
Warmup complete CPU 0 instructions: 20000001 cycles: 8195601 cumulative IPC: 2.44 (Simulation time: 00 hr 01 min 40 sec)
Simulation finished CPU 0 instructions: 50000001 cycles: 63295367 cumulative IPC: 0.7899 (Simulation time: 00 hr 10 min 00 sec)
Simulation complete CPU 0 instructions: 50000001 cycles: 63295367 cumulative IPC: 0.7899 (Simulation time: 00 hr 10 min 00 sec)

ChampSim completed all CPUs

=== Simulation ===
CPU 0 runs /data0/tzh/champsim_traces/SPEC06/429.mcf-22B.champsimtrace.xz

Region of Interest Statistics

CPU 0 cumulative IPC: 0.7899 instructions: 50000001 cycles: 63295367
CPU 0 Branch Prediction Accuracy: 97.97% MPKI: 1.749 Average ROB Occupancy at Mispredict: 189.2
Branch type MPKI
BRANCH_DIRECT_JUMP: 0
BRANCH_INDIRECT: 0
BRANCH_CONDITIONAL: 1.749
BRANCH_DIRECT_CALL: 0
BRANCH_INDIRECT_CALL: 0
BRANCH_RETURN: 0

cpu0->cpu0_STLB TOTAL        ACCESS:     248886 HIT:      81932 MISS:     166954 MSHR_MERGE:          0
cpu0->cpu0_STLB LOAD         ACCESS:     248886 HIT:      81932 MISS:     166954 MSHR_MERGE:          0
cpu0->cpu0_STLB RFO          ACCESS:          0 HIT:          0 MISS:          0 MSHR_MERGE:          0
cpu0->cpu0_STLB PREFETCH     ACCESS:          0 HIT:          0 MISS:          0 MSHR_MERGE:          0
cpu0->cpu0_STLB WRITE        ACCESS:          0 HIT:          0 MISS:          0 MSHR_MERGE:          0
cpu0->cpu0_STLB TRANSLATION  ACCESS:          0 HIT:          0 MISS:          0 MSHR_MERGE:          0
cpu0->cpu0_STLB PREFETCH REQUESTED:          0 ISSUED:          0 USEFUL:          0 USELESS:          0 LATE:          0
cpu0->cpu0_STLB AVERAGE MISS LATENCY: 329.4 cycles
cpu0->cpu0_L2C TOTAL        ACCESS:    5286132 HIT:    2564691 MISS:    2721441 MSHR_MERGE:     889331
cpu0->cpu0_L2C LOAD         ACCESS:     838980 HIT:     142951 MISS:     696029 MSHR_MERGE:      80006
cpu0->cpu0_L2C RFO          ACCESS:       2316 HIT:       2307 MISS:          9 MSHR_MERGE:          0
cpu0->cpu0_L2C PREFETCH     ACCESS:    3669228 HIT:    1719312 MISS:    1949916 MSHR_MERGE:     809325
cpu0->cpu0_L2C WRITE        ACCESS:     689040 HIT:     688415 MISS:        625 MSHR_MERGE:          0
cpu0->cpu0_L2C TRANSLATION  ACCESS:      86568 HIT:      11706 MISS:      74862 MSHR_MERGE:          0
cpu0->cpu0_L2C PREFETCH REQUESTED:    3350347 ISSUED:    3030086 USEFUL:     485790 USELESS:     394866 LATE:      80006
cpu0->cpu0_L2C AVERAGE MISS LATENCY: 357.4 cycles
cpu0->cpu0_L1I TOTAL        ACCESS:    5348658 HIT:    5348658 MISS:          0 MSHR_MERGE:          0
cpu0->cpu0_L1I LOAD         ACCESS:    5348658 HIT:    5348658 MISS:          0 MSHR_MERGE:          0
cpu0->cpu0_L1I RFO          ACCESS:          0 HIT:          0 MISS:          0 MSHR_MERGE:          0
cpu0->cpu0_L1I PREFETCH     ACCESS:          0 HIT:          0 MISS:          0 MSHR_MERGE:          0
cpu0->cpu0_L1I WRITE        ACCESS:          0 HIT:          0 MISS:          0 MSHR_MERGE:          0
cpu0->cpu0_L1I TRANSLATION  ACCESS:          0 HIT:          0 MISS:          0 MSHR_MERGE:          0
cpu0->cpu0_L1I PREFETCH REQUESTED:          0 ISSUED:          0 USEFUL:          0 USELESS:          0 LATE:          0
cpu0->cpu0_L1I AVERAGE MISS LATENCY: - cycles
cpu0->cpu0_L1D TOTAL        ACCESS:   16573825 HIT:   14724859 MISS:    1848966 MSHR_MERGE:     281949
cpu0->cpu0_L1D LOAD         ACCESS:    6592728 HIT:    5507210 MISS:    1085518 MSHR_MERGE:     246531
cpu0->cpu0_L1D RFO          ACCESS:          0 HIT:          0 MISS:          0 MSHR_MERGE:          0
cpu0->cpu0_L1D PREFETCH     ACCESS:     905850 HIT:     239606 MISS:     666244 MSHR_MERGE:      27102
cpu0->cpu0_L1D WRITE        ACCESS:    8732327 HIT:    8723316 MISS:       9011 MSHR_MERGE:       6691
cpu0->cpu0_L1D TRANSLATION  ACCESS:     342920 HIT:     254727 MISS:      88193 MSHR_MERGE:       1625
cpu0->cpu0_L1D PREFETCH REQUESTED:     940371 ISSUED:     905845 USEFUL:     405522 USELESS:     233569 LATE:      24515
cpu0->cpu0_L1D AVERAGE MISS LATENCY: 301.7 cycles
cpu0->cpu0_ITLB TOTAL        ACCESS:    4414725 HIT:    4414725 MISS:          0 MSHR_MERGE:          0
cpu0->cpu0_ITLB LOAD         ACCESS:    4414725 HIT:    4414725 MISS:          0 MSHR_MERGE:          0
cpu0->cpu0_ITLB RFO          ACCESS:          0 HIT:          0 MISS:          0 MSHR_MERGE:          0
cpu0->cpu0_ITLB PREFETCH     ACCESS:          0 HIT:          0 MISS:          0 MSHR_MERGE:          0
cpu0->cpu0_ITLB WRITE        ACCESS:          0 HIT:          0 MISS:          0 MSHR_MERGE:          0
cpu0->cpu0_ITLB TRANSLATION  ACCESS:          0 HIT:          0 MISS:          0 MSHR_MERGE:          0
cpu0->cpu0_ITLB PREFETCH REQUESTED:          0 ISSUED:          0 USEFUL:          0 USELESS:          0 LATE:          0
cpu0->cpu0_ITLB AVERAGE MISS LATENCY: - cycles
cpu0->cpu0_DTLB TOTAL        ACCESS:   14673494 HIT:   14134476 MISS:     539018 MSHR_MERGE:     290132
cpu0->cpu0_DTLB LOAD         ACCESS:   14673494 HIT:   14134476 MISS:     539018 MSHR_MERGE:     290132
cpu0->cpu0_DTLB RFO          ACCESS:          0 HIT:          0 MISS:          0 MSHR_MERGE:          0
cpu0->cpu0_DTLB PREFETCH     ACCESS:          0 HIT:          0 MISS:          0 MSHR_MERGE:          0
cpu0->cpu0_DTLB WRITE        ACCESS:          0 HIT:          0 MISS:          0 MSHR_MERGE:          0
cpu0->cpu0_DTLB TRANSLATION  ACCESS:          0 HIT:          0 MISS:          0 MSHR_MERGE:          0
cpu0->cpu0_DTLB PREFETCH REQUESTED:          0 ISSUED:          0 USEFUL:          0 USELESS:          0 LATE:          0
cpu0->cpu0_DTLB AVERAGE MISS LATENCY: 226.6 cycles
cpu0->LLC TOTAL        ACCESS:    2494006 HIT:     214611 MISS:    2279395 MSHR_MERGE:          0
cpu0->LLC LOAD         ACCESS:     616023 HIT:      21459 MISS:     594564 MSHR_MERGE:          0
cpu0->LLC RFO          ACCESS:          9 HIT:          1 MISS:          8 MSHR_MERGE:          0
cpu0->LLC PREFETCH     ACCESS:    1140591 HIT:      31391 MISS:    1109200 MSHR_MERGE:          0
cpu0->LLC WRITE        ACCESS:     662521 HIT:     156370 MISS:     506151 MSHR_MERGE:          0
cpu0->LLC TRANSLATION  ACCESS:      74862 HIT:       5390 MISS:      69472 MSHR_MERGE:          0
cpu0->LLC PREFETCH REQUESTED:          0 ISSUED:          0 USEFUL:          0 USELESS:          0 LATE:          0
cpu0->LLC AVERAGE MISS LATENCY: 205.5 cycles

DRAM Statistics

Channel 0 RQ ROW_BUFFER_HIT:      46415
  ROW_BUFFER_MISS:    1726753
  AVG DBUS CONGESTED CYCLE: 5.672
Channel 0 WQ ROW_BUFFER_HIT:      87525
  ROW_BUFFER_MISS:     548353
  FULL:          0
Channel 0 REFRESHES ISSUED:       5275

[ROI Statistics]
[System Configuration]
num_cpus 1
cpu_freq 4000
fetch_width 6
decode_width 6
dispatch_width 6
execute_width 6
lq_width 2
sq_width 2
retire_width 6
scheduler_size 160
branch_mispredict_penalty 1
rob_size 352
lq_size 240
sq_size 112
ifetch_buffer_size 64
decode_buffer_size 32
dispatch_buffer_size 32
register_file_size 288
decode_latency 1
dispatch_latency 1
schedule_latency 0
execute_latency 0
page_size 4096
block_size 64
core_0_itlb_set 16
core_0_itlb_way 4
core_0_itlb_rq_size 16
core_0_itlb_wq_size 16
core_0_itlb_pq_size 0
core_0_itlb_mshr_size 8
core_0_itlb_hit_latency 1
core_0_itlb_fill_latency 1
core_0_itlb_max_tag_check 2
core_0_itlb_max_fill 2
core_0_dtlb_set 16
core_0_dtlb_way 4
core_0_dtlb_rq_size 16
core_0_dtlb_wq_size 16
core_0_dtlb_pq_size 0
core_0_dtlb_mshr_size 8
core_0_dtlb_hit_latency 1
core_0_dtlb_fill_latency 1
core_0_dtlb_max_tag_check 2
core_0_dtlb_max_fill 2
core_0_stlb_set 128
core_0_stlb_way 12
core_0_stlb_rq_size 32
core_0_stlb_wq_size 32
core_0_stlb_pq_size 0
core_0_stlb_mshr_size 16
core_0_stlb_hit_latency 4
core_0_stlb_fill_latency 4
core_0_stlb_max_tag_check 1
core_0_stlb_max_fill 1
core_0_l1i_set 64
core_0_l1i_way 8
core_0_l1i_rq_size 64
core_0_l1i_wq_size 64
core_0_l1i_pq_size 32
core_0_l1i_mshr_size 8
core_0_l1i_hit_latency 2
core_0_l1i_fill_latency 2
core_0_l1i_max_tag_check 2
core_0_l1i_max_fill 2
core_0_l1d_set 64
core_0_l1d_way 12
core_0_l1d_rq_size 64
core_0_l1d_wq_size 64
core_0_l1d_pq_size 8
core_0_l1d_mshr_size 16
core_0_l1d_hit_latency 2
core_0_l1d_fill_latency 3
core_0_l1d_max_tag_check 2
core_0_l1d_max_fill 2
core_0_l2c_set 1024
core_0_l2c_way 8
core_0_l2c_rq_size 32
core_0_l2c_wq_size 32
core_0_l2c_pq_size 16
core_0_l2c_mshr_size 32
core_0_l2c_hit_latency 5
core_0_l2c_fill_latency 5
core_0_l2c_max_tag_check 1
core_0_l2c_max_fill 1
llc_set 2048
llc_way 16
llc_rq_size 32
llc_wq_size 32
llc_pq_size 32
llc_mshr_size 64
llc_hit_latency 10
llc_fill_latency 10
llc_max_tag_check 1
llc_max_fill 1
dram_channels 1
dram_ranks 1
dram_bankgroups 8
dram_banks 4
dram_rows 16384
dram_columns 1024
dram_channel_width 8
dram_rq_size 64
dram_wq_size 64
dram_size 4294967296
core_0_itlb_prefetcher no
core_0_dtlb_prefetcher no
core_0_stlb_prefetcher no
core_0_l1i_prefetcher next_line
core_0_l1d_prefetcher berti
core_0_l2c_prefetcher pythia
llc_prefetcher no
llc_replacement drrip

Core_0_instructions 50000001
Core_0_cycles 63295367
Core_0_IPC 0.789947
Core_0_branch_prediction_accuracy 97.9736
Core_0_branch_MPKI 1.74904
Core_0_average_ROB_occupancy_at_mispredict 189.17

Core_0_ITLB_total_access 4414725
Core_0_ITLB_total_hit 4414725
Core_0_ITLB_total_miss 0
Core_0_ITLB_total_MPKI 0
Core_0_ITLB_total_miss_rate 0
Core_0_ITLB_demand_access 4414725
Core_0_ITLB_demand_hit 4414725
Core_0_ITLB_demand_miss 0
Core_0_ITLB_demand_MPKI 0
Core_0_ITLB_demand_miss_rate 0
Core_0_ITLB_load_access 4414725
Core_0_ITLB_load_hit 4414725
Core_0_ITLB_load_miss 0
Core_0_ITLB_load_MPKI 0
Core_0_ITLB_load_miss_rate 0
Core_0_ITLB_rfo_access 0
Core_0_ITLB_rfo_hit 0
Core_0_ITLB_rfo_miss 0
Core_0_ITLB_rfo_MPKI 0
Core_0_ITLB_rfo_miss_rate 0
Core_0_ITLB_prefetch_access 0
Core_0_ITLB_prefetch_hit 0
Core_0_ITLB_prefetch_miss 0
Core_0_ITLB_prefetch_MPKI 0
Core_0_ITLB_prefetch_miss_rate 0
Core_0_ITLB_writeback_access 0
Core_0_ITLB_writeback_hit 0
Core_0_ITLB_writeback_miss 0
Core_0_ITLB_writeback_MPKI 0
Core_0_ITLB_writeback_miss_rate 0
Core_0_ITLB_prefetch_requested 0
Core_0_ITLB_prefetch_issued 0
Core_0_ITLB_prefetch_useful 0
Core_0_ITLB_prefetch_useless 0
Core_0_ITLB_prefetch_late 0
Core_0_ITLB_prefetch_accuracy 0
Core_0_ITLB_prefetch_coverage 0

Core_0_DTLB_total_access 14673494
Core_0_DTLB_total_hit 14134476
Core_0_DTLB_total_miss 539018
Core_0_DTLB_total_MPKI 10.7804
Core_0_DTLB_total_miss_rate 0.0367341
Core_0_DTLB_demand_access 14673494
Core_0_DTLB_demand_hit 14134476
Core_0_DTLB_demand_miss 539018
Core_0_DTLB_demand_MPKI 10.7804
Core_0_DTLB_demand_miss_rate 0.0367341
Core_0_DTLB_load_access 14673494
Core_0_DTLB_load_hit 14134476
Core_0_DTLB_load_miss 539018
Core_0_DTLB_load_MPKI 10.7804
Core_0_DTLB_load_miss_rate 0.0367341
Core_0_DTLB_rfo_access 0
Core_0_DTLB_rfo_hit 0
Core_0_DTLB_rfo_miss 0
Core_0_DTLB_rfo_MPKI 0
Core_0_DTLB_rfo_miss_rate 0
Core_0_DTLB_prefetch_access 0
Core_0_DTLB_prefetch_hit 0
Core_0_DTLB_prefetch_miss 0
Core_0_DTLB_prefetch_MPKI 0
Core_0_DTLB_prefetch_miss_rate 0
Core_0_DTLB_writeback_access 0
Core_0_DTLB_writeback_hit 0
Core_0_DTLB_writeback_miss 0
Core_0_DTLB_writeback_MPKI 0
Core_0_DTLB_writeback_miss_rate 0
Core_0_DTLB_prefetch_requested 0
Core_0_DTLB_prefetch_issued 0
Core_0_DTLB_prefetch_useful 0
Core_0_DTLB_prefetch_useless 0
Core_0_DTLB_prefetch_late 0
Core_0_DTLB_prefetch_accuracy 0
Core_0_DTLB_prefetch_coverage 0

Core_0_STLB_total_access 248886
Core_0_STLB_total_hit 81932
Core_0_STLB_total_miss 166954
Core_0_STLB_total_MPKI 3.33908
Core_0_STLB_total_miss_rate 0.670805
Core_0_STLB_demand_access 248886
Core_0_STLB_demand_hit 81932
Core_0_STLB_demand_miss 166954
Core_0_STLB_demand_MPKI 3.33908
Core_0_STLB_demand_miss_rate 0.670805
Core_0_STLB_load_access 248886
Core_0_STLB_load_hit 81932
Core_0_STLB_load_miss 166954
Core_0_STLB_load_MPKI 3.33908
Core_0_STLB_load_miss_rate 0.670805
Core_0_STLB_rfo_access 0
Core_0_STLB_rfo_hit 0
Core_0_STLB_rfo_miss 0
Core_0_STLB_rfo_MPKI 0
Core_0_STLB_rfo_miss_rate 0
Core_0_STLB_prefetch_access 0
Core_0_STLB_prefetch_hit 0
Core_0_STLB_prefetch_miss 0
Core_0_STLB_prefetch_MPKI 0
Core_0_STLB_prefetch_miss_rate 0
Core_0_STLB_writeback_access 0
Core_0_STLB_writeback_hit 0
Core_0_STLB_writeback_miss 0
Core_0_STLB_writeback_MPKI 0
Core_0_STLB_writeback_miss_rate 0
Core_0_STLB_prefetch_requested 0
Core_0_STLB_prefetch_issued 0
Core_0_STLB_prefetch_useful 0
Core_0_STLB_prefetch_useless 0
Core_0_STLB_prefetch_late 0
Core_0_STLB_prefetch_accuracy 0
Core_0_STLB_prefetch_coverage 0

Core_0_L1I_total_access 5348658
Core_0_L1I_total_hit 5348658
Core_0_L1I_total_miss 0
Core_0_L1I_total_MPKI 0
Core_0_L1I_total_miss_rate 0
Core_0_L1I_demand_access 5348658
Core_0_L1I_demand_hit 5348658
Core_0_L1I_demand_miss 0
Core_0_L1I_demand_MPKI 0
Core_0_L1I_demand_miss_rate 0
Core_0_L1I_load_access 5348658
Core_0_L1I_load_hit 5348658
Core_0_L1I_load_miss 0
Core_0_L1I_load_MPKI 0
Core_0_L1I_load_miss_rate 0
Core_0_L1I_rfo_access 0
Core_0_L1I_rfo_hit 0
Core_0_L1I_rfo_miss 0
Core_0_L1I_rfo_MPKI 0
Core_0_L1I_rfo_miss_rate 0
Core_0_L1I_prefetch_access 0
Core_0_L1I_prefetch_hit 0
Core_0_L1I_prefetch_miss 0
Core_0_L1I_prefetch_MPKI 0
Core_0_L1I_prefetch_miss_rate 0
Core_0_L1I_writeback_access 0
Core_0_L1I_writeback_hit 0
Core_0_L1I_writeback_miss 0
Core_0_L1I_writeback_MPKI 0
Core_0_L1I_writeback_miss_rate 0
Core_0_L1I_prefetch_requested 0
Core_0_L1I_prefetch_issued 0
Core_0_L1I_prefetch_useful 0
Core_0_L1I_prefetch_useless 0
Core_0_L1I_prefetch_late 0
Core_0_L1I_prefetch_accuracy 0
Core_0_L1I_prefetch_coverage 0

Core_0_L1D_total_access 16230905
Core_0_L1D_total_hit 14470132
Core_0_L1D_total_miss 1760773
Core_0_L1D_total_MPKI 35.2155
Core_0_L1D_total_miss_rate 0.108483
Core_0_L1D_demand_access 6592728
Core_0_L1D_demand_hit 5507210
Core_0_L1D_demand_miss 1085518
Core_0_L1D_demand_MPKI 21.7104
Core_0_L1D_demand_miss_rate 0.164654
Core_0_L1D_load_access 6592728
Core_0_L1D_load_hit 5507210
Core_0_L1D_load_miss 1085518
Core_0_L1D_load_MPKI 21.7104
Core_0_L1D_load_miss_rate 0.164654
Core_0_L1D_rfo_access 0
Core_0_L1D_rfo_hit 0
Core_0_L1D_rfo_miss 0
Core_0_L1D_rfo_MPKI 0
Core_0_L1D_rfo_miss_rate 0
Core_0_L1D_prefetch_access 905850
Core_0_L1D_prefetch_hit 239606
Core_0_L1D_prefetch_miss 666244
Core_0_L1D_prefetch_MPKI 13.3249
Core_0_L1D_prefetch_miss_rate 0.73549
Core_0_L1D_writeback_access 8732327
Core_0_L1D_writeback_hit 8723316
Core_0_L1D_writeback_miss 9011
Core_0_L1D_writeback_MPKI 0.18022
Core_0_L1D_writeback_miss_rate 0.00103191
Core_0_L1D_prefetch_requested 940371
Core_0_L1D_prefetch_issued 905845
Core_0_L1D_prefetch_useful 405522
Core_0_L1D_prefetch_useless 233569
Core_0_L1D_prefetch_late 24515
Core_0_L1D_prefetch_accuracy 0.447673
Core_0_L1D_prefetch_coverage 0.271973

Core_0_L2C_total_access 5199564
Core_0_L2C_total_hit 2552985
Core_0_L2C_total_miss 2646579
Core_0_L2C_total_MPKI 52.9316
Core_0_L2C_total_miss_rate 0.509
Core_0_L2C_demand_access 841296
Core_0_L2C_demand_hit 145258
Core_0_L2C_demand_miss 696038
Core_0_L2C_demand_MPKI 13.9208
Core_0_L2C_demand_miss_rate 0.82734
Core_0_L2C_load_access 838980
Core_0_L2C_load_hit 142951
Core_0_L2C_load_miss 696029
Core_0_L2C_load_MPKI 13.9206
Core_0_L2C_load_miss_rate 0.829613
Core_0_L2C_rfo_access 2316
Core_0_L2C_rfo_hit 2307
Core_0_L2C_rfo_miss 9
Core_0_L2C_rfo_MPKI 0.00018
Core_0_L2C_rfo_miss_rate 0.00388601
Core_0_L2C_prefetch_access 3669228
Core_0_L2C_prefetch_hit 1719312
Core_0_L2C_prefetch_miss 1949916
Core_0_L2C_prefetch_MPKI 38.9983
Core_0_L2C_prefetch_miss_rate 0.531424
Core_0_L2C_writeback_access 689040
Core_0_L2C_writeback_hit 688415
Core_0_L2C_writeback_miss 625
Core_0_L2C_writeback_MPKI 0.0125
Core_0_L2C_writeback_miss_rate 0.000907059
Core_0_L2C_prefetch_requested 3350347
Core_0_L2C_prefetch_issued 3030086
Core_0_L2C_prefetch_useful 485790
Core_0_L2C_prefetch_useless 394866
Core_0_L2C_prefetch_late 80006
Core_0_L2C_prefetch_accuracy 0.160322
Core_0_L2C_prefetch_coverage 0.41105

Core_0_LLC_total_access 2419144
Core_0_LLC_total_hit 209221
Core_0_LLC_total_miss 2209923
Core_0_LLC_total_MPKI 44.1985
Core_0_LLC_total_miss_rate 0.913514
Core_0_LLC_demand_access 616032
Core_0_LLC_demand_hit 21460
Core_0_LLC_demand_miss 594572
Core_0_LLC_demand_MPKI 11.8914
Core_0_LLC_demand_miss_rate 0.965164
Core_0_LLC_load_access 616023
Core_0_LLC_load_hit 21459
Core_0_LLC_load_miss 594564
Core_0_LLC_load_MPKI 11.8913
Core_0_LLC_load_miss_rate 0.965165
Core_0_LLC_rfo_access 9
Core_0_LLC_rfo_hit 1
Core_0_LLC_rfo_miss 8
Core_0_LLC_rfo_MPKI 0.00016
Core_0_LLC_rfo_miss_rate 0.888889
Core_0_LLC_prefetch_access 1140591
Core_0_LLC_prefetch_hit 31391
Core_0_LLC_prefetch_miss 1109200
Core_0_LLC_prefetch_MPKI 22.184
Core_0_LLC_prefetch_miss_rate 0.972478
Core_0_LLC_writeback_access 662521
Core_0_LLC_writeback_hit 156370
Core_0_LLC_writeback_miss 506151
Core_0_LLC_writeback_MPKI 10.123
Core_0_LLC_writeback_miss_rate 0.763977
Core_0_LLC_prefetch_requested 0
Core_0_LLC_prefetch_issued 0
Core_0_LLC_prefetch_useful 0
Core_0_LLC_prefetch_useless 0
Core_0_LLC_prefetch_late 0
Core_0_LLC_prefetch_accuracy 0
Core_0_LLC_prefetch_coverage 0

[DRAM Statistics]
Channel_0_RQ_row_buffer_hit 46415
Channel_0_RQ_row_buffer_miss 1726753
Channel_0_WQ_row_buffer_hit 87525
Channel_0_WQ_row_buffer_miss 548353
Channel_0_WQ_full 0
Channel_0_dbus_congested 7122986
DRAM_total_RQ_row_buffer_hit 46415
DRAM_total_RQ_row_buffer_miss 1726753
DRAM_total_WQ_row_buffer_hit 87525
DRAM_total_WQ_row_buffer_miss 548353
DRAM_total_WQ_full 0
DRAM_total_dbus_congested 7122986
DRAM_avg_congested_cycle 5.67171

======STLB miss causes ========
Core_0_STLB_miss_cause_breakdown
Core_0_STLB_cause_Demand_Data_miss 151132
Core_0_STLB_cause_Demand_Data_miss_rate 0.607234
Core_0_STLB_cause_Demand_Instruction_miss 0
Core_0_STLB_cause_Demand_Instruction_miss_rate 0
Core_0_STLB_cause_L1D_Prefetch_miss 15822
Core_0_STLB_cause_L1D_Prefetch_miss_rate 0.0635713
Core_0_STLB_cause_L1I_Prefetch_miss 0
Core_0_STLB_cause_L1I_Prefetch_miss_rate 0
Core_0_STLB_cause_Other_miss 0
Core_0_STLB_cause_Other_miss_rate 0
Core_0_STLB_Demand_miss 151132
Core_0_STLB_Demand_miss_rate 0.607234
Core_0_STLB_L1D_Prefetch_miss 15822
Core_0_STLB_L1D_Prefetch_miss_rate 0.0635713
Core_0_STLB_Other_miss 0
Core_0_STLB_Other_miss_rate 0
