[VMEM] WARNING: physical memory size is smaller than virtual memory size.

*** ChampSim Multicore Out-of-Order Simulator ***
Warmup Instructions: 20000000
Simulation Instructions: 50000000
Number of CPUs: 1
Page size: 4096
Core 0: /data0/tzh/champsim_traces/SPEC06/434.zeusmp-10B.champsimtrace.xz
 L1D Berti prefetcher
Off-chip DRAM Size: 4 GiB Channels: 1 Width: 64-bit Data Rate: 3205 MT/s
Warmup halting CPU 0 at instruction 20000004 cycle 4283527 for remainder of phase
Warmup finished CPU 0 instructions: 20000004 cycles: 4283527 cumulative IPC: 4.669 (Simulation time: 00 hr 00 min 48 sec)
Warmup complete CPU 0 instructions: 20000004 cycles: 4283527 cumulative IPC: 4.669 (Simulation time: 00 hr 00 min 48 sec)
Simulation finished CPU 0 instructions: 50000000 cycles: 17423712 cumulative IPC: 2.87 (Simulation time: 00 hr 04 min 10 sec)
Simulation complete CPU 0 instructions: 50000000 cycles: 17423712 cumulative IPC: 2.87 (Simulation time: 00 hr 04 min 10 sec)

ChampSim completed all CPUs

=== Simulation ===
CPU 0 runs /data0/tzh/champsim_traces/SPEC06/434.zeusmp-10B.champsimtrace.xz

Region of Interest Statistics

CPU 0 cumulative IPC: 2.87 instructions: 50000000 cycles: 17423712
CPU 0 Branch Prediction Accuracy: 99.7% MPKI: 0.1705 Average ROB Occupancy at Mispredict: 236.4
Branch type MPKI
BRANCH_DIRECT_JUMP: 4e-05
BRANCH_INDIRECT: 0
BRANCH_CONDITIONAL: 0.1704
BRANCH_DIRECT_CALL: 0
BRANCH_INDIRECT_CALL: 0
BRANCH_RETURN: 0

cpu0->cpu0_STLB TOTAL        ACCESS:     626774 HIT:     624998 MISS:       1776 MSHR_MERGE:          0
cpu0->cpu0_STLB LOAD         ACCESS:     626774 HIT:     624998 MISS:       1776 MSHR_MERGE:          0
cpu0->cpu0_STLB RFO          ACCESS:          0 HIT:          0 MISS:          0 MSHR_MERGE:          0
cpu0->cpu0_STLB PREFETCH     ACCESS:          0 HIT:          0 MISS:          0 MSHR_MERGE:          0
cpu0->cpu0_STLB WRITE        ACCESS:          0 HIT:          0 MISS:          0 MSHR_MERGE:          0
cpu0->cpu0_STLB TRANSLATION  ACCESS:          0 HIT:          0 MISS:          0 MSHR_MERGE:          0
cpu0->cpu0_STLB PREFETCH REQUESTED:          0 ISSUED:          0 USEFUL:          0 USELESS:          0 LATE:          0
cpu0->cpu0_STLB AVERAGE MISS LATENCY: 369.3 cycles
cpu0->cpu0_L2C TOTAL        ACCESS:    2930967 HIT:    2597747 MISS:     333220 MSHR_MERGE:     135053
cpu0->cpu0_L2C LOAD         ACCESS:     606032 HIT:     588047 MISS:      17985 MSHR_MERGE:       5128
cpu0->cpu0_L2C RFO          ACCESS:     186361 HIT:     157821 MISS:      28540 MSHR_MERGE:          0
cpu0->cpu0_L2C PREFETCH     ACCESS:    1611073 HIT:    1326918 MISS:     284155 MSHR_MERGE:     129925
cpu0->cpu0_L2C WRITE        ACCESS:     525130 HIT:     524446 MISS:        684 MSHR_MERGE:          0
cpu0->cpu0_L2C TRANSLATION  ACCESS:       2371 HIT:        515 MISS:       1856 MSHR_MERGE:          0
cpu0->cpu0_L2C PREFETCH REQUESTED:    1555116 ISSUED:    1413047 USEFUL:     115229 USELESS:      32780 LATE:       5128
cpu0->cpu0_L2C AVERAGE MISS LATENCY: 65.96 cycles
cpu0->cpu0_L1I TOTAL        ACCESS:    7681167 HIT:    7681167 MISS:          0 MSHR_MERGE:          0
cpu0->cpu0_L1I LOAD         ACCESS:    7681167 HIT:    7681167 MISS:          0 MSHR_MERGE:          0
cpu0->cpu0_L1I RFO          ACCESS:          0 HIT:          0 MISS:          0 MSHR_MERGE:          0
cpu0->cpu0_L1I PREFETCH     ACCESS:          0 HIT:          0 MISS:          0 MSHR_MERGE:          0
cpu0->cpu0_L1I WRITE        ACCESS:          0 HIT:          0 MISS:          0 MSHR_MERGE:          0
cpu0->cpu0_L1I TRANSLATION  ACCESS:          0 HIT:          0 MISS:          0 MSHR_MERGE:          0
cpu0->cpu0_L1I PREFETCH REQUESTED:          0 ISSUED:          0 USEFUL:          0 USELESS:          0 LATE:          0
cpu0->cpu0_L1I AVERAGE MISS LATENCY: - cycles
cpu0->cpu0_L1D TOTAL        ACCESS:   11058780 HIT:    9926750 MISS:    1132030 MSHR_MERGE:     138894
cpu0->cpu0_L1D LOAD         ACCESS:    7001978 HIT:    6364458 MISS:     637520 MSHR_MERGE:      31488
cpu0->cpu0_L1D RFO          ACCESS:          0 HIT:          0 MISS:          0 MSHR_MERGE:          0
cpu0->cpu0_L1D PREFETCH     ACCESS:     376279 HIT:     175099 MISS:     201180 MSHR_MERGE:       3152
cpu0->cpu0_L1D WRITE        ACCESS:    3676358 HIT:    3385399 MISS:     290959 MSHR_MERGE:     104254
cpu0->cpu0_L1D TRANSLATION  ACCESS:       4165 HIT:       1794 MISS:       2371 MSHR_MERGE:          0
cpu0->cpu0_L1D PREFETCH REQUESTED:     381599 ISSUED:     376275 USEFUL:     180618 USELESS:      17367 LATE:       5734
cpu0->cpu0_L1D AVERAGE MISS LATENCY: 14.92 cycles
cpu0->cpu0_ITLB TOTAL        ACCESS:    6478969 HIT:    6478969 MISS:          0 MSHR_MERGE:          0
cpu0->cpu0_ITLB LOAD         ACCESS:    6478969 HIT:    6478969 MISS:          0 MSHR_MERGE:          0
cpu0->cpu0_ITLB RFO          ACCESS:          0 HIT:          0 MISS:          0 MSHR_MERGE:          0
cpu0->cpu0_ITLB PREFETCH     ACCESS:          0 HIT:          0 MISS:          0 MSHR_MERGE:          0
cpu0->cpu0_ITLB WRITE        ACCESS:          0 HIT:          0 MISS:          0 MSHR_MERGE:          0
cpu0->cpu0_ITLB TRANSLATION  ACCESS:          0 HIT:          0 MISS:          0 MSHR_MERGE:          0
cpu0->cpu0_ITLB PREFETCH REQUESTED:          0 ISSUED:          0 USEFUL:          0 USELESS:          0 LATE:          0
cpu0->cpu0_ITLB AVERAGE MISS LATENCY: - cycles
cpu0->cpu0_DTLB TOTAL        ACCESS:   10481592 HIT:    9765132 MISS:     716460 MSHR_MERGE:      89684
cpu0->cpu0_DTLB LOAD         ACCESS:   10481592 HIT:    9765132 MISS:     716460 MSHR_MERGE:      89684
cpu0->cpu0_DTLB RFO          ACCESS:          0 HIT:          0 MISS:          0 MSHR_MERGE:          0
cpu0->cpu0_DTLB PREFETCH     ACCESS:          0 HIT:          0 MISS:          0 MSHR_MERGE:          0
cpu0->cpu0_DTLB WRITE        ACCESS:          0 HIT:          0 MISS:          0 MSHR_MERGE:          0
cpu0->cpu0_DTLB TRANSLATION  ACCESS:          0 HIT:          0 MISS:          0 MSHR_MERGE:          0
cpu0->cpu0_DTLB PREFETCH REQUESTED:          0 ISSUED:          0 USEFUL:          0 USELESS:          0 LATE:          0
cpu0->cpu0_DTLB AVERAGE MISS LATENCY: 6.116 cycles
cpu0->LLC TOTAL        ACCESS:     258800 HIT:     127248 MISS:     131552 MSHR_MERGE:          0
cpu0->LLC LOAD         ACCESS:      12857 HIT:       5739 MISS:       7118 MSHR_MERGE:          0
cpu0->LLC RFO          ACCESS:      28539 HIT:      27658 MISS:        881 MSHR_MERGE:          0
cpu0->LLC PREFETCH     ACCESS:     154230 HIT:      38560 MISS:     115670 MSHR_MERGE:          0
cpu0->LLC WRITE        ACCESS:      61318 HIT:      54817 MISS:       6501 MSHR_MERGE:          0
cpu0->LLC TRANSLATION  ACCESS:       1856 HIT:        474 MISS:       1382 MSHR_MERGE:          0
cpu0->LLC PREFETCH REQUESTED:          0 ISSUED:          0 USEFUL:          0 USELESS:          0 LATE:          0
cpu0->LLC AVERAGE MISS LATENCY: 126 cycles

DRAM Statistics

Channel 0 RQ ROW_BUFFER_HIT:         72
  ROW_BUFFER_MISS:     124961
  AVG DBUS CONGESTED CYCLE: 10.73
Channel 0 WQ ROW_BUFFER_HIT:       4110
  ROW_BUFFER_MISS:      30634
  FULL:          0
Channel 0 REFRESHES ISSUED:       1452

[ROI Statistics]
[System Configuration]
num_cpus 1
cpu_freq 4000
fetch_width 6
decode_width 6
dispatch_width 6
execute_width 6
lq_width 2
sq_width 2
retire_width 6
scheduler_size 160
branch_mispredict_penalty 1
rob_size 352
lq_size 240
sq_size 112
ifetch_buffer_size 64
decode_buffer_size 32
dispatch_buffer_size 32
register_file_size 288
decode_latency 1
dispatch_latency 1
schedule_latency 0
execute_latency 0
page_size 4096
block_size 64
core_0_itlb_set 16
core_0_itlb_way 4
core_0_itlb_rq_size 16
core_0_itlb_wq_size 16
core_0_itlb_pq_size 0
core_0_itlb_mshr_size 8
core_0_itlb_hit_latency 1
core_0_itlb_fill_latency 1
core_0_itlb_max_tag_check 2
core_0_itlb_max_fill 2
core_0_dtlb_set 16
core_0_dtlb_way 4
core_0_dtlb_rq_size 16
core_0_dtlb_wq_size 16
core_0_dtlb_pq_size 0
core_0_dtlb_mshr_size 8
core_0_dtlb_hit_latency 1
core_0_dtlb_fill_latency 1
core_0_dtlb_max_tag_check 2
core_0_dtlb_max_fill 2
core_0_stlb_set 128
core_0_stlb_way 12
core_0_stlb_rq_size 32
core_0_stlb_wq_size 32
core_0_stlb_pq_size 0
core_0_stlb_mshr_size 16
core_0_stlb_hit_latency 4
core_0_stlb_fill_latency 4
core_0_stlb_max_tag_check 1
core_0_stlb_max_fill 1
core_0_l1i_set 64
core_0_l1i_way 8
core_0_l1i_rq_size 64
core_0_l1i_wq_size 64
core_0_l1i_pq_size 32
core_0_l1i_mshr_size 8
core_0_l1i_hit_latency 2
core_0_l1i_fill_latency 2
core_0_l1i_max_tag_check 2
core_0_l1i_max_fill 2
core_0_l1d_set 64
core_0_l1d_way 12
core_0_l1d_rq_size 64
core_0_l1d_wq_size 64
core_0_l1d_pq_size 8
core_0_l1d_mshr_size 16
core_0_l1d_hit_latency 2
core_0_l1d_fill_latency 3
core_0_l1d_max_tag_check 2
core_0_l1d_max_fill 2
core_0_l2c_set 1024
core_0_l2c_way 8
core_0_l2c_rq_size 32
core_0_l2c_wq_size 32
core_0_l2c_pq_size 16
core_0_l2c_mshr_size 32
core_0_l2c_hit_latency 5
core_0_l2c_fill_latency 5
core_0_l2c_max_tag_check 1
core_0_l2c_max_fill 1
llc_set 2048
llc_way 16
llc_rq_size 32
llc_wq_size 32
llc_pq_size 32
llc_mshr_size 64
llc_hit_latency 10
llc_fill_latency 10
llc_max_tag_check 1
llc_max_fill 1
dram_channels 1
dram_ranks 1
dram_bankgroups 8
dram_banks 4
dram_rows 16384
dram_columns 1024
dram_channel_width 8
dram_rq_size 64
dram_wq_size 64
dram_size 4294967296
core_0_itlb_prefetcher no
core_0_dtlb_prefetcher no
core_0_stlb_prefetcher no
core_0_l1i_prefetcher next_line
core_0_l1d_prefetcher berti
core_0_l2c_prefetcher pythia
llc_prefetcher no
llc_replacement drrip

Core_0_instructions 50000000
Core_0_cycles 17423712
Core_0_IPC 2.86965
Core_0_branch_prediction_accuracy 99.699
Core_0_branch_MPKI 0.17048
Core_0_average_ROB_occupancy_at_mispredict 236.424

Core_0_ITLB_total_access 6478969
Core_0_ITLB_total_hit 6478969
Core_0_ITLB_total_miss 0
Core_0_ITLB_total_MPKI 0
Core_0_ITLB_total_miss_rate 0
Core_0_ITLB_demand_access 6478969
Core_0_ITLB_demand_hit 6478969
Core_0_ITLB_demand_miss 0
Core_0_ITLB_demand_MPKI 0
Core_0_ITLB_demand_miss_rate 0
Core_0_ITLB_load_access 6478969
Core_0_ITLB_load_hit 6478969
Core_0_ITLB_load_miss 0
Core_0_ITLB_load_MPKI 0
Core_0_ITLB_load_miss_rate 0
Core_0_ITLB_rfo_access 0
Core_0_ITLB_rfo_hit 0
Core_0_ITLB_rfo_miss 0
Core_0_ITLB_rfo_MPKI 0
Core_0_ITLB_rfo_miss_rate 0
Core_0_ITLB_prefetch_access 0
Core_0_ITLB_prefetch_hit 0
Core_0_ITLB_prefetch_miss 0
Core_0_ITLB_prefetch_MPKI 0
Core_0_ITLB_prefetch_miss_rate 0
Core_0_ITLB_writeback_access 0
Core_0_ITLB_writeback_hit 0
Core_0_ITLB_writeback_miss 0
Core_0_ITLB_writeback_MPKI 0
Core_0_ITLB_writeback_miss_rate 0
Core_0_ITLB_prefetch_requested 0
Core_0_ITLB_prefetch_issued 0
Core_0_ITLB_prefetch_useful 0
Core_0_ITLB_prefetch_useless 0
Core_0_ITLB_prefetch_late 0
Core_0_ITLB_prefetch_accuracy 0
Core_0_ITLB_prefetch_coverage 0

Core_0_DTLB_total_access 10481592
Core_0_DTLB_total_hit 9765132
Core_0_DTLB_total_miss 716460
Core_0_DTLB_total_MPKI 14.3292
Core_0_DTLB_total_miss_rate 0.0683541
Core_0_DTLB_demand_access 10481592
Core_0_DTLB_demand_hit 9765132
Core_0_DTLB_demand_miss 716460
Core_0_DTLB_demand_MPKI 14.3292
Core_0_DTLB_demand_miss_rate 0.0683541
Core_0_DTLB_load_access 10481592
Core_0_DTLB_load_hit 9765132
Core_0_DTLB_load_miss 716460
Core_0_DTLB_load_MPKI 14.3292
Core_0_DTLB_load_miss_rate 0.0683541
Core_0_DTLB_rfo_access 0
Core_0_DTLB_rfo_hit 0
Core_0_DTLB_rfo_miss 0
Core_0_DTLB_rfo_MPKI 0
Core_0_DTLB_rfo_miss_rate 0
Core_0_DTLB_prefetch_access 0
Core_0_DTLB_prefetch_hit 0
Core_0_DTLB_prefetch_miss 0
Core_0_DTLB_prefetch_MPKI 0
Core_0_DTLB_prefetch_miss_rate 0
Core_0_DTLB_writeback_access 0
Core_0_DTLB_writeback_hit 0
Core_0_DTLB_writeback_miss 0
Core_0_DTLB_writeback_MPKI 0
Core_0_DTLB_writeback_miss_rate 0
Core_0_DTLB_prefetch_requested 0
Core_0_DTLB_prefetch_issued 0
Core_0_DTLB_prefetch_useful 0
Core_0_DTLB_prefetch_useless 0
Core_0_DTLB_prefetch_late 0
Core_0_DTLB_prefetch_accuracy 0
Core_0_DTLB_prefetch_coverage 0

Core_0_STLB_total_access 626774
Core_0_STLB_total_hit 624998
Core_0_STLB_total_miss 1776
Core_0_STLB_total_MPKI 0.03552
Core_0_STLB_total_miss_rate 0.00283356
Core_0_STLB_demand_access 626774
Core_0_STLB_demand_hit 624998
Core_0_STLB_demand_miss 1776
Core_0_STLB_demand_MPKI 0.03552
Core_0_STLB_demand_miss_rate 0.00283356
Core_0_STLB_load_access 626774
Core_0_STLB_load_hit 624998
Core_0_STLB_load_miss 1776
Core_0_STLB_load_MPKI 0.03552
Core_0_STLB_load_miss_rate 0.00283356
Core_0_STLB_rfo_access 0
Core_0_STLB_rfo_hit 0
Core_0_STLB_rfo_miss 0
Core_0_STLB_rfo_MPKI 0
Core_0_STLB_rfo_miss_rate 0
Core_0_STLB_prefetch_access 0
Core_0_STLB_prefetch_hit 0
Core_0_STLB_prefetch_miss 0
Core_0_STLB_prefetch_MPKI 0
Core_0_STLB_prefetch_miss_rate 0
Core_0_STLB_writeback_access 0
Core_0_STLB_writeback_hit 0
Core_0_STLB_writeback_miss 0
Core_0_STLB_writeback_MPKI 0
Core_0_STLB_writeback_miss_rate 0
Core_0_STLB_prefetch_requested 0
Core_0_STLB_prefetch_issued 0
Core_0_STLB_prefetch_useful 0
Core_0_STLB_prefetch_useless 0
Core_0_STLB_prefetch_late 0
Core_0_STLB_prefetch_accuracy 0
Core_0_STLB_prefetch_coverage 0

Core_0_L1I_total_access 7681167
Core_0_L1I_total_hit 7681167
Core_0_L1I_total_miss 0
Core_0_L1I_total_MPKI 0
Core_0_L1I_total_miss_rate 0
Core_0_L1I_demand_access 7681167
Core_0_L1I_demand_hit 7681167
Core_0_L1I_demand_miss 0
Core_0_L1I_demand_MPKI 0
Core_0_L1I_demand_miss_rate 0
Core_0_L1I_load_access 7681167
Core_0_L1I_load_hit 7681167
Core_0_L1I_load_miss 0
Core_0_L1I_load_MPKI 0
Core_0_L1I_load_miss_rate 0
Core_0_L1I_rfo_access 0
Core_0_L1I_rfo_hit 0
Core_0_L1I_rfo_miss 0
Core_0_L1I_rfo_MPKI 0
Core_0_L1I_rfo_miss_rate 0
Core_0_L1I_prefetch_access 0
Core_0_L1I_prefetch_hit 0
Core_0_L1I_prefetch_miss 0
Core_0_L1I_prefetch_MPKI 0
Core_0_L1I_prefetch_miss_rate 0
Core_0_L1I_writeback_access 0
Core_0_L1I_writeback_hit 0
Core_0_L1I_writeback_miss 0
Core_0_L1I_writeback_MPKI 0
Core_0_L1I_writeback_miss_rate 0
Core_0_L1I_prefetch_requested 0
Core_0_L1I_prefetch_issued 0
Core_0_L1I_prefetch_useful 0
Core_0_L1I_prefetch_useless 0
Core_0_L1I_prefetch_late 0
Core_0_L1I_prefetch_accuracy 0
Core_0_L1I_prefetch_coverage 0

Core_0_L1D_total_access 11054615
Core_0_L1D_total_hit 9924956
Core_0_L1D_total_miss 1129659
Core_0_L1D_total_MPKI 22.5932
Core_0_L1D_total_miss_rate 0.102189
Core_0_L1D_demand_access 7001978
Core_0_L1D_demand_hit 6364458
Core_0_L1D_demand_miss 637520
Core_0_L1D_demand_MPKI 12.7504
Core_0_L1D_demand_miss_rate 0.0910486
Core_0_L1D_load_access 7001978
Core_0_L1D_load_hit 6364458
Core_0_L1D_load_miss 637520
Core_0_L1D_load_MPKI 12.7504
Core_0_L1D_load_miss_rate 0.0910486
Core_0_L1D_rfo_access 0
Core_0_L1D_rfo_hit 0
Core_0_L1D_rfo_miss 0
Core_0_L1D_rfo_MPKI 0
Core_0_L1D_rfo_miss_rate 0
Core_0_L1D_prefetch_access 376279
Core_0_L1D_prefetch_hit 175099
Core_0_L1D_prefetch_miss 201180
Core_0_L1D_prefetch_MPKI 4.0236
Core_0_L1D_prefetch_miss_rate 0.534656
Core_0_L1D_writeback_access 3676358
Core_0_L1D_writeback_hit 3385399
Core_0_L1D_writeback_miss 290959
Core_0_L1D_writeback_MPKI 5.81918
Core_0_L1D_writeback_miss_rate 0.0791433
Core_0_L1D_prefetch_requested 381599
Core_0_L1D_prefetch_issued 376275
Core_0_L1D_prefetch_useful 180618
Core_0_L1D_prefetch_useless 17367
Core_0_L1D_prefetch_late 5734
Core_0_L1D_prefetch_accuracy 0.480016
Core_0_L1D_prefetch_coverage 0.220767

Core_0_L2C_total_access 2928596
Core_0_L2C_total_hit 2597232
Core_0_L2C_total_miss 331364
Core_0_L2C_total_MPKI 6.62728
Core_0_L2C_total_miss_rate 0.113148
Core_0_L2C_demand_access 792393
Core_0_L2C_demand_hit 745868
Core_0_L2C_demand_miss 46525
Core_0_L2C_demand_MPKI 0.9305
Core_0_L2C_demand_miss_rate 0.0587146
Core_0_L2C_load_access 606032
Core_0_L2C_load_hit 588047
Core_0_L2C_load_miss 17985
Core_0_L2C_load_MPKI 0.3597
Core_0_L2C_load_miss_rate 0.0296767
Core_0_L2C_rfo_access 186361
Core_0_L2C_rfo_hit 157821
Core_0_L2C_rfo_miss 28540
Core_0_L2C_rfo_MPKI 0.5708
Core_0_L2C_rfo_miss_rate 0.153144
Core_0_L2C_prefetch_access 1611073
Core_0_L2C_prefetch_hit 1326918
Core_0_L2C_prefetch_miss 284155
Core_0_L2C_prefetch_MPKI 5.6831
Core_0_L2C_prefetch_miss_rate 0.176376
Core_0_L2C_writeback_access 525130
Core_0_L2C_writeback_hit 524446
Core_0_L2C_writeback_miss 684
Core_0_L2C_writeback_MPKI 0.01368
Core_0_L2C_writeback_miss_rate 0.00130253
Core_0_L2C_prefetch_requested 1555116
Core_0_L2C_prefetch_issued 1413047
Core_0_L2C_prefetch_useful 115229
Core_0_L2C_prefetch_useless 32780
Core_0_L2C_prefetch_late 5128
Core_0_L2C_prefetch_accuracy 0.0815465
Core_0_L2C_prefetch_coverage 0.712372

Core_0_LLC_total_access 256944
Core_0_LLC_total_hit 126774
Core_0_LLC_total_miss 130170
Core_0_LLC_total_MPKI 2.6034
Core_0_LLC_total_miss_rate 0.506608
Core_0_LLC_demand_access 41396
Core_0_LLC_demand_hit 33397
Core_0_LLC_demand_miss 7999
Core_0_LLC_demand_MPKI 0.15998
Core_0_LLC_demand_miss_rate 0.193231
Core_0_LLC_load_access 12857
Core_0_LLC_load_hit 5739
Core_0_LLC_load_miss 7118
Core_0_LLC_load_MPKI 0.14236
Core_0_LLC_load_miss_rate 0.553628
Core_0_LLC_rfo_access 28539
Core_0_LLC_rfo_hit 27658
Core_0_LLC_rfo_miss 881
Core_0_LLC_rfo_MPKI 0.01762
Core_0_LLC_rfo_miss_rate 0.03087
Core_0_LLC_prefetch_access 154230
Core_0_LLC_prefetch_hit 38560
Core_0_LLC_prefetch_miss 115670
Core_0_LLC_prefetch_MPKI 2.3134
Core_0_LLC_prefetch_miss_rate 0.749984
Core_0_LLC_writeback_access 61318
Core_0_LLC_writeback_hit 54817
Core_0_LLC_writeback_miss 6501
Core_0_LLC_writeback_MPKI 0.13002
Core_0_LLC_writeback_miss_rate 0.106021
Core_0_LLC_prefetch_requested 0
Core_0_LLC_prefetch_issued 0
Core_0_LLC_prefetch_useful 0
Core_0_LLC_prefetch_useless 0
Core_0_LLC_prefetch_late 0
Core_0_LLC_prefetch_accuracy 0
Core_0_LLC_prefetch_coverage 0

[DRAM Statistics]
Channel_0_RQ_row_buffer_hit 72
Channel_0_RQ_row_buffer_miss 124961
Channel_0_WQ_row_buffer_hit 4110
Channel_0_WQ_row_buffer_miss 30634
Channel_0_WQ_full 0
Channel_0_dbus_congested 317281
DRAM_total_RQ_row_buffer_hit 72
DRAM_total_RQ_row_buffer_miss 124961
DRAM_total_WQ_row_buffer_hit 4110
DRAM_total_WQ_row_buffer_miss 30634
DRAM_total_WQ_full 0
DRAM_total_dbus_congested 317281
DRAM_avg_congested_cycle 10.7309

======STLB miss causes ========
Core_0_STLB_miss_cause_breakdown
Core_0_STLB_cause_Demand_Data_miss 1099
Core_0_STLB_cause_Demand_Data_miss_rate 0.00175342
Core_0_STLB_cause_Demand_Instruction_miss 0
Core_0_STLB_cause_Demand_Instruction_miss_rate 0
Core_0_STLB_cause_L1D_Prefetch_miss 677
Core_0_STLB_cause_L1D_Prefetch_miss_rate 0.00108013
Core_0_STLB_cause_L1I_Prefetch_miss 0
Core_0_STLB_cause_L1I_Prefetch_miss_rate 0
Core_0_STLB_cause_Other_miss 0
Core_0_STLB_cause_Other_miss_rate 0
Core_0_STLB_Demand_miss 1099
Core_0_STLB_Demand_miss_rate 0.00175342
Core_0_STLB_L1D_Prefetch_miss 677
Core_0_STLB_L1D_Prefetch_miss_rate 0.00108013
Core_0_STLB_Other_miss 0
Core_0_STLB_Other_miss_rate 0
