[VMEM] WARNING: physical memory size is smaller than virtual memory size.

*** ChampSim Multicore Out-of-Order Simulator ***
Warmup Instructions: 20000000
Simulation Instructions: 50000000
Number of CPUs: 1
Page size: 4096
Core 0: /data0/tzh/champsim_traces/SPEC06/447.dealII-3B.champsimtrace.xz
 L1D Berti prefetcher
Off-chip DRAM Size: 4 GiB Channels: 1 Width: 64-bit Data Rate: 3205 MT/s
Warmup halting CPU 0 at instruction 20000004 cycle 4066297 for remainder of phase
Warmup finished CPU 0 instructions: 20000004 cycles: 4066297 cumulative IPC: 4.918 (Simulation time: 00 hr 00 min 57 sec)
Warmup complete CPU 0 instructions: 20000004 cycles: 4066297 cumulative IPC: 4.918 (Simulation time: 00 hr 00 min 57 sec)
Simulation finished CPU 0 instructions: 50000000 cycles: 26862631 cumulative IPC: 1.861 (Simulation time: 00 hr 04 min 37 sec)
Simulation complete CPU 0 instructions: 50000000 cycles: 26862631 cumulative IPC: 1.861 (Simulation time: 00 hr 04 min 37 sec)

ChampSim completed all CPUs

=== Simulation ===
CPU 0 runs /data0/tzh/champsim_traces/SPEC06/447.dealII-3B.champsimtrace.xz

Region of Interest Statistics

CPU 0 cumulative IPC: 1.861 instructions: 50000000 cycles: 26862631
CPU 0 Branch Prediction Accuracy: 95.51% MPKI: 4.331 Average ROB Occupancy at Mispredict: 133.1
Branch type MPKI
BRANCH_DIRECT_JUMP: 0.00066
BRANCH_INDIRECT: 0.03488
BRANCH_CONDITIONAL: 4.294
BRANCH_DIRECT_CALL: 6e-05
BRANCH_INDIRECT_CALL: 0.00042
BRANCH_RETURN: 0.00086

cpu0->cpu0_STLB TOTAL        ACCESS:       4692 HIT:       4661 MISS:         31 MSHR_MERGE:          0
cpu0->cpu0_STLB LOAD         ACCESS:       4692 HIT:       4661 MISS:         31 MSHR_MERGE:          0
cpu0->cpu0_STLB RFO          ACCESS:          0 HIT:          0 MISS:          0 MSHR_MERGE:          0
cpu0->cpu0_STLB PREFETCH     ACCESS:          0 HIT:          0 MISS:          0 MSHR_MERGE:          0
cpu0->cpu0_STLB WRITE        ACCESS:          0 HIT:          0 MISS:          0 MSHR_MERGE:          0
cpu0->cpu0_STLB TRANSLATION  ACCESS:          0 HIT:          0 MISS:          0 MSHR_MERGE:          0
cpu0->cpu0_STLB PREFETCH REQUESTED:          0 ISSUED:          0 USEFUL:          0 USELESS:          0 LATE:          0
cpu0->cpu0_STLB AVERAGE MISS LATENCY: 222.5 cycles
cpu0->cpu0_L2C TOTAL        ACCESS:     354924 HIT:     352248 MISS:       2676 MSHR_MERGE:        539
cpu0->cpu0_L2C LOAD         ACCESS:       8832 HIT:       8588 MISS:        244 MSHR_MERGE:          6
cpu0->cpu0_L2C RFO          ACCESS:       4961 HIT:       4941 MISS:         20 MSHR_MERGE:          0
cpu0->cpu0_L2C PREFETCH     ACCESS:     331658 HIT:     329253 MISS:       2405 MSHR_MERGE:        533
cpu0->cpu0_L2C WRITE        ACCESS:       9453 HIT:       9450 MISS:          3 MSHR_MERGE:          0
cpu0->cpu0_L2C TRANSLATION  ACCESS:         20 HIT:         16 MISS:          4 MSHR_MERGE:          0
cpu0->cpu0_L2C PREFETCH REQUESTED:     279256 ISSUED:     278789 USEFUL:       1416 USELESS:         51 LATE:          6
cpu0->cpu0_L2C AVERAGE MISS LATENCY: 154.3 cycles
cpu0->cpu0_L1I TOTAL        ACCESS:    1329565 HIT:    1329337 MISS:        228 MSHR_MERGE:         84
cpu0->cpu0_L1I LOAD         ACCESS:    1329565 HIT:    1329337 MISS:        228 MSHR_MERGE:         84
cpu0->cpu0_L1I RFO          ACCESS:          0 HIT:          0 MISS:          0 MSHR_MERGE:          0
cpu0->cpu0_L1I PREFETCH     ACCESS:          0 HIT:          0 MISS:          0 MSHR_MERGE:          0
cpu0->cpu0_L1I WRITE        ACCESS:          0 HIT:          0 MISS:          0 MSHR_MERGE:          0
cpu0->cpu0_L1I TRANSLATION  ACCESS:          0 HIT:          0 MISS:          0 MSHR_MERGE:          0
cpu0->cpu0_L1I PREFETCH REQUESTED:          0 ISSUED:          0 USEFUL:          0 USELESS:          0 LATE:          0
cpu0->cpu0_L1I AVERAGE MISS LATENCY: 197.3 cycles
cpu0->cpu0_L1D TOTAL        ACCESS:   19083523 HIT:   18997059 MISS:      86464 MSHR_MERGE:      19925
cpu0->cpu0_L1D LOAD         ACCESS:   12939586 HIT:   12927903 MISS:      11683 MSHR_MERGE:       2994
cpu0->cpu0_L1D RFO          ACCESS:          0 HIT:          0 MISS:          0 MSHR_MERGE:          0
cpu0->cpu0_L1D PREFETCH     ACCESS:      97359 HIT:      44037 MISS:      53322 MSHR_MERGE:        453
cpu0->cpu0_L1D WRITE        ACCESS:    6046516 HIT:    6025077 MISS:      21439 MSHR_MERGE:      16478
cpu0->cpu0_L1D TRANSLATION  ACCESS:         62 HIT:         42 MISS:         20 MSHR_MERGE:          0
cpu0->cpu0_L1D PREFETCH REQUESTED:      99533 ISSUED:      97351 USEFUL:      49603 USELESS:       3259 LATE:        269
cpu0->cpu0_L1D AVERAGE MISS LATENCY: 9.011 cycles
cpu0->cpu0_ITLB TOTAL        ACCESS:    1149425 HIT:    1149404 MISS:         21 MSHR_MERGE:         15
cpu0->cpu0_ITLB LOAD         ACCESS:    1149425 HIT:    1149404 MISS:         21 MSHR_MERGE:         15
cpu0->cpu0_ITLB RFO          ACCESS:          0 HIT:          0 MISS:          0 MSHR_MERGE:          0
cpu0->cpu0_ITLB PREFETCH     ACCESS:          0 HIT:          0 MISS:          0 MSHR_MERGE:          0
cpu0->cpu0_ITLB WRITE        ACCESS:          0 HIT:          0 MISS:          0 MSHR_MERGE:          0
cpu0->cpu0_ITLB TRANSLATION  ACCESS:          0 HIT:          0 MISS:          0 MSHR_MERGE:          0
cpu0->cpu0_ITLB PREFETCH REQUESTED:          0 ISSUED:          0 USEFUL:          0 USELESS:          0 LATE:          0
cpu0->cpu0_ITLB AVERAGE MISS LATENCY: 151.3 cycles
cpu0->cpu0_DTLB TOTAL        ACCESS:   17635745 HIT:   17630000 MISS:       5745 MSHR_MERGE:       1059
cpu0->cpu0_DTLB LOAD         ACCESS:   17635745 HIT:   17630000 MISS:       5745 MSHR_MERGE:       1059
cpu0->cpu0_DTLB RFO          ACCESS:          0 HIT:          0 MISS:          0 MSHR_MERGE:          0
cpu0->cpu0_DTLB PREFETCH     ACCESS:          0 HIT:          0 MISS:          0 MSHR_MERGE:          0
cpu0->cpu0_DTLB WRITE        ACCESS:          0 HIT:          0 MISS:          0 MSHR_MERGE:          0
cpu0->cpu0_DTLB TRANSLATION  ACCESS:          0 HIT:          0 MISS:          0 MSHR_MERGE:          0
cpu0->cpu0_DTLB PREFETCH REQUESTED:          0 ISSUED:          0 USEFUL:          0 USELESS:          0 LATE:          0
cpu0->cpu0_DTLB AVERAGE MISS LATENCY: 6.291 cycles
cpu0->LLC TOTAL        ACCESS:       2360 HIT:        550 MISS:       1810 MSHR_MERGE:          0
cpu0->LLC LOAD         ACCESS:        238 HIT:         32 MISS:        206 MSHR_MERGE:          0
cpu0->LLC RFO          ACCESS:         20 HIT:         19 MISS:          1 MSHR_MERGE:          0
cpu0->LLC PREFETCH     ACCESS:       1872 HIT:        270 MISS:       1602 MSHR_MERGE:          0
cpu0->LLC WRITE        ACCESS:        226 HIT:        226 MISS:          0 MSHR_MERGE:          0
cpu0->LLC TRANSLATION  ACCESS:          4 HIT:          3 MISS:          1 MSHR_MERGE:          0
cpu0->LLC PREFETCH REQUESTED:          0 ISSUED:          0 USEFUL:          0 USELESS:          0 LATE:          0
cpu0->LLC AVERAGE MISS LATENCY: 178.4 cycles

DRAM Statistics

Channel 0 RQ ROW_BUFFER_HIT:         10
  ROW_BUFFER_MISS:       1800
  AVG DBUS CONGESTED CYCLE: 2.87
Channel 0 WQ ROW_BUFFER_HIT:          0
  ROW_BUFFER_MISS:          0
  FULL:          0
Channel 0 REFRESHES ISSUED:       2239

[ROI Statistics]
[System Configuration]
num_cpus 1
cpu_freq 4000
fetch_width 6
decode_width 6
dispatch_width 6
execute_width 6
lq_width 2
sq_width 2
retire_width 6
scheduler_size 160
branch_mispredict_penalty 1
rob_size 352
lq_size 240
sq_size 112
ifetch_buffer_size 64
decode_buffer_size 32
dispatch_buffer_size 32
register_file_size 288
decode_latency 1
dispatch_latency 1
schedule_latency 0
execute_latency 0
page_size 4096
block_size 64
core_0_itlb_set 16
core_0_itlb_way 4
core_0_itlb_rq_size 16
core_0_itlb_wq_size 16
core_0_itlb_pq_size 0
core_0_itlb_mshr_size 8
core_0_itlb_hit_latency 1
core_0_itlb_fill_latency 1
core_0_itlb_max_tag_check 2
core_0_itlb_max_fill 2
core_0_dtlb_set 16
core_0_dtlb_way 4
core_0_dtlb_rq_size 16
core_0_dtlb_wq_size 16
core_0_dtlb_pq_size 0
core_0_dtlb_mshr_size 8
core_0_dtlb_hit_latency 1
core_0_dtlb_fill_latency 1
core_0_dtlb_max_tag_check 2
core_0_dtlb_max_fill 2
core_0_stlb_set 128
core_0_stlb_way 12
core_0_stlb_rq_size 32
core_0_stlb_wq_size 32
core_0_stlb_pq_size 0
core_0_stlb_mshr_size 16
core_0_stlb_hit_latency 4
core_0_stlb_fill_latency 4
core_0_stlb_max_tag_check 1
core_0_stlb_max_fill 1
core_0_l1i_set 64
core_0_l1i_way 8
core_0_l1i_rq_size 64
core_0_l1i_wq_size 64
core_0_l1i_pq_size 32
core_0_l1i_mshr_size 8
core_0_l1i_hit_latency 2
core_0_l1i_fill_latency 2
core_0_l1i_max_tag_check 2
core_0_l1i_max_fill 2
core_0_l1d_set 64
core_0_l1d_way 12
core_0_l1d_rq_size 64
core_0_l1d_wq_size 64
core_0_l1d_pq_size 8
core_0_l1d_mshr_size 16
core_0_l1d_hit_latency 2
core_0_l1d_fill_latency 3
core_0_l1d_max_tag_check 2
core_0_l1d_max_fill 2
core_0_l2c_set 1024
core_0_l2c_way 8
core_0_l2c_rq_size 32
core_0_l2c_wq_size 32
core_0_l2c_pq_size 16
core_0_l2c_mshr_size 32
core_0_l2c_hit_latency 5
core_0_l2c_fill_latency 5
core_0_l2c_max_tag_check 1
core_0_l2c_max_fill 1
llc_set 2048
llc_way 16
llc_rq_size 32
llc_wq_size 32
llc_pq_size 32
llc_mshr_size 64
llc_hit_latency 10
llc_fill_latency 10
llc_max_tag_check 1
llc_max_fill 1
dram_channels 1
dram_ranks 1
dram_bankgroups 8
dram_banks 4
dram_rows 16384
dram_columns 1024
dram_channel_width 8
dram_rq_size 64
dram_wq_size 64
dram_size 4294967296
core_0_itlb_prefetcher no
core_0_dtlb_prefetcher no
core_0_stlb_prefetcher no
core_0_l1i_prefetcher next_line
core_0_l1d_prefetcher berti
core_0_l2c_prefetcher pythia
llc_prefetcher no
llc_replacement drrip

Core_0_instructions 50000000
Core_0_cycles 26862631
Core_0_IPC 1.86132
Core_0_branch_prediction_accuracy 95.5113
Core_0_branch_MPKI 4.33128
Core_0_average_ROB_occupancy_at_mispredict 133.148

Core_0_ITLB_total_access 1149425
Core_0_ITLB_total_hit 1149404
Core_0_ITLB_total_miss 21
Core_0_ITLB_total_MPKI 0.00042
Core_0_ITLB_total_miss_rate 1.827e-05
Core_0_ITLB_demand_access 1149425
Core_0_ITLB_demand_hit 1149404
Core_0_ITLB_demand_miss 21
Core_0_ITLB_demand_MPKI 0.00042
Core_0_ITLB_demand_miss_rate 1.827e-05
Core_0_ITLB_load_access 1149425
Core_0_ITLB_load_hit 1149404
Core_0_ITLB_load_miss 21
Core_0_ITLB_load_MPKI 0.00042
Core_0_ITLB_load_miss_rate 1.827e-05
Core_0_ITLB_rfo_access 0
Core_0_ITLB_rfo_hit 0
Core_0_ITLB_rfo_miss 0
Core_0_ITLB_rfo_MPKI 0
Core_0_ITLB_rfo_miss_rate 0
Core_0_ITLB_prefetch_access 0
Core_0_ITLB_prefetch_hit 0
Core_0_ITLB_prefetch_miss 0
Core_0_ITLB_prefetch_MPKI 0
Core_0_ITLB_prefetch_miss_rate 0
Core_0_ITLB_writeback_access 0
Core_0_ITLB_writeback_hit 0
Core_0_ITLB_writeback_miss 0
Core_0_ITLB_writeback_MPKI 0
Core_0_ITLB_writeback_miss_rate 0
Core_0_ITLB_prefetch_requested 0
Core_0_ITLB_prefetch_issued 0
Core_0_ITLB_prefetch_useful 0
Core_0_ITLB_prefetch_useless 0
Core_0_ITLB_prefetch_late 0
Core_0_ITLB_prefetch_accuracy 0
Core_0_ITLB_prefetch_coverage 0

Core_0_DTLB_total_access 17635745
Core_0_DTLB_total_hit 17630000
Core_0_DTLB_total_miss 5745
Core_0_DTLB_total_MPKI 0.1149
Core_0_DTLB_total_miss_rate 0.000325759
Core_0_DTLB_demand_access 17635745
Core_0_DTLB_demand_hit 17630000
Core_0_DTLB_demand_miss 5745
Core_0_DTLB_demand_MPKI 0.1149
Core_0_DTLB_demand_miss_rate 0.000325759
Core_0_DTLB_load_access 17635745
Core_0_DTLB_load_hit 17630000
Core_0_DTLB_load_miss 5745
Core_0_DTLB_load_MPKI 0.1149
Core_0_DTLB_load_miss_rate 0.000325759
Core_0_DTLB_rfo_access 0
Core_0_DTLB_rfo_hit 0
Core_0_DTLB_rfo_miss 0
Core_0_DTLB_rfo_MPKI 0
Core_0_DTLB_rfo_miss_rate 0
Core_0_DTLB_prefetch_access 0
Core_0_DTLB_prefetch_hit 0
Core_0_DTLB_prefetch_miss 0
Core_0_DTLB_prefetch_MPKI 0
Core_0_DTLB_prefetch_miss_rate 0
Core_0_DTLB_writeback_access 0
Core_0_DTLB_writeback_hit 0
Core_0_DTLB_writeback_miss 0
Core_0_DTLB_writeback_MPKI 0
Core_0_DTLB_writeback_miss_rate 0
Core_0_DTLB_prefetch_requested 0
Core_0_DTLB_prefetch_issued 0
Core_0_DTLB_prefetch_useful 0
Core_0_DTLB_prefetch_useless 0
Core_0_DTLB_prefetch_late 0
Core_0_DTLB_prefetch_accuracy 0
Core_0_DTLB_prefetch_coverage 0

Core_0_STLB_total_access 4692
Core_0_STLB_total_hit 4661
Core_0_STLB_total_miss 31
Core_0_STLB_total_MPKI 0.00062
Core_0_STLB_total_miss_rate 0.00660699
Core_0_STLB_demand_access 4692
Core_0_STLB_demand_hit 4661
Core_0_STLB_demand_miss 31
Core_0_STLB_demand_MPKI 0.00062
Core_0_STLB_demand_miss_rate 0.00660699
Core_0_STLB_load_access 4692
Core_0_STLB_load_hit 4661
Core_0_STLB_load_miss 31
Core_0_STLB_load_MPKI 0.00062
Core_0_STLB_load_miss_rate 0.00660699
Core_0_STLB_rfo_access 0
Core_0_STLB_rfo_hit 0
Core_0_STLB_rfo_miss 0
Core_0_STLB_rfo_MPKI 0
Core_0_STLB_rfo_miss_rate 0
Core_0_STLB_prefetch_access 0
Core_0_STLB_prefetch_hit 0
Core_0_STLB_prefetch_miss 0
Core_0_STLB_prefetch_MPKI 0
Core_0_STLB_prefetch_miss_rate 0
Core_0_STLB_writeback_access 0
Core_0_STLB_writeback_hit 0
Core_0_STLB_writeback_miss 0
Core_0_STLB_writeback_MPKI 0
Core_0_STLB_writeback_miss_rate 0
Core_0_STLB_prefetch_requested 0
Core_0_STLB_prefetch_issued 0
Core_0_STLB_prefetch_useful 0
Core_0_STLB_prefetch_useless 0
Core_0_STLB_prefetch_late 0
Core_0_STLB_prefetch_accuracy 0
Core_0_STLB_prefetch_coverage 0

Core_0_L1I_total_access 1329565
Core_0_L1I_total_hit 1329337
Core_0_L1I_total_miss 228
Core_0_L1I_total_MPKI 0.00456
Core_0_L1I_total_miss_rate 0.000171485
Core_0_L1I_demand_access 1329565
Core_0_L1I_demand_hit 1329337
Core_0_L1I_demand_miss 228
Core_0_L1I_demand_MPKI 0.00456
Core_0_L1I_demand_miss_rate 0.000171485
Core_0_L1I_load_access 1329565
Core_0_L1I_load_hit 1329337
Core_0_L1I_load_miss 228
Core_0_L1I_load_MPKI 0.00456
Core_0_L1I_load_miss_rate 0.000171485
Core_0_L1I_rfo_access 0
Core_0_L1I_rfo_hit 0
Core_0_L1I_rfo_miss 0
Core_0_L1I_rfo_MPKI 0
Core_0_L1I_rfo_miss_rate 0
Core_0_L1I_prefetch_access 0
Core_0_L1I_prefetch_hit 0
Core_0_L1I_prefetch_miss 0
Core_0_L1I_prefetch_MPKI 0
Core_0_L1I_prefetch_miss_rate 0
Core_0_L1I_writeback_access 0
Core_0_L1I_writeback_hit 0
Core_0_L1I_writeback_miss 0
Core_0_L1I_writeback_MPKI 0
Core_0_L1I_writeback_miss_rate 0
Core_0_L1I_prefetch_requested 0
Core_0_L1I_prefetch_issued 0
Core_0_L1I_prefetch_useful 0
Core_0_L1I_prefetch_useless 0
Core_0_L1I_prefetch_late 0
Core_0_L1I_prefetch_accuracy 0
Core_0_L1I_prefetch_coverage 0

Core_0_L1D_total_access 19083461
Core_0_L1D_total_hit 18997017
Core_0_L1D_total_miss 86444
Core_0_L1D_total_MPKI 1.72888
Core_0_L1D_total_miss_rate 0.00452979
Core_0_L1D_demand_access 12939586
Core_0_L1D_demand_hit 12927903
Core_0_L1D_demand_miss 11683
Core_0_L1D_demand_MPKI 0.23366
Core_0_L1D_demand_miss_rate 0.000902888
Core_0_L1D_load_access 12939586
Core_0_L1D_load_hit 12927903
Core_0_L1D_load_miss 11683
Core_0_L1D_load_MPKI 0.23366
Core_0_L1D_load_miss_rate 0.000902888
Core_0_L1D_rfo_access 0
Core_0_L1D_rfo_hit 0
Core_0_L1D_rfo_miss 0
Core_0_L1D_rfo_MPKI 0
Core_0_L1D_rfo_miss_rate 0
Core_0_L1D_prefetch_access 97359
Core_0_L1D_prefetch_hit 44037
Core_0_L1D_prefetch_miss 53322
Core_0_L1D_prefetch_MPKI 1.06644
Core_0_L1D_prefetch_miss_rate 0.547684
Core_0_L1D_writeback_access 6046516
Core_0_L1D_writeback_hit 6025077
Core_0_L1D_writeback_miss 21439
Core_0_L1D_writeback_MPKI 0.42878
Core_0_L1D_writeback_miss_rate 0.00354568
Core_0_L1D_prefetch_requested 99533
Core_0_L1D_prefetch_issued 97351
Core_0_L1D_prefetch_useful 49603
Core_0_L1D_prefetch_useless 3259
Core_0_L1D_prefetch_late 269
Core_0_L1D_prefetch_accuracy 0.509527
Core_0_L1D_prefetch_coverage 0.809369

Core_0_L2C_total_access 354904
Core_0_L2C_total_hit 352232
Core_0_L2C_total_miss 2672
Core_0_L2C_total_MPKI 0.05344
Core_0_L2C_total_miss_rate 0.0075288
Core_0_L2C_demand_access 13793
Core_0_L2C_demand_hit 13529
Core_0_L2C_demand_miss 264
Core_0_L2C_demand_MPKI 0.00528
Core_0_L2C_demand_miss_rate 0.0191401
Core_0_L2C_load_access 8832
Core_0_L2C_load_hit 8588
Core_0_L2C_load_miss 244
Core_0_L2C_load_MPKI 0.00488
Core_0_L2C_load_miss_rate 0.0276268
Core_0_L2C_rfo_access 4961
Core_0_L2C_rfo_hit 4941
Core_0_L2C_rfo_miss 20
Core_0_L2C_rfo_MPKI 0.0004
Core_0_L2C_rfo_miss_rate 0.00403145
Core_0_L2C_prefetch_access 331658
Core_0_L2C_prefetch_hit 329253
Core_0_L2C_prefetch_miss 2405
Core_0_L2C_prefetch_MPKI 0.0481
Core_0_L2C_prefetch_miss_rate 0.00725145
Core_0_L2C_writeback_access 9453
Core_0_L2C_writeback_hit 9450
Core_0_L2C_writeback_miss 3
Core_0_L2C_writeback_MPKI 6e-05
Core_0_L2C_writeback_miss_rate 0.00031736
Core_0_L2C_prefetch_requested 279256
Core_0_L2C_prefetch_issued 278789
Core_0_L2C_prefetch_useful 1416
Core_0_L2C_prefetch_useless 51
Core_0_L2C_prefetch_late 6
Core_0_L2C_prefetch_accuracy 0.00507911
Core_0_L2C_prefetch_coverage 0.842857

Core_0_LLC_total_access 2356
Core_0_LLC_total_hit 547
Core_0_LLC_total_miss 1809
Core_0_LLC_total_MPKI 0.03618
Core_0_LLC_total_miss_rate 0.767827
Core_0_LLC_demand_access 258
Core_0_LLC_demand_hit 51
Core_0_LLC_demand_miss 207
Core_0_LLC_demand_MPKI 0.00414
Core_0_LLC_demand_miss_rate 0.802326
Core_0_LLC_load_access 238
Core_0_LLC_load_hit 32
Core_0_LLC_load_miss 206
Core_0_LLC_load_MPKI 0.00412
Core_0_LLC_load_miss_rate 0.865546
Core_0_LLC_rfo_access 20
Core_0_LLC_rfo_hit 19
Core_0_LLC_rfo_miss 1
Core_0_LLC_rfo_MPKI 2e-05
Core_0_LLC_rfo_miss_rate 0.05
Core_0_LLC_prefetch_access 1872
Core_0_LLC_prefetch_hit 270
Core_0_LLC_prefetch_miss 1602
Core_0_LLC_prefetch_MPKI 0.03204
Core_0_LLC_prefetch_miss_rate 0.855769
Core_0_LLC_writeback_access 226
Core_0_LLC_writeback_hit 226
Core_0_LLC_writeback_miss 0
Core_0_LLC_writeback_MPKI 0
Core_0_LLC_writeback_miss_rate 0
Core_0_LLC_prefetch_requested 0
Core_0_LLC_prefetch_issued 0
Core_0_LLC_prefetch_useful 0
Core_0_LLC_prefetch_useless 0
Core_0_LLC_prefetch_late 0
Core_0_LLC_prefetch_accuracy 0
Core_0_LLC_prefetch_coverage 0

[DRAM Statistics]
Channel_0_RQ_row_buffer_hit 10
Channel_0_RQ_row_buffer_miss 1800
Channel_0_WQ_row_buffer_hit 0
Channel_0_WQ_row_buffer_miss 0
Channel_0_WQ_full 0
Channel_0_dbus_congested 2353
DRAM_total_RQ_row_buffer_hit 10
DRAM_total_RQ_row_buffer_miss 1800
DRAM_total_WQ_row_buffer_hit 0
DRAM_total_WQ_row_buffer_miss 0
DRAM_total_WQ_full 0
DRAM_total_dbus_congested 2353
DRAM_avg_congested_cycle 2.86995

======STLB miss causes ========
Core_0_STLB_miss_cause_breakdown
Core_0_STLB_cause_Demand_Data_miss 14
Core_0_STLB_cause_Demand_Data_miss_rate 0.0029838
Core_0_STLB_cause_Demand_Instruction_miss 4
Core_0_STLB_cause_Demand_Instruction_miss_rate 0.000852515
Core_0_STLB_cause_L1D_Prefetch_miss 13
Core_0_STLB_cause_L1D_Prefetch_miss_rate 0.00277067
Core_0_STLB_cause_L1I_Prefetch_miss 0
Core_0_STLB_cause_L1I_Prefetch_miss_rate 0
Core_0_STLB_cause_Other_miss 0
Core_0_STLB_cause_Other_miss_rate 0
Core_0_STLB_Demand_miss 18
Core_0_STLB_Demand_miss_rate 0.00383632
Core_0_STLB_L1D_Prefetch_miss 13
Core_0_STLB_L1D_Prefetch_miss_rate 0.00277067
Core_0_STLB_Other_miss 0
Core_0_STLB_Other_miss_rate 0
