[VMEM] WARNING: physical memory size is smaller than virtual memory size.

*** ChampSim Multicore Out-of-Order Simulator ***
Warmup Instructions: 20000000
Simulation Instructions: 50000000
Number of CPUs: 1
Page size: 4096
Core 0: /data0/tzh/champsim_traces/SPEC06/482.sphinx3-1297B.champsimtrace.xz
 L1D Berti prefetcher
Off-chip DRAM Size: 4 GiB Channels: 1 Width: 64-bit Data Rate: 3205 MT/s
Warmup halting CPU 0 at instruction 20000001 cycle 4419551 for remainder of phase
Warmup finished CPU 0 instructions: 20000001 cycles: 4419551 cumulative IPC: 4.525 (Simulation time: 00 hr 00 min 53 sec)
Warmup complete CPU 0 instructions: 20000001 cycles: 4419551 cumulative IPC: 4.525 (Simulation time: 00 hr 00 min 53 sec)
Simulation finished CPU 0 instructions: 50000004 cycles: 24309007 cumulative IPC: 2.057 (Simulation time: 00 hr 04 min 31 sec)
Simulation complete CPU 0 instructions: 50000004 cycles: 24309007 cumulative IPC: 2.057 (Simulation time: 00 hr 04 min 31 sec)

ChampSim completed all CPUs

=== Simulation ===
CPU 0 runs /data0/tzh/champsim_traces/SPEC06/482.sphinx3-1297B.champsimtrace.xz

Region of Interest Statistics

CPU 0 cumulative IPC: 2.057 instructions: 50000004 cycles: 24309007
CPU 0 Branch Prediction Accuracy: 95.62% MPKI: 4.149 Average ROB Occupancy at Mispredict: 119.6
Branch type MPKI
BRANCH_DIRECT_JUMP: 0.0001
BRANCH_INDIRECT: 0
BRANCH_CONDITIONAL: 4.148
BRANCH_DIRECT_CALL: 0
BRANCH_INDIRECT_CALL: 2e-05
BRANCH_RETURN: 0.001

cpu0->cpu0_STLB TOTAL        ACCESS:      90613 HIT:      59992 MISS:      30621 MSHR_MERGE:          0
cpu0->cpu0_STLB LOAD         ACCESS:      90613 HIT:      59992 MISS:      30621 MSHR_MERGE:          0
cpu0->cpu0_STLB RFO          ACCESS:          0 HIT:          0 MISS:          0 MSHR_MERGE:          0
cpu0->cpu0_STLB PREFETCH     ACCESS:          0 HIT:          0 MISS:          0 MSHR_MERGE:          0
cpu0->cpu0_STLB WRITE        ACCESS:          0 HIT:          0 MISS:          0 MSHR_MERGE:          0
cpu0->cpu0_STLB TRANSLATION  ACCESS:          0 HIT:          0 MISS:          0 MSHR_MERGE:          0
cpu0->cpu0_STLB PREFETCH REQUESTED:          0 ISSUED:          0 USEFUL:          0 USELESS:          0 LATE:          0
cpu0->cpu0_STLB AVERAGE MISS LATENCY: 45.4 cycles
cpu0->cpu0_L2C TOTAL        ACCESS:    4258280 HIT:    2489872 MISS:    1768408 MSHR_MERGE:     727729
cpu0->cpu0_L2C LOAD         ACCESS:     333006 HIT:     207174 MISS:     125832 MSHR_MERGE:      12299
cpu0->cpu0_L2C RFO          ACCESS:      57651 HIT:       8553 MISS:      49098 MSHR_MERGE:          1
cpu0->cpu0_L2C PREFETCH     ACCESS:    3763101 HIT:    2176626 MISS:    1586475 MSHR_MERGE:     715429
cpu0->cpu0_L2C WRITE        ACCESS:      94844 HIT:      94666 MISS:        178 MSHR_MERGE:          0
cpu0->cpu0_L2C TRANSLATION  ACCESS:       9678 HIT:       2853 MISS:       6825 MSHR_MERGE:          0
cpu0->cpu0_L2C PREFETCH REQUESTED:    3408642 ISSUED:    3134258 USEFUL:     466629 USELESS:     299944 LATE:      12300
cpu0->cpu0_L2C AVERAGE MISS LATENCY: 123.2 cycles
cpu0->cpu0_L1I TOTAL        ACCESS:    1486645 HIT:    1486421 MISS:        224 MSHR_MERGE:        217
cpu0->cpu0_L1I LOAD         ACCESS:    1486645 HIT:    1486421 MISS:        224 MSHR_MERGE:        217
cpu0->cpu0_L1I RFO          ACCESS:          0 HIT:          0 MISS:          0 MSHR_MERGE:          0
cpu0->cpu0_L1I PREFETCH     ACCESS:          0 HIT:          0 MISS:          0 MSHR_MERGE:          0
cpu0->cpu0_L1I WRITE        ACCESS:          0 HIT:          0 MISS:          0 MSHR_MERGE:          0
cpu0->cpu0_L1I TRANSLATION  ACCESS:          0 HIT:          0 MISS:          0 MSHR_MERGE:          0
cpu0->cpu0_L1I PREFETCH REQUESTED:          0 ISSUED:          0 USEFUL:          0 USELESS:          0 LATE:          0
cpu0->cpu0_L1I AVERAGE MISS LATENCY: 220.3 cycles
cpu0->cpu0_L1D TOTAL        ACCESS:   11301890 HIT:    9552114 MISS:    1749776 MSHR_MERGE:     720598
cpu0->cpu0_L1D LOAD         ACCESS:    9110195 HIT:    8337795 MISS:     772400 MSHR_MERGE:     439401
cpu0->cpu0_L1D RFO          ACCESS:          0 HIT:          0 MISS:          0 MSHR_MERGE:          0
cpu0->cpu0_L1D PREFETCH     ACCESS:     769377 HIT:     129364 MISS:     640013 MSHR_MERGE:      11164
cpu0->cpu0_L1D WRITE        ACCESS:    1361180 HIT:    1033552 MISS:     327628 MSHR_MERGE:     269976
cpu0->cpu0_L1D TRANSLATION  ACCESS:      61138 HIT:      51403 MISS:       9735 MSHR_MERGE:         57
cpu0->cpu0_L1D PREFETCH REQUESTED:     773618 ISSUED:     769369 USEFUL:     476909 USELESS:     151952 LATE:      21230
cpu0->cpu0_L1D AVERAGE MISS LATENCY: 66.63 cycles
cpu0->cpu0_ITLB TOTAL        ACCESS:    1099295 HIT:    1099295 MISS:          0 MSHR_MERGE:          0
cpu0->cpu0_ITLB LOAD         ACCESS:    1099295 HIT:    1099295 MISS:          0 MSHR_MERGE:          0
cpu0->cpu0_ITLB RFO          ACCESS:          0 HIT:          0 MISS:          0 MSHR_MERGE:          0
cpu0->cpu0_ITLB PREFETCH     ACCESS:          0 HIT:          0 MISS:          0 MSHR_MERGE:          0
cpu0->cpu0_ITLB WRITE        ACCESS:          0 HIT:          0 MISS:          0 MSHR_MERGE:          0
cpu0->cpu0_ITLB TRANSLATION  ACCESS:          0 HIT:          0 MISS:          0 MSHR_MERGE:          0
cpu0->cpu0_ITLB PREFETCH REQUESTED:          0 ISSUED:          0 USEFUL:          0 USELESS:          0 LATE:          0
cpu0->cpu0_ITLB AVERAGE MISS LATENCY: - cycles
cpu0->cpu0_DTLB TOTAL        ACCESS:   10754916 HIT:   10522081 MISS:     232835 MSHR_MERGE:     142222
cpu0->cpu0_DTLB LOAD         ACCESS:   10754916 HIT:   10522081 MISS:     232835 MSHR_MERGE:     142222
cpu0->cpu0_DTLB RFO          ACCESS:          0 HIT:          0 MISS:          0 MSHR_MERGE:          0
cpu0->cpu0_DTLB PREFETCH     ACCESS:          0 HIT:          0 MISS:          0 MSHR_MERGE:          0
cpu0->cpu0_DTLB WRITE        ACCESS:          0 HIT:          0 MISS:          0 MSHR_MERGE:          0
cpu0->cpu0_DTLB TRANSLATION  ACCESS:          0 HIT:          0 MISS:          0 MSHR_MERGE:          0
cpu0->cpu0_DTLB PREFETCH REQUESTED:          0 ISSUED:          0 USEFUL:          0 USELESS:          0 LATE:          0
cpu0->cpu0_DTLB AVERAGE MISS LATENCY: 20.68 cycles
cpu0->LLC TOTAL        ACCESS:    1120768 HIT:     412470 MISS:     708298 MSHR_MERGE:          0
cpu0->LLC LOAD         ACCESS:     113532 HIT:      46797 MISS:      66735 MSHR_MERGE:          0
cpu0->LLC RFO          ACCESS:      49097 HIT:      35040 MISS:      14057 MSHR_MERGE:          0
cpu0->LLC PREFETCH     ACCESS:     871045 HIT:     261586 MISS:     609459 MSHR_MERGE:          0
cpu0->LLC WRITE        ACCESS:      80269 HIT:      65223 MISS:      15046 MSHR_MERGE:          0
cpu0->LLC TRANSLATION  ACCESS:       6825 HIT:       3824 MISS:       3001 MSHR_MERGE:          0
cpu0->LLC PREFETCH REQUESTED:          0 ISSUED:          0 USEFUL:          0 USELESS:          0 LATE:          0
cpu0->LLC AVERAGE MISS LATENCY: 183.5 cycles

DRAM Statistics

Channel 0 RQ ROW_BUFFER_HIT:      24885
  ROW_BUFFER_MISS:     667669
  AVG DBUS CONGESTED CYCLE: 4.513
Channel 0 WQ ROW_BUFFER_HIT:       4583
  ROW_BUFFER_MISS:      18240
  FULL:          0
Channel 0 REFRESHES ISSUED:       2026

[ROI Statistics]
[System Configuration]
num_cpus 1
cpu_freq 4000
fetch_width 6
decode_width 6
dispatch_width 6
execute_width 6
lq_width 2
sq_width 2
retire_width 6
scheduler_size 160
branch_mispredict_penalty 1
rob_size 352
lq_size 240
sq_size 112
ifetch_buffer_size 64
decode_buffer_size 32
dispatch_buffer_size 32
register_file_size 288
decode_latency 1
dispatch_latency 1
schedule_latency 0
execute_latency 0
page_size 4096
block_size 64
core_0_itlb_set 16
core_0_itlb_way 4
core_0_itlb_rq_size 16
core_0_itlb_wq_size 16
core_0_itlb_pq_size 0
core_0_itlb_mshr_size 8
core_0_itlb_hit_latency 1
core_0_itlb_fill_latency 1
core_0_itlb_max_tag_check 2
core_0_itlb_max_fill 2
core_0_dtlb_set 16
core_0_dtlb_way 4
core_0_dtlb_rq_size 16
core_0_dtlb_wq_size 16
core_0_dtlb_pq_size 0
core_0_dtlb_mshr_size 8
core_0_dtlb_hit_latency 1
core_0_dtlb_fill_latency 1
core_0_dtlb_max_tag_check 2
core_0_dtlb_max_fill 2
core_0_stlb_set 128
core_0_stlb_way 12
core_0_stlb_rq_size 32
core_0_stlb_wq_size 32
core_0_stlb_pq_size 0
core_0_stlb_mshr_size 16
core_0_stlb_hit_latency 4
core_0_stlb_fill_latency 4
core_0_stlb_max_tag_check 1
core_0_stlb_max_fill 1
core_0_l1i_set 64
core_0_l1i_way 8
core_0_l1i_rq_size 64
core_0_l1i_wq_size 64
core_0_l1i_pq_size 32
core_0_l1i_mshr_size 8
core_0_l1i_hit_latency 2
core_0_l1i_fill_latency 2
core_0_l1i_max_tag_check 2
core_0_l1i_max_fill 2
core_0_l1d_set 64
core_0_l1d_way 12
core_0_l1d_rq_size 64
core_0_l1d_wq_size 64
core_0_l1d_pq_size 8
core_0_l1d_mshr_size 16
core_0_l1d_hit_latency 2
core_0_l1d_fill_latency 3
core_0_l1d_max_tag_check 2
core_0_l1d_max_fill 2
core_0_l2c_set 1024
core_0_l2c_way 8
core_0_l2c_rq_size 32
core_0_l2c_wq_size 32
core_0_l2c_pq_size 16
core_0_l2c_mshr_size 32
core_0_l2c_hit_latency 5
core_0_l2c_fill_latency 5
core_0_l2c_max_tag_check 1
core_0_l2c_max_fill 1
llc_set 2048
llc_way 16
llc_rq_size 32
llc_wq_size 32
llc_pq_size 32
llc_mshr_size 64
llc_hit_latency 10
llc_fill_latency 10
llc_max_tag_check 1
llc_max_fill 1
dram_channels 1
dram_ranks 1
dram_bankgroups 8
dram_banks 4
dram_rows 16384
dram_columns 1024
dram_channel_width 8
dram_rq_size 64
dram_wq_size 64
dram_size 4294967296
core_0_itlb_prefetcher no
core_0_dtlb_prefetcher no
core_0_stlb_prefetcher no
core_0_l1i_prefetcher next_line
core_0_l1d_prefetcher berti
core_0_l2c_prefetcher pythia
llc_prefetcher no
llc_replacement drrip

Core_0_instructions 50000004
Core_0_cycles 24309007
Core_0_IPC 2.05685
Core_0_branch_prediction_accuracy 95.6206
Core_0_branch_MPKI 4.14944
Core_0_average_ROB_occupancy_at_mispredict 119.579

Core_0_ITLB_total_access 1099295
Core_0_ITLB_total_hit 1099295
Core_0_ITLB_total_miss 0
Core_0_ITLB_total_MPKI 0
Core_0_ITLB_total_miss_rate 0
Core_0_ITLB_demand_access 1099295
Core_0_ITLB_demand_hit 1099295
Core_0_ITLB_demand_miss 0
Core_0_ITLB_demand_MPKI 0
Core_0_ITLB_demand_miss_rate 0
Core_0_ITLB_load_access 1099295
Core_0_ITLB_load_hit 1099295
Core_0_ITLB_load_miss 0
Core_0_ITLB_load_MPKI 0
Core_0_ITLB_load_miss_rate 0
Core_0_ITLB_rfo_access 0
Core_0_ITLB_rfo_hit 0
Core_0_ITLB_rfo_miss 0
Core_0_ITLB_rfo_MPKI 0
Core_0_ITLB_rfo_miss_rate 0
Core_0_ITLB_prefetch_access 0
Core_0_ITLB_prefetch_hit 0
Core_0_ITLB_prefetch_miss 0
Core_0_ITLB_prefetch_MPKI 0
Core_0_ITLB_prefetch_miss_rate 0
Core_0_ITLB_writeback_access 0
Core_0_ITLB_writeback_hit 0
Core_0_ITLB_writeback_miss 0
Core_0_ITLB_writeback_MPKI 0
Core_0_ITLB_writeback_miss_rate 0
Core_0_ITLB_prefetch_requested 0
Core_0_ITLB_prefetch_issued 0
Core_0_ITLB_prefetch_useful 0
Core_0_ITLB_prefetch_useless 0
Core_0_ITLB_prefetch_late 0
Core_0_ITLB_prefetch_accuracy 0
Core_0_ITLB_prefetch_coverage 0

Core_0_DTLB_total_access 10754916
Core_0_DTLB_total_hit 10522081
Core_0_DTLB_total_miss 232835
Core_0_DTLB_total_MPKI 4.6567
Core_0_DTLB_total_miss_rate 0.0216492
Core_0_DTLB_demand_access 10754916
Core_0_DTLB_demand_hit 10522081
Core_0_DTLB_demand_miss 232835
Core_0_DTLB_demand_MPKI 4.6567
Core_0_DTLB_demand_miss_rate 0.0216492
Core_0_DTLB_load_access 10754916
Core_0_DTLB_load_hit 10522081
Core_0_DTLB_load_miss 232835
Core_0_DTLB_load_MPKI 4.6567
Core_0_DTLB_load_miss_rate 0.0216492
Core_0_DTLB_rfo_access 0
Core_0_DTLB_rfo_hit 0
Core_0_DTLB_rfo_miss 0
Core_0_DTLB_rfo_MPKI 0
Core_0_DTLB_rfo_miss_rate 0
Core_0_DTLB_prefetch_access 0
Core_0_DTLB_prefetch_hit 0
Core_0_DTLB_prefetch_miss 0
Core_0_DTLB_prefetch_MPKI 0
Core_0_DTLB_prefetch_miss_rate 0
Core_0_DTLB_writeback_access 0
Core_0_DTLB_writeback_hit 0
Core_0_DTLB_writeback_miss 0
Core_0_DTLB_writeback_MPKI 0
Core_0_DTLB_writeback_miss_rate 0
Core_0_DTLB_prefetch_requested 0
Core_0_DTLB_prefetch_issued 0
Core_0_DTLB_prefetch_useful 0
Core_0_DTLB_prefetch_useless 0
Core_0_DTLB_prefetch_late 0
Core_0_DTLB_prefetch_accuracy 0
Core_0_DTLB_prefetch_coverage 0

Core_0_STLB_total_access 90613
Core_0_STLB_total_hit 59992
Core_0_STLB_total_miss 30621
Core_0_STLB_total_MPKI 0.61242
Core_0_STLB_total_miss_rate 0.337932
Core_0_STLB_demand_access 90613
Core_0_STLB_demand_hit 59992
Core_0_STLB_demand_miss 30621
Core_0_STLB_demand_MPKI 0.61242
Core_0_STLB_demand_miss_rate 0.337932
Core_0_STLB_load_access 90613
Core_0_STLB_load_hit 59992
Core_0_STLB_load_miss 30621
Core_0_STLB_load_MPKI 0.61242
Core_0_STLB_load_miss_rate 0.337932
Core_0_STLB_rfo_access 0
Core_0_STLB_rfo_hit 0
Core_0_STLB_rfo_miss 0
Core_0_STLB_rfo_MPKI 0
Core_0_STLB_rfo_miss_rate 0
Core_0_STLB_prefetch_access 0
Core_0_STLB_prefetch_hit 0
Core_0_STLB_prefetch_miss 0
Core_0_STLB_prefetch_MPKI 0
Core_0_STLB_prefetch_miss_rate 0
Core_0_STLB_writeback_access 0
Core_0_STLB_writeback_hit 0
Core_0_STLB_writeback_miss 0
Core_0_STLB_writeback_MPKI 0
Core_0_STLB_writeback_miss_rate 0
Core_0_STLB_prefetch_requested 0
Core_0_STLB_prefetch_issued 0
Core_0_STLB_prefetch_useful 0
Core_0_STLB_prefetch_useless 0
Core_0_STLB_prefetch_late 0
Core_0_STLB_prefetch_accuracy 0
Core_0_STLB_prefetch_coverage 0

Core_0_L1I_total_access 1486645
Core_0_L1I_total_hit 1486421
Core_0_L1I_total_miss 224
Core_0_L1I_total_MPKI 0.00448
Core_0_L1I_total_miss_rate 0.000150675
Core_0_L1I_demand_access 1486645
Core_0_L1I_demand_hit 1486421
Core_0_L1I_demand_miss 224
Core_0_L1I_demand_MPKI 0.00448
Core_0_L1I_demand_miss_rate 0.000150675
Core_0_L1I_load_access 1486645
Core_0_L1I_load_hit 1486421
Core_0_L1I_load_miss 224
Core_0_L1I_load_MPKI 0.00448
Core_0_L1I_load_miss_rate 0.000150675
Core_0_L1I_rfo_access 0
Core_0_L1I_rfo_hit 0
Core_0_L1I_rfo_miss 0
Core_0_L1I_rfo_MPKI 0
Core_0_L1I_rfo_miss_rate 0
Core_0_L1I_prefetch_access 0
Core_0_L1I_prefetch_hit 0
Core_0_L1I_prefetch_miss 0
Core_0_L1I_prefetch_MPKI 0
Core_0_L1I_prefetch_miss_rate 0
Core_0_L1I_writeback_access 0
Core_0_L1I_writeback_hit 0
Core_0_L1I_writeback_miss 0
Core_0_L1I_writeback_MPKI 0
Core_0_L1I_writeback_miss_rate 0
Core_0_L1I_prefetch_requested 0
Core_0_L1I_prefetch_issued 0
Core_0_L1I_prefetch_useful 0
Core_0_L1I_prefetch_useless 0
Core_0_L1I_prefetch_late 0
Core_0_L1I_prefetch_accuracy 0
Core_0_L1I_prefetch_coverage 0

Core_0_L1D_total_access 11240752
Core_0_L1D_total_hit 9500711
Core_0_L1D_total_miss 1740041
Core_0_L1D_total_MPKI 34.8008
Core_0_L1D_total_miss_rate 0.154798
Core_0_L1D_demand_access 9110195
Core_0_L1D_demand_hit 8337795
Core_0_L1D_demand_miss 772400
Core_0_L1D_demand_MPKI 15.448
Core_0_L1D_demand_miss_rate 0.0847841
Core_0_L1D_load_access 9110195
Core_0_L1D_load_hit 8337795
Core_0_L1D_load_miss 772400
Core_0_L1D_load_MPKI 15.448
Core_0_L1D_load_miss_rate 0.0847841
Core_0_L1D_rfo_access 0
Core_0_L1D_rfo_hit 0
Core_0_L1D_rfo_miss 0
Core_0_L1D_rfo_MPKI 0
Core_0_L1D_rfo_miss_rate 0
Core_0_L1D_prefetch_access 769377
Core_0_L1D_prefetch_hit 129364
Core_0_L1D_prefetch_miss 640013
Core_0_L1D_prefetch_MPKI 12.8003
Core_0_L1D_prefetch_miss_rate 0.831859
Core_0_L1D_writeback_access 1361180
Core_0_L1D_writeback_hit 1033552
Core_0_L1D_writeback_miss 327628
Core_0_L1D_writeback_MPKI 6.55256
Core_0_L1D_writeback_miss_rate 0.240694
Core_0_L1D_prefetch_requested 773618
Core_0_L1D_prefetch_issued 769369
Core_0_L1D_prefetch_useful 476909
Core_0_L1D_prefetch_useless 151952
Core_0_L1D_prefetch_late 21230
Core_0_L1D_prefetch_accuracy 0.61987
Core_0_L1D_prefetch_coverage 0.381738

Core_0_L2C_total_access 4248602
Core_0_L2C_total_hit 2487019
Core_0_L2C_total_miss 1761583
Core_0_L2C_total_MPKI 35.2317
Core_0_L2C_total_miss_rate 0.414627
Core_0_L2C_demand_access 390657
Core_0_L2C_demand_hit 215727
Core_0_L2C_demand_miss 174930
Core_0_L2C_demand_MPKI 3.4986
Core_0_L2C_demand_miss_rate 0.447784
Core_0_L2C_load_access 333006
Core_0_L2C_load_hit 207174
Core_0_L2C_load_miss 125832
Core_0_L2C_load_MPKI 2.51664
Core_0_L2C_load_miss_rate 0.377867
Core_0_L2C_rfo_access 57651
Core_0_L2C_rfo_hit 8553
Core_0_L2C_rfo_miss 49098
Core_0_L2C_rfo_MPKI 0.98196
Core_0_L2C_rfo_miss_rate 0.851642
Core_0_L2C_prefetch_access 3763101
Core_0_L2C_prefetch_hit 2176626
Core_0_L2C_prefetch_miss 1586475
Core_0_L2C_prefetch_MPKI 31.7295
Core_0_L2C_prefetch_miss_rate 0.421587
Core_0_L2C_writeback_access 94844
Core_0_L2C_writeback_hit 94666
Core_0_L2C_writeback_miss 178
Core_0_L2C_writeback_MPKI 0.00356
Core_0_L2C_writeback_miss_rate 0.00187677
Core_0_L2C_prefetch_requested 3408642
Core_0_L2C_prefetch_issued 3134258
Core_0_L2C_prefetch_useful 466629
Core_0_L2C_prefetch_useless 299944
Core_0_L2C_prefetch_late 12300
Core_0_L2C_prefetch_accuracy 0.14888
Core_0_L2C_prefetch_coverage 0.727336

Core_0_LLC_total_access 1113943
Core_0_LLC_total_hit 408646
Core_0_LLC_total_miss 705297
Core_0_LLC_total_MPKI 14.1059
Core_0_LLC_total_miss_rate 0.633154
Core_0_LLC_demand_access 162629
Core_0_LLC_demand_hit 81837
Core_0_LLC_demand_miss 80792
Core_0_LLC_demand_MPKI 1.61584
Core_0_LLC_demand_miss_rate 0.496787
Core_0_LLC_load_access 113532
Core_0_LLC_load_hit 46797
Core_0_LLC_load_miss 66735
Core_0_LLC_load_MPKI 1.3347
Core_0_LLC_load_miss_rate 0.587808
Core_0_LLC_rfo_access 49097
Core_0_LLC_rfo_hit 35040
Core_0_LLC_rfo_miss 14057
Core_0_LLC_rfo_MPKI 0.28114
Core_0_LLC_rfo_miss_rate 0.286311
Core_0_LLC_prefetch_access 871045
Core_0_LLC_prefetch_hit 261586
Core_0_LLC_prefetch_miss 609459
Core_0_LLC_prefetch_MPKI 12.1892
Core_0_LLC_prefetch_miss_rate 0.699687
Core_0_LLC_writeback_access 80269
Core_0_LLC_writeback_hit 65223
Core_0_LLC_writeback_miss 15046
Core_0_LLC_writeback_MPKI 0.30092
Core_0_LLC_writeback_miss_rate 0.187445
Core_0_LLC_prefetch_requested 0
Core_0_LLC_prefetch_issued 0
Core_0_LLC_prefetch_useful 0
Core_0_LLC_prefetch_useless 0
Core_0_LLC_prefetch_late 0
Core_0_LLC_prefetch_accuracy 0
Core_0_LLC_prefetch_coverage 0

[DRAM Statistics]
Channel_0_RQ_row_buffer_hit 24885
Channel_0_RQ_row_buffer_miss 667669
Channel_0_WQ_row_buffer_hit 4583
Channel_0_WQ_row_buffer_miss 18240
Channel_0_WQ_full 0
Channel_0_dbus_congested 1299416
DRAM_total_RQ_row_buffer_hit 24885
DRAM_total_RQ_row_buffer_miss 667669
DRAM_total_WQ_row_buffer_hit 4583
DRAM_total_WQ_row_buffer_miss 18240
DRAM_total_WQ_full 0
DRAM_total_dbus_congested 1299416
DRAM_avg_congested_cycle 4.51315

======STLB miss causes ========
Core_0_STLB_miss_cause_breakdown
Core_0_STLB_cause_Demand_Data_miss 23800
Core_0_STLB_cause_Demand_Data_miss_rate 0.262655
Core_0_STLB_cause_Demand_Instruction_miss 0
Core_0_STLB_cause_Demand_Instruction_miss_rate 0
Core_0_STLB_cause_L1D_Prefetch_miss 6821
Core_0_STLB_cause_L1D_Prefetch_miss_rate 0.0752762
Core_0_STLB_cause_L1I_Prefetch_miss 0
Core_0_STLB_cause_L1I_Prefetch_miss_rate 0
Core_0_STLB_cause_Other_miss 0
Core_0_STLB_cause_Other_miss_rate 0
Core_0_STLB_Demand_miss 23800
Core_0_STLB_Demand_miss_rate 0.262655
Core_0_STLB_L1D_Prefetch_miss 6821
Core_0_STLB_L1D_Prefetch_miss_rate 0.0752762
Core_0_STLB_Other_miss 0
Core_0_STLB_Other_miss_rate 0
