[VMEM] WARNING: physical memory size is smaller than virtual memory size.

*** ChampSim Multicore Out-of-Order Simulator ***
Warmup Instructions: 20000000
Simulation Instructions: 50000000
Number of CPUs: 1
Page size: 4096
Core 0: /data0/tzh/champsim_traces/SPEC06/482.sphinx3-1100B.champsimtrace.xz
 L1D Berti prefetcher
Off-chip DRAM Size: 4 GiB Channels: 1 Width: 64-bit Data Rate: 3205 MT/s
Warmup halting CPU 0 at instruction 20000000 cycle 4283662 for remainder of phase
Warmup finished CPU 0 instructions: 20000000 cycles: 4283662 cumulative IPC: 4.669 (Simulation time: 00 hr 00 min 47 sec)
Warmup complete CPU 0 instructions: 20000000 cycles: 4283662 cumulative IPC: 4.669 (Simulation time: 00 hr 00 min 47 sec)
Simulation finished CPU 0 instructions: 50000001 cycles: 20701524 cumulative IPC: 2.415 (Simulation time: 00 hr 03 min 52 sec)
Simulation complete CPU 0 instructions: 50000001 cycles: 20701524 cumulative IPC: 2.415 (Simulation time: 00 hr 03 min 52 sec)

ChampSim completed all CPUs

=== Simulation ===
CPU 0 runs /data0/tzh/champsim_traces/SPEC06/482.sphinx3-1100B.champsimtrace.xz

Region of Interest Statistics

CPU 0 cumulative IPC: 2.415 instructions: 50000001 cycles: 20701524
CPU 0 Branch Prediction Accuracy: 96.15% MPKI: 3.556 Average ROB Occupancy at Mispredict: 119.8
Branch type MPKI
BRANCH_DIRECT_JUMP: 0.00088
BRANCH_INDIRECT: 0
BRANCH_CONDITIONAL: 3.552
BRANCH_DIRECT_CALL: 0.00152
BRANCH_INDIRECT_CALL: 4e-05
BRANCH_RETURN: 0.00206

cpu0->cpu0_STLB TOTAL        ACCESS:      60115 HIT:      40398 MISS:      19717 MSHR_MERGE:          0
cpu0->cpu0_STLB LOAD         ACCESS:      60115 HIT:      40398 MISS:      19717 MSHR_MERGE:          0
cpu0->cpu0_STLB RFO          ACCESS:          0 HIT:          0 MISS:          0 MSHR_MERGE:          0
cpu0->cpu0_STLB PREFETCH     ACCESS:          0 HIT:          0 MISS:          0 MSHR_MERGE:          0
cpu0->cpu0_STLB WRITE        ACCESS:          0 HIT:          0 MISS:          0 MSHR_MERGE:          0
cpu0->cpu0_STLB TRANSLATION  ACCESS:          0 HIT:          0 MISS:          0 MSHR_MERGE:          0
cpu0->cpu0_STLB PREFETCH REQUESTED:          0 ISSUED:          0 USEFUL:          0 USELESS:          0 LATE:          0
cpu0->cpu0_STLB AVERAGE MISS LATENCY: 57.23 cycles
cpu0->cpu0_L2C TOTAL        ACCESS:    3477241 HIT:    2022354 MISS:    1454887 MSHR_MERGE:     607312
cpu0->cpu0_L2C LOAD         ACCESS:     219437 HIT:     143253 MISS:      76184 MSHR_MERGE:       5298
cpu0->cpu0_L2C RFO          ACCESS:      39466 HIT:       4451 MISS:      35015 MSHR_MERGE:          5
cpu0->cpu0_L2C PREFETCH     ACCESS:    3150045 HIT:    1810995 MISS:    1339050 MSHR_MERGE:     602009
cpu0->cpu0_L2C WRITE        ACCESS:      61597 HIT:      61471 MISS:        126 MSHR_MERGE:          0
cpu0->cpu0_L2C TRANSLATION  ACCESS:       6696 HIT:       2184 MISS:       4512 MSHR_MERGE:          0
cpu0->cpu0_L2C PREFETCH REQUESTED:    2701007 ISSUED:    2574955 USEFUL:     440698 USELESS:     217443 LATE:       5303
cpu0->cpu0_L2C AVERAGE MISS LATENCY: 125 cycles
cpu0->cpu0_L1I TOTAL        ACCESS:    2946929 HIT:    2946664 MISS:        265 MSHR_MERGE:         43
cpu0->cpu0_L1I LOAD         ACCESS:    2946929 HIT:    2946664 MISS:        265 MSHR_MERGE:         43
cpu0->cpu0_L1I RFO          ACCESS:          0 HIT:          0 MISS:          0 MSHR_MERGE:          0
cpu0->cpu0_L1I PREFETCH     ACCESS:          0 HIT:          0 MISS:          0 MSHR_MERGE:          0
cpu0->cpu0_L1I WRITE        ACCESS:          0 HIT:          0 MISS:          0 MSHR_MERGE:          0
cpu0->cpu0_L1I TRANSLATION  ACCESS:          0 HIT:          0 MISS:          0 MSHR_MERGE:          0
cpu0->cpu0_L1I PREFETCH REQUESTED:          0 ISSUED:          0 USEFUL:          0 USELESS:          0 LATE:          0
cpu0->cpu0_L1I AVERAGE MISS LATENCY: 205.7 cycles
cpu0->cpu0_L1D TOTAL        ACCESS:   10674036 HIT:    9316218 MISS:    1357818 MSHR_MERGE:     517344
cpu0->cpu0_L1D LOAD         ACCESS:    9003745 HIT:    8471443 MISS:     532302 MSHR_MERGE:     313085
cpu0->cpu0_L1D RFO          ACCESS:          0 HIT:          0 MISS:          0 MSHR_MERGE:          0
cpu0->cpu0_L1D PREFETCH     ACCESS:     661473 HIT:      80045 MISS:     581428 MSHR_MERGE:       6335
cpu0->cpu0_L1D WRITE        ACCESS:     969428 HIT:     732045 MISS:     237383 MSHR_MERGE:     197915
cpu0->cpu0_L1D TRANSLATION  ACCESS:      39390 HIT:      32685 MISS:       6705 MSHR_MERGE:          9
cpu0->cpu0_L1D PREFETCH REQUESTED:     664573 ISSUED:     661465 USEFUL:     483099 USELESS:      91996 LATE:      23154
cpu0->cpu0_L1D AVERAGE MISS LATENCY: 66.1 cycles
cpu0->cpu0_ITLB TOTAL        ACCESS:    1860707 HIT:    1860691 MISS:         16 MSHR_MERGE:          4
cpu0->cpu0_ITLB LOAD         ACCESS:    1860707 HIT:    1860691 MISS:         16 MSHR_MERGE:          4
cpu0->cpu0_ITLB RFO          ACCESS:          0 HIT:          0 MISS:          0 MSHR_MERGE:          0
cpu0->cpu0_ITLB PREFETCH     ACCESS:          0 HIT:          0 MISS:          0 MSHR_MERGE:          0
cpu0->cpu0_ITLB WRITE        ACCESS:          0 HIT:          0 MISS:          0 MSHR_MERGE:          0
cpu0->cpu0_ITLB TRANSLATION  ACCESS:          0 HIT:          0 MISS:          0 MSHR_MERGE:          0
cpu0->cpu0_ITLB PREFETCH REQUESTED:          0 ISSUED:          0 USEFUL:          0 USELESS:          0 LATE:          0
cpu0->cpu0_ITLB AVERAGE MISS LATENCY: 325.7 cycles
cpu0->cpu0_DTLB TOTAL        ACCESS:   10221842 HIT:   10078527 MISS:     143315 MSHR_MERGE:      83212
cpu0->cpu0_DTLB LOAD         ACCESS:   10221842 HIT:   10078527 MISS:     143315 MSHR_MERGE:      83212
cpu0->cpu0_DTLB RFO          ACCESS:          0 HIT:          0 MISS:          0 MSHR_MERGE:          0
cpu0->cpu0_DTLB PREFETCH     ACCESS:          0 HIT:          0 MISS:          0 MSHR_MERGE:          0
cpu0->cpu0_DTLB WRITE        ACCESS:          0 HIT:          0 MISS:          0 MSHR_MERGE:          0
cpu0->cpu0_DTLB TRANSLATION  ACCESS:          0 HIT:          0 MISS:          0 MSHR_MERGE:          0
cpu0->cpu0_DTLB PREFETCH REQUESTED:          0 ISSUED:          0 USEFUL:          0 USELESS:          0 LATE:          0
cpu0->cpu0_DTLB AVERAGE MISS LATENCY: 24.04 cycles
cpu0->LLC TOTAL        ACCESS:     899405 HIT:     286349 MISS:     613056 MSHR_MERGE:          0
cpu0->LLC LOAD         ACCESS:      70886 HIT:      30498 MISS:      40388 MSHR_MERGE:          0
cpu0->LLC RFO          ACCESS:      35010 HIT:      21357 MISS:      13653 MSHR_MERGE:          0
cpu0->LLC PREFETCH     ACCESS:     737040 HIT:     196429 MISS:     540611 MSHR_MERGE:          0
cpu0->LLC WRITE        ACCESS:      51957 HIT:      36799 MISS:      15158 MSHR_MERGE:          0
cpu0->LLC TRANSLATION  ACCESS:       4512 HIT:       1266 MISS:       3246 MSHR_MERGE:          0
cpu0->LLC PREFETCH REQUESTED:          0 ISSUED:          0 USEFUL:          0 USELESS:          0 LATE:          0
cpu0->LLC AVERAGE MISS LATENCY: 168 cycles

DRAM Statistics

Channel 0 RQ ROW_BUFFER_HIT:      20749
  ROW_BUFFER_MISS:     576673
  AVG DBUS CONGESTED CYCLE: 4.711
Channel 0 WQ ROW_BUFFER_HIT:       4362
  ROW_BUFFER_MISS:      15727
  FULL:          0
Channel 0 REFRESHES ISSUED:       1726

[ROI Statistics]
[System Configuration]
num_cpus 1
cpu_freq 4000
fetch_width 6
decode_width 6
dispatch_width 6
execute_width 6
lq_width 2
sq_width 2
retire_width 6
scheduler_size 160
branch_mispredict_penalty 1
rob_size 352
lq_size 240
sq_size 112
ifetch_buffer_size 64
decode_buffer_size 32
dispatch_buffer_size 32
register_file_size 288
decode_latency 1
dispatch_latency 1
schedule_latency 0
execute_latency 0
page_size 4096
block_size 64
core_0_itlb_set 16
core_0_itlb_way 4
core_0_itlb_rq_size 16
core_0_itlb_wq_size 16
core_0_itlb_pq_size 0
core_0_itlb_mshr_size 8
core_0_itlb_hit_latency 1
core_0_itlb_fill_latency 1
core_0_itlb_max_tag_check 2
core_0_itlb_max_fill 2
core_0_dtlb_set 16
core_0_dtlb_way 4
core_0_dtlb_rq_size 16
core_0_dtlb_wq_size 16
core_0_dtlb_pq_size 0
core_0_dtlb_mshr_size 8
core_0_dtlb_hit_latency 1
core_0_dtlb_fill_latency 1
core_0_dtlb_max_tag_check 2
core_0_dtlb_max_fill 2
core_0_stlb_set 128
core_0_stlb_way 12
core_0_stlb_rq_size 32
core_0_stlb_wq_size 32
core_0_stlb_pq_size 0
core_0_stlb_mshr_size 16
core_0_stlb_hit_latency 4
core_0_stlb_fill_latency 4
core_0_stlb_max_tag_check 1
core_0_stlb_max_fill 1
core_0_l1i_set 64
core_0_l1i_way 8
core_0_l1i_rq_size 64
core_0_l1i_wq_size 64
core_0_l1i_pq_size 32
core_0_l1i_mshr_size 8
core_0_l1i_hit_latency 2
core_0_l1i_fill_latency 2
core_0_l1i_max_tag_check 2
core_0_l1i_max_fill 2
core_0_l1d_set 64
core_0_l1d_way 12
core_0_l1d_rq_size 64
core_0_l1d_wq_size 64
core_0_l1d_pq_size 8
core_0_l1d_mshr_size 16
core_0_l1d_hit_latency 2
core_0_l1d_fill_latency 3
core_0_l1d_max_tag_check 2
core_0_l1d_max_fill 2
core_0_l2c_set 1024
core_0_l2c_way 8
core_0_l2c_rq_size 32
core_0_l2c_wq_size 32
core_0_l2c_pq_size 16
core_0_l2c_mshr_size 32
core_0_l2c_hit_latency 5
core_0_l2c_fill_latency 5
core_0_l2c_max_tag_check 1
core_0_l2c_max_fill 1
llc_set 2048
llc_way 16
llc_rq_size 32
llc_wq_size 32
llc_pq_size 32
llc_mshr_size 64
llc_hit_latency 10
llc_fill_latency 10
llc_max_tag_check 1
llc_max_fill 1
dram_channels 1
dram_ranks 1
dram_bankgroups 8
dram_banks 4
dram_rows 16384
dram_columns 1024
dram_channel_width 8
dram_rq_size 64
dram_wq_size 64
dram_size 4294967296
core_0_itlb_prefetcher no
core_0_dtlb_prefetcher no
core_0_stlb_prefetcher no
core_0_l1i_prefetcher next_line
core_0_l1d_prefetcher berti
core_0_l2c_prefetcher pythia
llc_prefetcher no
llc_replacement drrip

Core_0_instructions 50000001
Core_0_cycles 20701524
Core_0_IPC 2.41528
Core_0_branch_prediction_accuracy 96.1484
Core_0_branch_MPKI 3.55634
Core_0_average_ROB_occupancy_at_mispredict 119.761

Core_0_ITLB_total_access 1860707
Core_0_ITLB_total_hit 1860691
Core_0_ITLB_total_miss 16
Core_0_ITLB_total_MPKI 0.00032
Core_0_ITLB_total_miss_rate 8.59888e-06
Core_0_ITLB_demand_access 1860707
Core_0_ITLB_demand_hit 1860691
Core_0_ITLB_demand_miss 16
Core_0_ITLB_demand_MPKI 0.00032
Core_0_ITLB_demand_miss_rate 8.59888e-06
Core_0_ITLB_load_access 1860707
Core_0_ITLB_load_hit 1860691
Core_0_ITLB_load_miss 16
Core_0_ITLB_load_MPKI 0.00032
Core_0_ITLB_load_miss_rate 8.59888e-06
Core_0_ITLB_rfo_access 0
Core_0_ITLB_rfo_hit 0
Core_0_ITLB_rfo_miss 0
Core_0_ITLB_rfo_MPKI 0
Core_0_ITLB_rfo_miss_rate 0
Core_0_ITLB_prefetch_access 0
Core_0_ITLB_prefetch_hit 0
Core_0_ITLB_prefetch_miss 0
Core_0_ITLB_prefetch_MPKI 0
Core_0_ITLB_prefetch_miss_rate 0
Core_0_ITLB_writeback_access 0
Core_0_ITLB_writeback_hit 0
Core_0_ITLB_writeback_miss 0
Core_0_ITLB_writeback_MPKI 0
Core_0_ITLB_writeback_miss_rate 0
Core_0_ITLB_prefetch_requested 0
Core_0_ITLB_prefetch_issued 0
Core_0_ITLB_prefetch_useful 0
Core_0_ITLB_prefetch_useless 0
Core_0_ITLB_prefetch_late 0
Core_0_ITLB_prefetch_accuracy 0
Core_0_ITLB_prefetch_coverage 0

Core_0_DTLB_total_access 10221842
Core_0_DTLB_total_hit 10078527
Core_0_DTLB_total_miss 143315
Core_0_DTLB_total_MPKI 2.8663
Core_0_DTLB_total_miss_rate 0.0140205
Core_0_DTLB_demand_access 10221842
Core_0_DTLB_demand_hit 10078527
Core_0_DTLB_demand_miss 143315
Core_0_DTLB_demand_MPKI 2.8663
Core_0_DTLB_demand_miss_rate 0.0140205
Core_0_DTLB_load_access 10221842
Core_0_DTLB_load_hit 10078527
Core_0_DTLB_load_miss 143315
Core_0_DTLB_load_MPKI 2.8663
Core_0_DTLB_load_miss_rate 0.0140205
Core_0_DTLB_rfo_access 0
Core_0_DTLB_rfo_hit 0
Core_0_DTLB_rfo_miss 0
Core_0_DTLB_rfo_MPKI 0
Core_0_DTLB_rfo_miss_rate 0
Core_0_DTLB_prefetch_access 0
Core_0_DTLB_prefetch_hit 0
Core_0_DTLB_prefetch_miss 0
Core_0_DTLB_prefetch_MPKI 0
Core_0_DTLB_prefetch_miss_rate 0
Core_0_DTLB_writeback_access 0
Core_0_DTLB_writeback_hit 0
Core_0_DTLB_writeback_miss 0
Core_0_DTLB_writeback_MPKI 0
Core_0_DTLB_writeback_miss_rate 0
Core_0_DTLB_prefetch_requested 0
Core_0_DTLB_prefetch_issued 0
Core_0_DTLB_prefetch_useful 0
Core_0_DTLB_prefetch_useless 0
Core_0_DTLB_prefetch_late 0
Core_0_DTLB_prefetch_accuracy 0
Core_0_DTLB_prefetch_coverage 0

Core_0_STLB_total_access 60115
Core_0_STLB_total_hit 40398
Core_0_STLB_total_miss 19717
Core_0_STLB_total_MPKI 0.39434
Core_0_STLB_total_miss_rate 0.327988
Core_0_STLB_demand_access 60115
Core_0_STLB_demand_hit 40398
Core_0_STLB_demand_miss 19717
Core_0_STLB_demand_MPKI 0.39434
Core_0_STLB_demand_miss_rate 0.327988
Core_0_STLB_load_access 60115
Core_0_STLB_load_hit 40398
Core_0_STLB_load_miss 19717
Core_0_STLB_load_MPKI 0.39434
Core_0_STLB_load_miss_rate 0.327988
Core_0_STLB_rfo_access 0
Core_0_STLB_rfo_hit 0
Core_0_STLB_rfo_miss 0
Core_0_STLB_rfo_MPKI 0
Core_0_STLB_rfo_miss_rate 0
Core_0_STLB_prefetch_access 0
Core_0_STLB_prefetch_hit 0
Core_0_STLB_prefetch_miss 0
Core_0_STLB_prefetch_MPKI 0
Core_0_STLB_prefetch_miss_rate 0
Core_0_STLB_writeback_access 0
Core_0_STLB_writeback_hit 0
Core_0_STLB_writeback_miss 0
Core_0_STLB_writeback_MPKI 0
Core_0_STLB_writeback_miss_rate 0
Core_0_STLB_prefetch_requested 0
Core_0_STLB_prefetch_issued 0
Core_0_STLB_prefetch_useful 0
Core_0_STLB_prefetch_useless 0
Core_0_STLB_prefetch_late 0
Core_0_STLB_prefetch_accuracy 0
Core_0_STLB_prefetch_coverage 0

Core_0_L1I_total_access 2946929
Core_0_L1I_total_hit 2946664
Core_0_L1I_total_miss 265
Core_0_L1I_total_MPKI 0.0053
Core_0_L1I_total_miss_rate 8.99241e-05
Core_0_L1I_demand_access 2946929
Core_0_L1I_demand_hit 2946664
Core_0_L1I_demand_miss 265
Core_0_L1I_demand_MPKI 0.0053
Core_0_L1I_demand_miss_rate 8.99241e-05
Core_0_L1I_load_access 2946929
Core_0_L1I_load_hit 2946664
Core_0_L1I_load_miss 265
Core_0_L1I_load_MPKI 0.0053
Core_0_L1I_load_miss_rate 8.99241e-05
Core_0_L1I_rfo_access 0
Core_0_L1I_rfo_hit 0
Core_0_L1I_rfo_miss 0
Core_0_L1I_rfo_MPKI 0
Core_0_L1I_rfo_miss_rate 0
Core_0_L1I_prefetch_access 0
Core_0_L1I_prefetch_hit 0
Core_0_L1I_prefetch_miss 0
Core_0_L1I_prefetch_MPKI 0
Core_0_L1I_prefetch_miss_rate 0
Core_0_L1I_writeback_access 0
Core_0_L1I_writeback_hit 0
Core_0_L1I_writeback_miss 0
Core_0_L1I_writeback_MPKI 0
Core_0_L1I_writeback_miss_rate 0
Core_0_L1I_prefetch_requested 0
Core_0_L1I_prefetch_issued 0
Core_0_L1I_prefetch_useful 0
Core_0_L1I_prefetch_useless 0
Core_0_L1I_prefetch_late 0
Core_0_L1I_prefetch_accuracy 0
Core_0_L1I_prefetch_coverage 0

Core_0_L1D_total_access 10634646
Core_0_L1D_total_hit 9283533
Core_0_L1D_total_miss 1351113
Core_0_L1D_total_MPKI 27.0223
Core_0_L1D_total_miss_rate 0.127048
Core_0_L1D_demand_access 9003745
Core_0_L1D_demand_hit 8471443
Core_0_L1D_demand_miss 532302
Core_0_L1D_demand_MPKI 10.646
Core_0_L1D_demand_miss_rate 0.0591201
Core_0_L1D_load_access 9003745
Core_0_L1D_load_hit 8471443
Core_0_L1D_load_miss 532302
Core_0_L1D_load_MPKI 10.646
Core_0_L1D_load_miss_rate 0.0591201
Core_0_L1D_rfo_access 0
Core_0_L1D_rfo_hit 0
Core_0_L1D_rfo_miss 0
Core_0_L1D_rfo_MPKI 0
Core_0_L1D_rfo_miss_rate 0
Core_0_L1D_prefetch_access 661473
Core_0_L1D_prefetch_hit 80045
Core_0_L1D_prefetch_miss 581428
Core_0_L1D_prefetch_MPKI 11.6286
Core_0_L1D_prefetch_miss_rate 0.87899
Core_0_L1D_writeback_access 969428
Core_0_L1D_writeback_hit 732045
Core_0_L1D_writeback_miss 237383
Core_0_L1D_writeback_MPKI 4.74766
Core_0_L1D_writeback_miss_rate 0.244869
Core_0_L1D_prefetch_requested 664573
Core_0_L1D_prefetch_issued 661465
Core_0_L1D_prefetch_useful 483099
Core_0_L1D_prefetch_useless 91996
Core_0_L1D_prefetch_late 23154
Core_0_L1D_prefetch_accuracy 0.730347
Core_0_L1D_prefetch_coverage 0.475772

Core_0_L2C_total_access 3470545
Core_0_L2C_total_hit 2020170
Core_0_L2C_total_miss 1450375
Core_0_L2C_total_MPKI 29.0075
Core_0_L2C_total_miss_rate 0.41791
Core_0_L2C_demand_access 258903
Core_0_L2C_demand_hit 147704
Core_0_L2C_demand_miss 111199
Core_0_L2C_demand_MPKI 2.22398
Core_0_L2C_demand_miss_rate 0.429501
Core_0_L2C_load_access 219437
Core_0_L2C_load_hit 143253
Core_0_L2C_load_miss 76184
Core_0_L2C_load_MPKI 1.52368
Core_0_L2C_load_miss_rate 0.347179
Core_0_L2C_rfo_access 39466
Core_0_L2C_rfo_hit 4451
Core_0_L2C_rfo_miss 35015
Core_0_L2C_rfo_MPKI 0.7003
Core_0_L2C_rfo_miss_rate 0.887219
Core_0_L2C_prefetch_access 3150045
Core_0_L2C_prefetch_hit 1810995
Core_0_L2C_prefetch_miss 1339050
Core_0_L2C_prefetch_MPKI 26.781
Core_0_L2C_prefetch_miss_rate 0.425089
Core_0_L2C_writeback_access 61597
Core_0_L2C_writeback_hit 61471
Core_0_L2C_writeback_miss 126
Core_0_L2C_writeback_MPKI 0.00252
Core_0_L2C_writeback_miss_rate 0.00204555
Core_0_L2C_prefetch_requested 2701007
Core_0_L2C_prefetch_issued 2574955
Core_0_L2C_prefetch_useful 440698
Core_0_L2C_prefetch_useless 217443
Core_0_L2C_prefetch_late 5303
Core_0_L2C_prefetch_accuracy 0.171148
Core_0_L2C_prefetch_coverage 0.798515

Core_0_LLC_total_access 894893
Core_0_LLC_total_hit 285083
Core_0_LLC_total_miss 609810
Core_0_LLC_total_MPKI 12.1962
Core_0_LLC_total_miss_rate 0.681433
Core_0_LLC_demand_access 105896
Core_0_LLC_demand_hit 51855
Core_0_LLC_demand_miss 54041
Core_0_LLC_demand_MPKI 1.08082
Core_0_LLC_demand_miss_rate 0.510321
Core_0_LLC_load_access 70886
Core_0_LLC_load_hit 30498
Core_0_LLC_load_miss 40388
Core_0_LLC_load_MPKI 0.80776
Core_0_LLC_load_miss_rate 0.56976
Core_0_LLC_rfo_access 35010
Core_0_LLC_rfo_hit 21357
Core_0_LLC_rfo_miss 13653
Core_0_LLC_rfo_MPKI 0.27306
Core_0_LLC_rfo_miss_rate 0.389974
Core_0_LLC_prefetch_access 737040
Core_0_LLC_prefetch_hit 196429
Core_0_LLC_prefetch_miss 540611
Core_0_LLC_prefetch_MPKI 10.8122
Core_0_LLC_prefetch_miss_rate 0.733489
Core_0_LLC_writeback_access 51957
Core_0_LLC_writeback_hit 36799
Core_0_LLC_writeback_miss 15158
Core_0_LLC_writeback_MPKI 0.30316
Core_0_LLC_writeback_miss_rate 0.291741
Core_0_LLC_prefetch_requested 0
Core_0_LLC_prefetch_issued 0
Core_0_LLC_prefetch_useful 0
Core_0_LLC_prefetch_useless 0
Core_0_LLC_prefetch_late 0
Core_0_LLC_prefetch_accuracy 0
Core_0_LLC_prefetch_coverage 0

[DRAM Statistics]
Channel_0_RQ_row_buffer_hit 20749
Channel_0_RQ_row_buffer_miss 576673
Channel_0_WQ_row_buffer_hit 4362
Channel_0_WQ_row_buffer_miss 15727
Channel_0_WQ_full 0
Channel_0_dbus_congested 1146550
DRAM_total_RQ_row_buffer_hit 20749
DRAM_total_RQ_row_buffer_miss 576673
DRAM_total_WQ_row_buffer_hit 4362
DRAM_total_WQ_row_buffer_miss 15727
DRAM_total_WQ_full 0
DRAM_total_dbus_congested 1146550
DRAM_avg_congested_cycle 4.7108

======STLB miss causes ========
Core_0_STLB_miss_cause_breakdown
Core_0_STLB_cause_Demand_Data_miss 15138
Core_0_STLB_cause_Demand_Data_miss_rate 0.251817
Core_0_STLB_cause_Demand_Instruction_miss 12
Core_0_STLB_cause_Demand_Instruction_miss_rate 0.000199617
Core_0_STLB_cause_L1D_Prefetch_miss 4567
Core_0_STLB_cause_L1D_Prefetch_miss_rate 0.0759711
Core_0_STLB_cause_L1I_Prefetch_miss 0
Core_0_STLB_cause_L1I_Prefetch_miss_rate 0
Core_0_STLB_cause_Other_miss 0
Core_0_STLB_cause_Other_miss_rate 0
Core_0_STLB_Demand_miss 15150
Core_0_STLB_Demand_miss_rate 0.252017
Core_0_STLB_L1D_Prefetch_miss 4567
Core_0_STLB_L1D_Prefetch_miss_rate 0.0759711
Core_0_STLB_Other_miss 0
Core_0_STLB_Other_miss_rate 0
