[VMEM] WARNING: physical memory size is smaller than virtual memory size.

*** ChampSim Multicore Out-of-Order Simulator ***
Warmup Instructions: 20000000
Simulation Instructions: 50000000
Number of CPUs: 1
Page size: 4096
Core 0: /data0/tzh/champsim_traces/Ligra/ligra_Components.com-lj.ungraph.gcc_6.3.0_O3.drop_18000M.length_250M.champsimtrace.xz
 L1D Berti prefetcher
Off-chip DRAM Size: 4 GiB Channels: 1 Width: 64-bit Data Rate: 3205 MT/s
Warmup halting CPU 0 at instruction 20000002 cycle 6289517 for remainder of phase
Warmup finished CPU 0 instructions: 20000002 cycles: 6289517 cumulative IPC: 3.18 (Simulation time: 00 hr 01 min 18 sec)
Warmup complete CPU 0 instructions: 20000002 cycles: 6289517 cumulative IPC: 3.18 (Simulation time: 00 hr 01 min 18 sec)
Simulation finished CPU 0 instructions: 50000001 cycles: 26298888 cumulative IPC: 1.901 (Simulation time: 00 hr 05 min 55 sec)
Simulation complete CPU 0 instructions: 50000001 cycles: 26298888 cumulative IPC: 1.901 (Simulation time: 00 hr 05 min 55 sec)

ChampSim completed all CPUs

=== Simulation ===
CPU 0 runs /data0/tzh/champsim_traces/Ligra/ligra_Components.com-lj.ungraph.gcc_6.3.0_O3.drop_18000M.length_250M.champsimtrace.xz

Region of Interest Statistics

CPU 0 cumulative IPC: 1.901 instructions: 50000001 cycles: 26298888
CPU 0 Branch Prediction Accuracy: 99% MPKI: 1.011 Average ROB Occupancy at Mispredict: 170.7
Branch type MPKI
BRANCH_DIRECT_JUMP: 0
BRANCH_INDIRECT: 0
BRANCH_CONDITIONAL: 1.011
BRANCH_DIRECT_CALL: 0
BRANCH_INDIRECT_CALL: 0
BRANCH_RETURN: 0.00028

cpu0->cpu0_STLB TOTAL        ACCESS:      23718 HIT:      19740 MISS:       3978 MSHR_MERGE:          0
cpu0->cpu0_STLB LOAD         ACCESS:      23718 HIT:      19740 MISS:       3978 MSHR_MERGE:          0
cpu0->cpu0_STLB RFO          ACCESS:          0 HIT:          0 MISS:          0 MSHR_MERGE:          0
cpu0->cpu0_STLB PREFETCH     ACCESS:          0 HIT:          0 MISS:          0 MSHR_MERGE:          0
cpu0->cpu0_STLB WRITE        ACCESS:          0 HIT:          0 MISS:          0 MSHR_MERGE:          0
cpu0->cpu0_STLB TRANSLATION  ACCESS:          0 HIT:          0 MISS:          0 MSHR_MERGE:          0
cpu0->cpu0_STLB PREFETCH REQUESTED:          0 ISSUED:          0 USEFUL:          0 USELESS:          0 LATE:          0
cpu0->cpu0_STLB AVERAGE MISS LATENCY: 277.4 cycles
cpu0->cpu0_L2C TOTAL        ACCESS:    4358822 HIT:    2135132 MISS:    2223690 MSHR_MERGE:    1196738
cpu0->cpu0_L2C LOAD         ACCESS:     412309 HIT:     325143 MISS:      87166 MSHR_MERGE:      57422
cpu0->cpu0_L2C RFO          ACCESS:     554843 HIT:      35803 MISS:     519040 MSHR_MERGE:         40
cpu0->cpu0_L2C PREFETCH     ACCESS:    2833556 HIT:    1216688 MISS:    1616868 MSHR_MERGE:    1139276
cpu0->cpu0_L2C WRITE        ACCESS:     557248 HIT:     557199 MISS:         49 MSHR_MERGE:          0
cpu0->cpu0_L2C TRANSLATION  ACCESS:        866 HIT:        299 MISS:        567 MSHR_MERGE:          0
cpu0->cpu0_L2C PREFETCH REQUESTED:    2863730 ISSUED:    2546118 USEFUL:     348039 USELESS:      77757 LATE:      57462
cpu0->cpu0_L2C AVERAGE MISS LATENCY: 294 cycles
cpu0->cpu0_L1I TOTAL        ACCESS:    4868638 HIT:    4868638 MISS:          0 MSHR_MERGE:          0
cpu0->cpu0_L1I LOAD         ACCESS:    4868638 HIT:    4868638 MISS:          0 MSHR_MERGE:          0
cpu0->cpu0_L1I RFO          ACCESS:          0 HIT:          0 MISS:          0 MSHR_MERGE:          0
cpu0->cpu0_L1I PREFETCH     ACCESS:          0 HIT:          0 MISS:          0 MSHR_MERGE:          0
cpu0->cpu0_L1I WRITE        ACCESS:          0 HIT:          0 MISS:          0 MSHR_MERGE:          0
cpu0->cpu0_L1I TRANSLATION  ACCESS:          0 HIT:          0 MISS:          0 MSHR_MERGE:          0
cpu0->cpu0_L1I PREFETCH REQUESTED:          0 ISSUED:          0 USEFUL:          0 USELESS:          0 LATE:          0
cpu0->cpu0_L1I AVERAGE MISS LATENCY: - cycles
cpu0->cpu0_L1D TOTAL        ACCESS:   14147890 HIT:    9486007 MISS:    4661883 MSHR_MERGE:    3406404
cpu0->cpu0_L1D LOAD         ACCESS:    3857929 HIT:    3161257 MISS:     696672 MSHR_MERGE:     284360
cpu0->cpu0_L1D RFO          ACCESS:          0 HIT:          0 MISS:          0 MSHR_MERGE:          0
cpu0->cpu0_L1D PREFETCH     ACCESS:     462295 HIT:     131600 MISS:     330695 MSHR_MERGE:      43254
cpu0->cpu0_L1D WRITE        ACCESS:    9820099 HIT:    6186848 MISS:    3633251 MSHR_MERGE:    3078391
cpu0->cpu0_L1D TRANSLATION  ACCESS:       7567 HIT:       6302 MISS:       1265 MSHR_MERGE:        399
cpu0->cpu0_L1D PREFETCH REQUESTED:     713929 ISSUED:     462295 USEFUL:     277210 USELESS:      10231 LATE:      66220
cpu0->cpu0_L1D AVERAGE MISS LATENCY: 192.4 cycles
cpu0->cpu0_ITLB TOTAL        ACCESS:    4793525 HIT:    4793525 MISS:          0 MSHR_MERGE:          0
cpu0->cpu0_ITLB LOAD         ACCESS:    4793525 HIT:    4793525 MISS:          0 MSHR_MERGE:          0
cpu0->cpu0_ITLB RFO          ACCESS:          0 HIT:          0 MISS:          0 MSHR_MERGE:          0
cpu0->cpu0_ITLB PREFETCH     ACCESS:          0 HIT:          0 MISS:          0 MSHR_MERGE:          0
cpu0->cpu0_ITLB WRITE        ACCESS:          0 HIT:          0 MISS:          0 MSHR_MERGE:          0
cpu0->cpu0_ITLB TRANSLATION  ACCESS:          0 HIT:          0 MISS:          0 MSHR_MERGE:          0
cpu0->cpu0_ITLB PREFETCH REQUESTED:          0 ISSUED:          0 USEFUL:          0 USELESS:          0 LATE:          0
cpu0->cpu0_ITLB AVERAGE MISS LATENCY: - cycles
cpu0->cpu0_DTLB TOTAL        ACCESS:   12601088 HIT:   12516599 MISS:      84489 MSHR_MERGE:      60771
cpu0->cpu0_DTLB LOAD         ACCESS:   12601088 HIT:   12516599 MISS:      84489 MSHR_MERGE:      60771
cpu0->cpu0_DTLB RFO          ACCESS:          0 HIT:          0 MISS:          0 MSHR_MERGE:          0
cpu0->cpu0_DTLB PREFETCH     ACCESS:          0 HIT:          0 MISS:          0 MSHR_MERGE:          0
cpu0->cpu0_DTLB WRITE        ACCESS:          0 HIT:          0 MISS:          0 MSHR_MERGE:          0
cpu0->cpu0_DTLB TRANSLATION  ACCESS:          0 HIT:          0 MISS:          0 MSHR_MERGE:          0
cpu0->cpu0_DTLB PREFETCH REQUESTED:          0 ISSUED:          0 USEFUL:          0 USELESS:          0 LATE:          0
cpu0->cpu0_DTLB AVERAGE MISS LATENCY: 51.69 cycles
cpu0->LLC TOTAL        ACCESS:    1548805 HIT:     649163 MISS:     899642 MSHR_MERGE:          0
cpu0->LLC LOAD         ACCESS:      29744 HIT:      18299 MISS:      11445 MSHR_MERGE:          0
cpu0->LLC RFO          ACCESS:     519000 HIT:     155591 MISS:     363409 MSHR_MERGE:          0
cpu0->LLC PREFETCH     ACCESS:     477592 HIT:     225462 MISS:     252130 MSHR_MERGE:          0
cpu0->LLC WRITE        ACCESS:     521902 HIT:     249809 MISS:     272093 MSHR_MERGE:          0
cpu0->LLC TRANSLATION  ACCESS:        567 HIT:          2 MISS:        565 MSHR_MERGE:          0
cpu0->LLC PREFETCH REQUESTED:          0 ISSUED:          0 USEFUL:          0 USELESS:          0 LATE:          0
cpu0->LLC AVERAGE MISS LATENCY: 248 cycles

DRAM Statistics

Channel 0 RQ ROW_BUFFER_HIT:      48649
  ROW_BUFFER_MISS:     577865
  AVG DBUS CONGESTED CYCLE: 7.088
Channel 0 WQ ROW_BUFFER_HIT:      48294
  ROW_BUFFER_MISS:     334353
  FULL:      13000
Channel 0 REFRESHES ISSUED:       2191

[ROI Statistics]
[System Configuration]
num_cpus 1
cpu_freq 4000
fetch_width 6
decode_width 6
dispatch_width 6
execute_width 6
lq_width 2
sq_width 2
retire_width 6
scheduler_size 160
branch_mispredict_penalty 1
rob_size 352
lq_size 240
sq_size 112
ifetch_buffer_size 64
decode_buffer_size 32
dispatch_buffer_size 32
register_file_size 288
decode_latency 1
dispatch_latency 1
schedule_latency 0
execute_latency 0
page_size 4096
block_size 64
core_0_itlb_set 16
core_0_itlb_way 4
core_0_itlb_rq_size 16
core_0_itlb_wq_size 16
core_0_itlb_pq_size 0
core_0_itlb_mshr_size 8
core_0_itlb_hit_latency 1
core_0_itlb_fill_latency 1
core_0_itlb_max_tag_check 2
core_0_itlb_max_fill 2
core_0_dtlb_set 16
core_0_dtlb_way 4
core_0_dtlb_rq_size 16
core_0_dtlb_wq_size 16
core_0_dtlb_pq_size 0
core_0_dtlb_mshr_size 8
core_0_dtlb_hit_latency 1
core_0_dtlb_fill_latency 1
core_0_dtlb_max_tag_check 2
core_0_dtlb_max_fill 2
core_0_stlb_set 128
core_0_stlb_way 12
core_0_stlb_rq_size 32
core_0_stlb_wq_size 32
core_0_stlb_pq_size 0
core_0_stlb_mshr_size 16
core_0_stlb_hit_latency 4
core_0_stlb_fill_latency 4
core_0_stlb_max_tag_check 1
core_0_stlb_max_fill 1
core_0_l1i_set 64
core_0_l1i_way 8
core_0_l1i_rq_size 64
core_0_l1i_wq_size 64
core_0_l1i_pq_size 32
core_0_l1i_mshr_size 8
core_0_l1i_hit_latency 2
core_0_l1i_fill_latency 2
core_0_l1i_max_tag_check 2
core_0_l1i_max_fill 2
core_0_l1d_set 64
core_0_l1d_way 12
core_0_l1d_rq_size 64
core_0_l1d_wq_size 64
core_0_l1d_pq_size 8
core_0_l1d_mshr_size 16
core_0_l1d_hit_latency 2
core_0_l1d_fill_latency 3
core_0_l1d_max_tag_check 2
core_0_l1d_max_fill 2
core_0_l2c_set 1024
core_0_l2c_way 8
core_0_l2c_rq_size 32
core_0_l2c_wq_size 32
core_0_l2c_pq_size 16
core_0_l2c_mshr_size 32
core_0_l2c_hit_latency 5
core_0_l2c_fill_latency 5
core_0_l2c_max_tag_check 1
core_0_l2c_max_fill 1
llc_set 2048
llc_way 16
llc_rq_size 32
llc_wq_size 32
llc_pq_size 32
llc_mshr_size 64
llc_hit_latency 10
llc_fill_latency 10
llc_max_tag_check 1
llc_max_fill 1
dram_channels 1
dram_ranks 1
dram_bankgroups 8
dram_banks 4
dram_rows 16384
dram_columns 1024
dram_channel_width 8
dram_rq_size 64
dram_wq_size 64
dram_size 4294967296
core_0_itlb_prefetcher no
core_0_dtlb_prefetcher no
core_0_stlb_prefetcher no
core_0_l1i_prefetcher next_line
core_0_l1d_prefetcher berti
core_0_l2c_prefetcher pythia
llc_prefetcher no
llc_replacement drrip

Core_0_instructions 50000001
Core_0_cycles 26298888
Core_0_IPC 1.90122
Core_0_branch_prediction_accuracy 99.0039
Core_0_branch_MPKI 1.01112
Core_0_average_ROB_occupancy_at_mispredict 170.666

Core_0_ITLB_total_access 4793525
Core_0_ITLB_total_hit 4793525
Core_0_ITLB_total_miss 0
Core_0_ITLB_total_MPKI 0
Core_0_ITLB_total_miss_rate 0
Core_0_ITLB_demand_access 4793525
Core_0_ITLB_demand_hit 4793525
Core_0_ITLB_demand_miss 0
Core_0_ITLB_demand_MPKI 0
Core_0_ITLB_demand_miss_rate 0
Core_0_ITLB_load_access 4793525
Core_0_ITLB_load_hit 4793525
Core_0_ITLB_load_miss 0
Core_0_ITLB_load_MPKI 0
Core_0_ITLB_load_miss_rate 0
Core_0_ITLB_rfo_access 0
Core_0_ITLB_rfo_hit 0
Core_0_ITLB_rfo_miss 0
Core_0_ITLB_rfo_MPKI 0
Core_0_ITLB_rfo_miss_rate 0
Core_0_ITLB_prefetch_access 0
Core_0_ITLB_prefetch_hit 0
Core_0_ITLB_prefetch_miss 0
Core_0_ITLB_prefetch_MPKI 0
Core_0_ITLB_prefetch_miss_rate 0
Core_0_ITLB_writeback_access 0
Core_0_ITLB_writeback_hit 0
Core_0_ITLB_writeback_miss 0
Core_0_ITLB_writeback_MPKI 0
Core_0_ITLB_writeback_miss_rate 0
Core_0_ITLB_prefetch_requested 0
Core_0_ITLB_prefetch_issued 0
Core_0_ITLB_prefetch_useful 0
Core_0_ITLB_prefetch_useless 0
Core_0_ITLB_prefetch_late 0
Core_0_ITLB_prefetch_accuracy 0
Core_0_ITLB_prefetch_coverage 0

Core_0_DTLB_total_access 12601088
Core_0_DTLB_total_hit 12516599
Core_0_DTLB_total_miss 84489
Core_0_DTLB_total_MPKI 1.68978
Core_0_DTLB_total_miss_rate 0.0067049
Core_0_DTLB_demand_access 12601088
Core_0_DTLB_demand_hit 12516599
Core_0_DTLB_demand_miss 84489
Core_0_DTLB_demand_MPKI 1.68978
Core_0_DTLB_demand_miss_rate 0.0067049
Core_0_DTLB_load_access 12601088
Core_0_DTLB_load_hit 12516599
Core_0_DTLB_load_miss 84489
Core_0_DTLB_load_MPKI 1.68978
Core_0_DTLB_load_miss_rate 0.0067049
Core_0_DTLB_rfo_access 0
Core_0_DTLB_rfo_hit 0
Core_0_DTLB_rfo_miss 0
Core_0_DTLB_rfo_MPKI 0
Core_0_DTLB_rfo_miss_rate 0
Core_0_DTLB_prefetch_access 0
Core_0_DTLB_prefetch_hit 0
Core_0_DTLB_prefetch_miss 0
Core_0_DTLB_prefetch_MPKI 0
Core_0_DTLB_prefetch_miss_rate 0
Core_0_DTLB_writeback_access 0
Core_0_DTLB_writeback_hit 0
Core_0_DTLB_writeback_miss 0
Core_0_DTLB_writeback_MPKI 0
Core_0_DTLB_writeback_miss_rate 0
Core_0_DTLB_prefetch_requested 0
Core_0_DTLB_prefetch_issued 0
Core_0_DTLB_prefetch_useful 0
Core_0_DTLB_prefetch_useless 0
Core_0_DTLB_prefetch_late 0
Core_0_DTLB_prefetch_accuracy 0
Core_0_DTLB_prefetch_coverage 0

Core_0_STLB_total_access 23718
Core_0_STLB_total_hit 19740
Core_0_STLB_total_miss 3978
Core_0_STLB_total_MPKI 0.07956
Core_0_STLB_total_miss_rate 0.167721
Core_0_STLB_demand_access 23718
Core_0_STLB_demand_hit 19740
Core_0_STLB_demand_miss 3978
Core_0_STLB_demand_MPKI 0.07956
Core_0_STLB_demand_miss_rate 0.167721
Core_0_STLB_load_access 23718
Core_0_STLB_load_hit 19740
Core_0_STLB_load_miss 3978
Core_0_STLB_load_MPKI 0.07956
Core_0_STLB_load_miss_rate 0.167721
Core_0_STLB_rfo_access 0
Core_0_STLB_rfo_hit 0
Core_0_STLB_rfo_miss 0
Core_0_STLB_rfo_MPKI 0
Core_0_STLB_rfo_miss_rate 0
Core_0_STLB_prefetch_access 0
Core_0_STLB_prefetch_hit 0
Core_0_STLB_prefetch_miss 0
Core_0_STLB_prefetch_MPKI 0
Core_0_STLB_prefetch_miss_rate 0
Core_0_STLB_writeback_access 0
Core_0_STLB_writeback_hit 0
Core_0_STLB_writeback_miss 0
Core_0_STLB_writeback_MPKI 0
Core_0_STLB_writeback_miss_rate 0
Core_0_STLB_prefetch_requested 0
Core_0_STLB_prefetch_issued 0
Core_0_STLB_prefetch_useful 0
Core_0_STLB_prefetch_useless 0
Core_0_STLB_prefetch_late 0
Core_0_STLB_prefetch_accuracy 0
Core_0_STLB_prefetch_coverage 0

Core_0_L1I_total_access 4868638
Core_0_L1I_total_hit 4868638
Core_0_L1I_total_miss 0
Core_0_L1I_total_MPKI 0
Core_0_L1I_total_miss_rate 0
Core_0_L1I_demand_access 4868638
Core_0_L1I_demand_hit 4868638
Core_0_L1I_demand_miss 0
Core_0_L1I_demand_MPKI 0
Core_0_L1I_demand_miss_rate 0
Core_0_L1I_load_access 4868638
Core_0_L1I_load_hit 4868638
Core_0_L1I_load_miss 0
Core_0_L1I_load_MPKI 0
Core_0_L1I_load_miss_rate 0
Core_0_L1I_rfo_access 0
Core_0_L1I_rfo_hit 0
Core_0_L1I_rfo_miss 0
Core_0_L1I_rfo_MPKI 0
Core_0_L1I_rfo_miss_rate 0
Core_0_L1I_prefetch_access 0
Core_0_L1I_prefetch_hit 0
Core_0_L1I_prefetch_miss 0
Core_0_L1I_prefetch_MPKI 0
Core_0_L1I_prefetch_miss_rate 0
Core_0_L1I_writeback_access 0
Core_0_L1I_writeback_hit 0
Core_0_L1I_writeback_miss 0
Core_0_L1I_writeback_MPKI 0
Core_0_L1I_writeback_miss_rate 0
Core_0_L1I_prefetch_requested 0
Core_0_L1I_prefetch_issued 0
Core_0_L1I_prefetch_useful 0
Core_0_L1I_prefetch_useless 0
Core_0_L1I_prefetch_late 0
Core_0_L1I_prefetch_accuracy 0
Core_0_L1I_prefetch_coverage 0

Core_0_L1D_total_access 14140323
Core_0_L1D_total_hit 9479705
Core_0_L1D_total_miss 4660618
Core_0_L1D_total_MPKI 93.2124
Core_0_L1D_total_miss_rate 0.329598
Core_0_L1D_demand_access 3857929
Core_0_L1D_demand_hit 3161257
Core_0_L1D_demand_miss 696672
Core_0_L1D_demand_MPKI 13.9334
Core_0_L1D_demand_miss_rate 0.180582
Core_0_L1D_load_access 3857929
Core_0_L1D_load_hit 3161257
Core_0_L1D_load_miss 696672
Core_0_L1D_load_MPKI 13.9334
Core_0_L1D_load_miss_rate 0.180582
Core_0_L1D_rfo_access 0
Core_0_L1D_rfo_hit 0
Core_0_L1D_rfo_miss 0
Core_0_L1D_rfo_MPKI 0
Core_0_L1D_rfo_miss_rate 0
Core_0_L1D_prefetch_access 462295
Core_0_L1D_prefetch_hit 131600
Core_0_L1D_prefetch_miss 330695
Core_0_L1D_prefetch_MPKI 6.6139
Core_0_L1D_prefetch_miss_rate 0.715333
Core_0_L1D_writeback_access 9820099
Core_0_L1D_writeback_hit 6186848
Core_0_L1D_writeback_miss 3633251
Core_0_L1D_writeback_MPKI 72.665
Core_0_L1D_writeback_miss_rate 0.369981
Core_0_L1D_prefetch_requested 713929
Core_0_L1D_prefetch_issued 462295
Core_0_L1D_prefetch_useful 277210
Core_0_L1D_prefetch_useless 10231
Core_0_L1D_prefetch_late 66220
Core_0_L1D_prefetch_accuracy 0.599639
Core_0_L1D_prefetch_coverage 0.284644

Core_0_L2C_total_access 4357956
Core_0_L2C_total_hit 2134833
Core_0_L2C_total_miss 2223123
Core_0_L2C_total_MPKI 44.4625
Core_0_L2C_total_miss_rate 0.51013
Core_0_L2C_demand_access 967152
Core_0_L2C_demand_hit 360946
Core_0_L2C_demand_miss 606206
Core_0_L2C_demand_MPKI 12.1241
Core_0_L2C_demand_miss_rate 0.626795
Core_0_L2C_load_access 412309
Core_0_L2C_load_hit 325143
Core_0_L2C_load_miss 87166
Core_0_L2C_load_MPKI 1.74332
Core_0_L2C_load_miss_rate 0.211409
Core_0_L2C_rfo_access 554843
Core_0_L2C_rfo_hit 35803
Core_0_L2C_rfo_miss 519040
Core_0_L2C_rfo_MPKI 10.3808
Core_0_L2C_rfo_miss_rate 0.935472
Core_0_L2C_prefetch_access 2833556
Core_0_L2C_prefetch_hit 1216688
Core_0_L2C_prefetch_miss 1616868
Core_0_L2C_prefetch_MPKI 32.3374
Core_0_L2C_prefetch_miss_rate 0.570614
Core_0_L2C_writeback_access 557248
Core_0_L2C_writeback_hit 557199
Core_0_L2C_writeback_miss 49
Core_0_L2C_writeback_MPKI 0.00098
Core_0_L2C_writeback_miss_rate 8.79321e-05
Core_0_L2C_prefetch_requested 2863730
Core_0_L2C_prefetch_issued 2546118
Core_0_L2C_prefetch_useful 348039
Core_0_L2C_prefetch_useless 77757
Core_0_L2C_prefetch_late 57462
Core_0_L2C_prefetch_accuracy 0.136694
Core_0_L2C_prefetch_coverage 0.364727

Core_0_LLC_total_access 1548238
Core_0_LLC_total_hit 649161
Core_0_LLC_total_miss 899077
Core_0_LLC_total_MPKI 17.9815
Core_0_LLC_total_miss_rate 0.58071
Core_0_LLC_demand_access 548744
Core_0_LLC_demand_hit 173890
Core_0_LLC_demand_miss 374854
Core_0_LLC_demand_MPKI 7.49708
Core_0_LLC_demand_miss_rate 0.683113
Core_0_LLC_load_access 29744
Core_0_LLC_load_hit 18299
Core_0_LLC_load_miss 11445
Core_0_LLC_load_MPKI 0.2289
Core_0_LLC_load_miss_rate 0.384783
Core_0_LLC_rfo_access 519000
Core_0_LLC_rfo_hit 155591
Core_0_LLC_rfo_miss 363409
Core_0_LLC_rfo_MPKI 7.26818
Core_0_LLC_rfo_miss_rate 0.70021
Core_0_LLC_prefetch_access 477592
Core_0_LLC_prefetch_hit 225462
Core_0_LLC_prefetch_miss 252130
Core_0_LLC_prefetch_MPKI 5.0426
Core_0_LLC_prefetch_miss_rate 0.527919
Core_0_LLC_writeback_access 521902
Core_0_LLC_writeback_hit 249809
Core_0_LLC_writeback_miss 272093
Core_0_LLC_writeback_MPKI 5.44186
Core_0_LLC_writeback_miss_rate 0.521349
Core_0_LLC_prefetch_requested 0
Core_0_LLC_prefetch_issued 0
Core_0_LLC_prefetch_useful 0
Core_0_LLC_prefetch_useless 0
Core_0_LLC_prefetch_late 0
Core_0_LLC_prefetch_accuracy 0
Core_0_LLC_prefetch_coverage 0

[DRAM Statistics]
Channel_0_RQ_row_buffer_hit 48649
Channel_0_RQ_row_buffer_miss 577865
Channel_0_WQ_row_buffer_hit 48294
Channel_0_WQ_row_buffer_miss 334353
Channel_0_WQ_full 13000
Channel_0_dbus_congested 3329908
DRAM_total_RQ_row_buffer_hit 48649
DRAM_total_RQ_row_buffer_miss 577865
DRAM_total_WQ_row_buffer_hit 48294
DRAM_total_WQ_row_buffer_miss 334353
DRAM_total_WQ_full 13000
DRAM_total_dbus_congested 3329908
DRAM_avg_congested_cycle 7.08791

======STLB miss causes ========
Core_0_STLB_miss_cause_breakdown
Core_0_STLB_cause_Demand_Data_miss 3906
Core_0_STLB_cause_Demand_Data_miss_rate 0.164685
Core_0_STLB_cause_Demand_Instruction_miss 0
Core_0_STLB_cause_Demand_Instruction_miss_rate 0
Core_0_STLB_cause_L1D_Prefetch_miss 72
Core_0_STLB_cause_L1D_Prefetch_miss_rate 0.00303567
Core_0_STLB_cause_L1I_Prefetch_miss 0
Core_0_STLB_cause_L1I_Prefetch_miss_rate 0
Core_0_STLB_cause_Other_miss 0
Core_0_STLB_cause_Other_miss_rate 0
Core_0_STLB_Demand_miss 3906
Core_0_STLB_Demand_miss_rate 0.164685
Core_0_STLB_L1D_Prefetch_miss 72
Core_0_STLB_L1D_Prefetch_miss_rate 0.00303567
Core_0_STLB_Other_miss 0
Core_0_STLB_Other_miss_rate 0
