[VMEM] WARNING: physical memory size is smaller than virtual memory size.

*** ChampSim Multicore Out-of-Order Simulator ***
Warmup Instructions: 20000000
Simulation Instructions: 50000000
Number of CPUs: 1
Page size: 4096
Core 0: /data0/tzh/champsim_traces/Ligra/ligra_BFS.com-lj.ungraph.gcc_6.3.0_O3.drop_11500M.length_250M.champsimtrace.xz
 L1D Berti prefetcher
Off-chip DRAM Size: 4 GiB Channels: 1 Width: 64-bit Data Rate: 3205 MT/s
Warmup halting CPU 0 at instruction 20000002 cycle 4467089 for remainder of phase
Warmup finished CPU 0 instructions: 20000002 cycles: 4467089 cumulative IPC: 4.477 (Simulation time: 00 hr 00 min 40 sec)
Warmup complete CPU 0 instructions: 20000002 cycles: 4467089 cumulative IPC: 4.477 (Simulation time: 00 hr 00 min 40 sec)
Simulation finished CPU 0 instructions: 50000000 cycles: 28104840 cumulative IPC: 1.779 (Simulation time: 00 hr 03 min 30 sec)
Simulation complete CPU 0 instructions: 50000000 cycles: 28104840 cumulative IPC: 1.779 (Simulation time: 00 hr 03 min 30 sec)

ChampSim completed all CPUs

=== Simulation ===
CPU 0 runs /data0/tzh/champsim_traces/Ligra/ligra_BFS.com-lj.ungraph.gcc_6.3.0_O3.drop_11500M.length_250M.champsimtrace.xz

Region of Interest Statistics

CPU 0 cumulative IPC: 1.779 instructions: 50000000 cycles: 28104840
CPU 0 Branch Prediction Accuracy: 95.31% MPKI: 14.21 Average ROB Occupancy at Mispredict: 38.8
Branch type MPKI
BRANCH_DIRECT_JUMP: 0
BRANCH_INDIRECT: 0
BRANCH_CONDITIONAL: 14.21
BRANCH_DIRECT_CALL: 0
BRANCH_INDIRECT_CALL: 0
BRANCH_RETURN: 0

cpu0->cpu0_STLB TOTAL        ACCESS:       1014 HIT:          0 MISS:       1014 MSHR_MERGE:          0
cpu0->cpu0_STLB LOAD         ACCESS:       1014 HIT:          0 MISS:       1014 MSHR_MERGE:          0
cpu0->cpu0_STLB RFO          ACCESS:          0 HIT:          0 MISS:          0 MSHR_MERGE:          0
cpu0->cpu0_STLB PREFETCH     ACCESS:          0 HIT:          0 MISS:          0 MSHR_MERGE:          0
cpu0->cpu0_STLB WRITE        ACCESS:          0 HIT:          0 MISS:          0 MSHR_MERGE:          0
cpu0->cpu0_STLB TRANSLATION  ACCESS:          0 HIT:          0 MISS:          0 MSHR_MERGE:          0
cpu0->cpu0_STLB PREFETCH REQUESTED:          0 ISSUED:          0 USEFUL:          0 USELESS:          0 LATE:          0
cpu0->cpu0_STLB AVERAGE MISS LATENCY: 233.6 cycles
cpu0->cpu0_L2C TOTAL        ACCESS:     343670 HIT:     277855 MISS:      65815 MSHR_MERGE:        805
cpu0->cpu0_L2C LOAD         ACCESS:        807 HIT:          0 MISS:        807 MSHR_MERGE:          0
cpu0->cpu0_L2C RFO          ACCESS:      13270 HIT:          0 MISS:      13270 MSHR_MERGE:          0
cpu0->cpu0_L2C PREFETCH     ACCESS:     316172 HIT:     264563 MISS:      51609 MSHR_MERGE:        805
cpu0->cpu0_L2C WRITE        ACCESS:      13292 HIT:      13292 MISS:          0 MSHR_MERGE:          0
cpu0->cpu0_L2C TRANSLATION  ACCESS:        129 HIT:          0 MISS:        129 MSHR_MERGE:          0
cpu0->cpu0_L2C PREFETCH REQUESTED:     265368 ISSUED:     265368 USEFUL:      49994 USELESS:         57 LATE:          0
cpu0->cpu0_L2C AVERAGE MISS LATENCY: 175.6 cycles
cpu0->cpu0_L1D TOTAL        ACCESS:    7904986 HIT:    7824760 MISS:      80226 MSHR_MERGE:      15216
cpu0->cpu0_L1D LOAD         ACCESS:    5304268 HIT:    5302124 MISS:       2144 MSHR_MERGE:       1337
cpu0->cpu0_L1D RFO          ACCESS:          0 HIT:          0 MISS:          0 MSHR_MERGE:          0
cpu0->cpu0_L1D PREFETCH     ACCESS:      50848 HIT:         44 MISS:      50804 MSHR_MERGE:          0
cpu0->cpu0_L1D WRITE        ACCESS:    2547840 HIT:    2520691 MISS:      27149 MSHR_MERGE:      13879
cpu0->cpu0_L1D TRANSLATION  ACCESS:       2030 HIT:       1901 MISS:        129 MSHR_MERGE:          0
cpu0->cpu0_L1D PREFETCH REQUESTED:      50848 ISSUED:      50848 USEFUL:      50804 USELESS:          0 LATE:          0
cpu0->cpu0_L1D AVERAGE MISS LATENCY: 184.6 cycles
cpu0->cpu0_DTLB TOTAL        ACCESS:    7690728 HIT:    7688125 MISS:       2603 MSHR_MERGE:       1589
cpu0->cpu0_DTLB LOAD         ACCESS:    7690728 HIT:    7688125 MISS:       2603 MSHR_MERGE:       1589
cpu0->cpu0_DTLB RFO          ACCESS:          0 HIT:          0 MISS:          0 MSHR_MERGE:          0
cpu0->cpu0_DTLB PREFETCH     ACCESS:          0 HIT:          0 MISS:          0 MSHR_MERGE:          0
cpu0->cpu0_DTLB WRITE        ACCESS:          0 HIT:          0 MISS:          0 MSHR_MERGE:          0
cpu0->cpu0_DTLB TRANSLATION  ACCESS:          0 HIT:          0 MISS:          0 MSHR_MERGE:          0
cpu0->cpu0_DTLB PREFETCH REQUESTED:          0 ISSUED:          0 USEFUL:          0 USELESS:          0 LATE:          0
cpu0->cpu0_DTLB AVERAGE MISS LATENCY: 239.6 cycles
cpu0->LLC TOTAL        ACCESS:      78341 HIT:       6026 MISS:      72315 MSHR_MERGE:          0
cpu0->LLC LOAD         ACCESS:        807 HIT:          0 MISS:        807 MSHR_MERGE:          0
cpu0->LLC RFO          ACCESS:      13270 HIT:          0 MISS:      13270 MSHR_MERGE:          0
cpu0->LLC PREFETCH     ACCESS:      50804 HIT:          0 MISS:      50804 MSHR_MERGE:          0
cpu0->LLC WRITE        ACCESS:      13331 HIT:       6026 MISS:       7305 MSHR_MERGE:          0
cpu0->LLC TRANSLATION  ACCESS:        129 HIT:          0 MISS:        129 MSHR_MERGE:          0
cpu0->LLC PREFETCH REQUESTED:          0 ISSUED:          0 USEFUL:          0 USELESS:          0 LATE:          0
cpu0->LLC AVERAGE MISS LATENCY: 108.5 cycles

DRAM Statistics

Channel 0 RQ ROW_BUFFER_HIT:          4
  ROW_BUFFER_MISS:      65006
  AVG DBUS CONGESTED CYCLE: 11.77
Channel 0 WQ ROW_BUFFER_HIT:        387
  ROW_BUFFER_MISS:       2637
  FULL:          0
Channel 0 REFRESHES ISSUED:       2342

[ROI Statistics]
[System Configuration]
num_cpus 1
cpu_freq 4000
fetch_width 6
decode_width 6
dispatch_width 6
execute_width 6
lq_width 2
sq_width 2
retire_width 6
scheduler_size 160
branch_mispredict_penalty 1
rob_size 352
lq_size 240
sq_size 112
ifetch_buffer_size 64
decode_buffer_size 32
dispatch_buffer_size 32
register_file_size 288
decode_latency 1
dispatch_latency 1
schedule_latency 0
execute_latency 0
page_size 4096
block_size 64
core_0_itlb_set 16
core_0_itlb_way 4
core_0_itlb_rq_size 16
core_0_itlb_wq_size 16
core_0_itlb_pq_size 0
core_0_itlb_mshr_size 8
core_0_itlb_hit_latency 1
core_0_itlb_fill_latency 1
core_0_itlb_max_tag_check 2
core_0_itlb_max_fill 2
core_0_dtlb_set 16
core_0_dtlb_way 4
core_0_dtlb_rq_size 16
core_0_dtlb_wq_size 16
core_0_dtlb_pq_size 0
core_0_dtlb_mshr_size 8
core_0_dtlb_hit_latency 1
core_0_dtlb_fill_latency 1
core_0_dtlb_max_tag_check 2
core_0_dtlb_max_fill 2
core_0_stlb_set 128
core_0_stlb_way 12
core_0_stlb_rq_size 32
core_0_stlb_wq_size 32
core_0_stlb_pq_size 0
core_0_stlb_mshr_size 16
core_0_stlb_hit_latency 4
core_0_stlb_fill_latency 4
core_0_stlb_max_tag_check 1
core_0_stlb_max_fill 1
core_0_l1i_set 64
core_0_l1i_way 8
core_0_l1i_rq_size 64
core_0_l1i_wq_size 64
core_0_l1i_pq_size 32
core_0_l1i_mshr_size 8
core_0_l1i_hit_latency 2
core_0_l1i_fill_latency 2
core_0_l1i_max_tag_check 2
core_0_l1i_max_fill 2
core_0_l1d_set 64
core_0_l1d_way 12
core_0_l1d_rq_size 64
core_0_l1d_wq_size 64
core_0_l1d_pq_size 8
core_0_l1d_mshr_size 16
core_0_l1d_hit_latency 2
core_0_l1d_fill_latency 3
core_0_l1d_max_tag_check 2
core_0_l1d_max_fill 2
core_0_l2c_set 1024
core_0_l2c_way 8
core_0_l2c_rq_size 32
core_0_l2c_wq_size 32
core_0_l2c_pq_size 16
core_0_l2c_mshr_size 32
core_0_l2c_hit_latency 5
core_0_l2c_fill_latency 5
core_0_l2c_max_tag_check 1
core_0_l2c_max_fill 1
llc_set 2048
llc_way 16
llc_rq_size 32
llc_wq_size 32
llc_pq_size 32
llc_mshr_size 64
llc_hit_latency 10
llc_fill_latency 10
llc_max_tag_check 1
llc_max_fill 1
dram_channels 1
dram_ranks 1
dram_bankgroups 8
dram_banks 4
dram_rows 16384
dram_columns 1024
dram_channel_width 8
dram_rq_size 64
dram_wq_size 64
dram_size 4294967296
core_0_itlb_prefetcher no
core_0_dtlb_prefetcher no
core_0_stlb_prefetcher no
core_0_l1i_prefetcher next_line
core_0_l1d_prefetcher berti
core_0_l2c_prefetcher pythia
llc_prefetcher no
llc_replacement drrip

Core_0_instructions 50000000
Core_0_cycles 28104840
Core_0_IPC 1.77905
Core_0_branch_prediction_accuracy 95.307
Core_0_branch_MPKI 14.2085
Core_0_average_ROB_occupancy_at_mispredict 38.799

Core_0_ITLB_total_access 0
Core_0_ITLB_total_hit 0
Core_0_ITLB_total_miss 0
Core_0_ITLB_total_MPKI 0
Core_0_ITLB_total_miss_rate 0
Core_0_ITLB_demand_access 0
Core_0_ITLB_demand_hit 0
Core_0_ITLB_demand_miss 0
Core_0_ITLB_demand_MPKI 0
Core_0_ITLB_demand_miss_rate 0
Core_0_ITLB_load_access 0
Core_0_ITLB_load_hit 0
Core_0_ITLB_load_miss 0
Core_0_ITLB_load_MPKI 0
Core_0_ITLB_load_miss_rate 0
Core_0_ITLB_rfo_access 0
Core_0_ITLB_rfo_hit 0
Core_0_ITLB_rfo_miss 0
Core_0_ITLB_rfo_MPKI 0
Core_0_ITLB_rfo_miss_rate 0
Core_0_ITLB_prefetch_access 0
Core_0_ITLB_prefetch_hit 0
Core_0_ITLB_prefetch_miss 0
Core_0_ITLB_prefetch_MPKI 0
Core_0_ITLB_prefetch_miss_rate 0
Core_0_ITLB_writeback_access 0
Core_0_ITLB_writeback_hit 0
Core_0_ITLB_writeback_miss 0
Core_0_ITLB_writeback_MPKI 0
Core_0_ITLB_writeback_miss_rate 0
Core_0_ITLB_prefetch_requested 0
Core_0_ITLB_prefetch_issued 0
Core_0_ITLB_prefetch_useful 0
Core_0_ITLB_prefetch_useless 0
Core_0_ITLB_prefetch_late 0
Core_0_ITLB_prefetch_accuracy 0
Core_0_ITLB_prefetch_coverage 0

Core_0_DTLB_total_access 7690728
Core_0_DTLB_total_hit 7688125
Core_0_DTLB_total_miss 2603
Core_0_DTLB_total_MPKI 0.05206
Core_0_DTLB_total_miss_rate 0.00033846
Core_0_DTLB_demand_access 7690728
Core_0_DTLB_demand_hit 7688125
Core_0_DTLB_demand_miss 2603
Core_0_DTLB_demand_MPKI 0.05206
Core_0_DTLB_demand_miss_rate 0.00033846
Core_0_DTLB_load_access 7690728
Core_0_DTLB_load_hit 7688125
Core_0_DTLB_load_miss 2603
Core_0_DTLB_load_MPKI 0.05206
Core_0_DTLB_load_miss_rate 0.00033846
Core_0_DTLB_rfo_access 0
Core_0_DTLB_rfo_hit 0
Core_0_DTLB_rfo_miss 0
Core_0_DTLB_rfo_MPKI 0
Core_0_DTLB_rfo_miss_rate 0
Core_0_DTLB_prefetch_access 0
Core_0_DTLB_prefetch_hit 0
Core_0_DTLB_prefetch_miss 0
Core_0_DTLB_prefetch_MPKI 0
Core_0_DTLB_prefetch_miss_rate 0
Core_0_DTLB_writeback_access 0
Core_0_DTLB_writeback_hit 0
Core_0_DTLB_writeback_miss 0
Core_0_DTLB_writeback_MPKI 0
Core_0_DTLB_writeback_miss_rate 0
Core_0_DTLB_prefetch_requested 0
Core_0_DTLB_prefetch_issued 0
Core_0_DTLB_prefetch_useful 0
Core_0_DTLB_prefetch_useless 0
Core_0_DTLB_prefetch_late 0
Core_0_DTLB_prefetch_accuracy 0
Core_0_DTLB_prefetch_coverage 0

Core_0_STLB_total_access 1014
Core_0_STLB_total_hit 0
Core_0_STLB_total_miss 1014
Core_0_STLB_total_MPKI 0.02028
Core_0_STLB_total_miss_rate 1
Core_0_STLB_demand_access 1014
Core_0_STLB_demand_hit 0
Core_0_STLB_demand_miss 1014
Core_0_STLB_demand_MPKI 0.02028
Core_0_STLB_demand_miss_rate 1
Core_0_STLB_load_access 1014
Core_0_STLB_load_hit 0
Core_0_STLB_load_miss 1014
Core_0_STLB_load_MPKI 0.02028
Core_0_STLB_load_miss_rate 1
Core_0_STLB_rfo_access 0
Core_0_STLB_rfo_hit 0
Core_0_STLB_rfo_miss 0
Core_0_STLB_rfo_MPKI 0
Core_0_STLB_rfo_miss_rate 0
Core_0_STLB_prefetch_access 0
Core_0_STLB_prefetch_hit 0
Core_0_STLB_prefetch_miss 0
Core_0_STLB_prefetch_MPKI 0
Core_0_STLB_prefetch_miss_rate 0
Core_0_STLB_writeback_access 0
Core_0_STLB_writeback_hit 0
Core_0_STLB_writeback_miss 0
Core_0_STLB_writeback_MPKI 0
Core_0_STLB_writeback_miss_rate 0
Core_0_STLB_prefetch_requested 0
Core_0_STLB_prefetch_issued 0
Core_0_STLB_prefetch_useful 0
Core_0_STLB_prefetch_useless 0
Core_0_STLB_prefetch_late 0
Core_0_STLB_prefetch_accuracy 0
Core_0_STLB_prefetch_coverage 0

Core_0_L1I_total_access 0
Core_0_L1I_total_hit 0
Core_0_L1I_total_miss 0
Core_0_L1I_total_MPKI 0
Core_0_L1I_total_miss_rate 0
Core_0_L1I_demand_access 0
Core_0_L1I_demand_hit 0
Core_0_L1I_demand_miss 0
Core_0_L1I_demand_MPKI 0
Core_0_L1I_demand_miss_rate 0
Core_0_L1I_load_access 0
Core_0_L1I_load_hit 0
Core_0_L1I_load_miss 0
Core_0_L1I_load_MPKI 0
Core_0_L1I_load_miss_rate 0
Core_0_L1I_rfo_access 0
Core_0_L1I_rfo_hit 0
Core_0_L1I_rfo_miss 0
Core_0_L1I_rfo_MPKI 0
Core_0_L1I_rfo_miss_rate 0
Core_0_L1I_prefetch_access 0
Core_0_L1I_prefetch_hit 0
Core_0_L1I_prefetch_miss 0
Core_0_L1I_prefetch_MPKI 0
Core_0_L1I_prefetch_miss_rate 0
Core_0_L1I_writeback_access 0
Core_0_L1I_writeback_hit 0
Core_0_L1I_writeback_miss 0
Core_0_L1I_writeback_MPKI 0
Core_0_L1I_writeback_miss_rate 0
Core_0_L1I_prefetch_requested 0
Core_0_L1I_prefetch_issued 0
Core_0_L1I_prefetch_useful 0
Core_0_L1I_prefetch_useless 0
Core_0_L1I_prefetch_late 0
Core_0_L1I_prefetch_accuracy 0
Core_0_L1I_prefetch_coverage 0

Core_0_L1D_total_access 7902956
Core_0_L1D_total_hit 7822859
Core_0_L1D_total_miss 80097
Core_0_L1D_total_MPKI 1.60194
Core_0_L1D_total_miss_rate 0.0101351
Core_0_L1D_demand_access 5304268
Core_0_L1D_demand_hit 5302124
Core_0_L1D_demand_miss 2144
Core_0_L1D_demand_MPKI 0.04288
Core_0_L1D_demand_miss_rate 0.000404203
Core_0_L1D_load_access 5304268
Core_0_L1D_load_hit 5302124
Core_0_L1D_load_miss 2144
Core_0_L1D_load_MPKI 0.04288
Core_0_L1D_load_miss_rate 0.000404203
Core_0_L1D_rfo_access 0
Core_0_L1D_rfo_hit 0
Core_0_L1D_rfo_miss 0
Core_0_L1D_rfo_MPKI 0
Core_0_L1D_rfo_miss_rate 0
Core_0_L1D_prefetch_access 50848
Core_0_L1D_prefetch_hit 44
Core_0_L1D_prefetch_miss 50804
Core_0_L1D_prefetch_MPKI 1.01608
Core_0_L1D_prefetch_miss_rate 0.999135
Core_0_L1D_writeback_access 2547840
Core_0_L1D_writeback_hit 2520691
Core_0_L1D_writeback_miss 27149
Core_0_L1D_writeback_MPKI 0.54298
Core_0_L1D_writeback_miss_rate 0.0106557
Core_0_L1D_prefetch_requested 50848
Core_0_L1D_prefetch_issued 50848
Core_0_L1D_prefetch_useful 50804
Core_0_L1D_prefetch_useless 0
Core_0_L1D_prefetch_late 0
Core_0_L1D_prefetch_accuracy 0.999135
Core_0_L1D_prefetch_coverage 0.959507

Core_0_L2C_total_access 343541
Core_0_L2C_total_hit 277855
Core_0_L2C_total_miss 65686
Core_0_L2C_total_MPKI 1.31372
Core_0_L2C_total_miss_rate 0.191203
Core_0_L2C_demand_access 14077
Core_0_L2C_demand_hit 0
Core_0_L2C_demand_miss 14077
Core_0_L2C_demand_MPKI 0.28154
Core_0_L2C_demand_miss_rate 1
Core_0_L2C_load_access 807
Core_0_L2C_load_hit 0
Core_0_L2C_load_miss 807
Core_0_L2C_load_MPKI 0.01614
Core_0_L2C_load_miss_rate 1
Core_0_L2C_rfo_access 13270
Core_0_L2C_rfo_hit 0
Core_0_L2C_rfo_miss 13270
Core_0_L2C_rfo_MPKI 0.2654
Core_0_L2C_rfo_miss_rate 1
Core_0_L2C_prefetch_access 316172
Core_0_L2C_prefetch_hit 264563
Core_0_L2C_prefetch_miss 51609
Core_0_L2C_prefetch_MPKI 1.03218
Core_0_L2C_prefetch_miss_rate 0.163231
Core_0_L2C_writeback_access 13292
Core_0_L2C_writeback_hit 13292
Core_0_L2C_writeback_miss 0
Core_0_L2C_writeback_MPKI 0
Core_0_L2C_writeback_miss_rate 0
Core_0_L2C_prefetch_requested 265368
Core_0_L2C_prefetch_issued 265368
Core_0_L2C_prefetch_useful 49994
Core_0_L2C_prefetch_useless 57
Core_0_L2C_prefetch_late 0
Core_0_L2C_prefetch_accuracy 0.188395
Core_0_L2C_prefetch_coverage 0.780291

Core_0_LLC_total_access 78212
Core_0_LLC_total_hit 6026
Core_0_LLC_total_miss 72186
Core_0_LLC_total_MPKI 1.44372
Core_0_LLC_total_miss_rate 0.922953
Core_0_LLC_demand_access 14077
Core_0_LLC_demand_hit 0
Core_0_LLC_demand_miss 14077
Core_0_LLC_demand_MPKI 0.28154
Core_0_LLC_demand_miss_rate 1
Core_0_LLC_load_access 807
Core_0_LLC_load_hit 0
Core_0_LLC_load_miss 807
Core_0_LLC_load_MPKI 0.01614
Core_0_LLC_load_miss_rate 1
Core_0_LLC_rfo_access 13270
Core_0_LLC_rfo_hit 0
Core_0_LLC_rfo_miss 13270
Core_0_LLC_rfo_MPKI 0.2654
Core_0_LLC_rfo_miss_rate 1
Core_0_LLC_prefetch_access 50804
Core_0_LLC_prefetch_hit 0
Core_0_LLC_prefetch_miss 50804
Core_0_LLC_prefetch_MPKI 1.01608
Core_0_LLC_prefetch_miss_rate 1
Core_0_LLC_writeback_access 13331
Core_0_LLC_writeback_hit 6026
Core_0_LLC_writeback_miss 7305
Core_0_LLC_writeback_MPKI 0.1461
Core_0_LLC_writeback_miss_rate 0.547971
Core_0_LLC_prefetch_requested 0
Core_0_LLC_prefetch_issued 0
Core_0_LLC_prefetch_useful 0
Core_0_LLC_prefetch_useless 0
Core_0_LLC_prefetch_late 0
Core_0_LLC_prefetch_accuracy 0
Core_0_LLC_prefetch_coverage 0

[DRAM Statistics]
Channel_0_RQ_row_buffer_hit 4
Channel_0_RQ_row_buffer_miss 65006
Channel_0_WQ_row_buffer_hit 387
Channel_0_WQ_row_buffer_miss 2637
Channel_0_WQ_full 0
Channel_0_dbus_congested 35816
DRAM_total_RQ_row_buffer_hit 4
DRAM_total_RQ_row_buffer_miss 65006
DRAM_total_WQ_row_buffer_hit 387
DRAM_total_WQ_row_buffer_miss 2637
DRAM_total_WQ_full 0
DRAM_total_dbus_congested 35816
DRAM_avg_congested_cycle 11.7731

======STLB miss causes ========
Core_0_STLB_miss_cause_breakdown
Core_0_STLB_cause_Demand_Data_miss 1014
Core_0_STLB_cause_Demand_Data_miss_rate 1
Core_0_STLB_cause_Demand_Instruction_miss 0
Core_0_STLB_cause_Demand_Instruction_miss_rate 0
Core_0_STLB_cause_L1D_Prefetch_miss 0
Core_0_STLB_cause_L1D_Prefetch_miss_rate 0
Core_0_STLB_cause_L1I_Prefetch_miss 0
Core_0_STLB_cause_L1I_Prefetch_miss_rate 0
Core_0_STLB_cause_Other_miss 0
Core_0_STLB_cause_Other_miss_rate 0
Core_0_STLB_Demand_miss 1014
Core_0_STLB_Demand_miss_rate 1
Core_0_STLB_L1D_Prefetch_miss 0
Core_0_STLB_L1D_Prefetch_miss_rate 0
Core_0_STLB_Other_miss 0
Core_0_STLB_Other_miss_rate 0
