[VMEM] WARNING: physical memory size is smaller than virtual memory size.

*** ChampSim Multicore Out-of-Order Simulator ***
Warmup Instructions: 20000000
Simulation Instructions: 50000000
Number of CPUs: 1
Page size: 4096
Core 0: /data0/tzh/champsim_traces/Ligra/ligra_BellmanFord.com-lj.ungraph.gcc_6.3.0_O3.drop_24750M.length_250M.champsimtrace.xz
 L1D Berti prefetcher
Off-chip DRAM Size: 4 GiB Channels: 1 Width: 64-bit Data Rate: 3205 MT/s
Warmup halting CPU 0 at instruction 20000001 cycle 7431080 for remainder of phase
Warmup finished CPU 0 instructions: 20000001 cycles: 7431080 cumulative IPC: 2.691 (Simulation time: 00 hr 01 min 14 sec)
Warmup complete CPU 0 instructions: 20000001 cycles: 7431080 cumulative IPC: 2.691 (Simulation time: 00 hr 01 min 14 sec)
Simulation finished CPU 0 instructions: 50000002 cycles: 33772971 cumulative IPC: 1.48 (Simulation time: 00 hr 06 min 33 sec)
Simulation complete CPU 0 instructions: 50000002 cycles: 33772971 cumulative IPC: 1.48 (Simulation time: 00 hr 06 min 33 sec)

ChampSim completed all CPUs

=== Simulation ===
CPU 0 runs /data0/tzh/champsim_traces/Ligra/ligra_BellmanFord.com-lj.ungraph.gcc_6.3.0_O3.drop_24750M.length_250M.champsimtrace.xz

Region of Interest Statistics

CPU 0 cumulative IPC: 1.48 instructions: 50000002 cycles: 33772971
CPU 0 Branch Prediction Accuracy: 99.41% MPKI: 0.4824 Average ROB Occupancy at Mispredict: 183.9
Branch type MPKI
BRANCH_DIRECT_JUMP: 0
BRANCH_INDIRECT: 0
BRANCH_CONDITIONAL: 0.4822
BRANCH_DIRECT_CALL: 0
BRANCH_INDIRECT_CALL: 0
BRANCH_RETURN: 0.00014

cpu0->cpu0_STLB TOTAL        ACCESS:      25099 HIT:      20589 MISS:       4510 MSHR_MERGE:          0
cpu0->cpu0_STLB LOAD         ACCESS:      25099 HIT:      20589 MISS:       4510 MSHR_MERGE:          0
cpu0->cpu0_STLB RFO          ACCESS:          0 HIT:          0 MISS:          0 MSHR_MERGE:          0
cpu0->cpu0_STLB PREFETCH     ACCESS:          0 HIT:          0 MISS:          0 MSHR_MERGE:          0
cpu0->cpu0_STLB WRITE        ACCESS:          0 HIT:          0 MISS:          0 MSHR_MERGE:          0
cpu0->cpu0_STLB TRANSLATION  ACCESS:          0 HIT:          0 MISS:          0 MSHR_MERGE:          0
cpu0->cpu0_STLB PREFETCH REQUESTED:          0 ISSUED:          0 USEFUL:          0 USELESS:          0 LATE:          0
cpu0->cpu0_STLB AVERAGE MISS LATENCY: 251.5 cycles
cpu0->cpu0_L2C TOTAL        ACCESS:    4695288 HIT:    1895203 MISS:    2800085 MSHR_MERGE:    1744280
cpu0->cpu0_L2C LOAD         ACCESS:     463864 HIT:     329273 MISS:     134591 MSHR_MERGE:     112431
cpu0->cpu0_L2C RFO          ACCESS:     571212 HIT:      43068 MISS:     528144 MSHR_MERGE:         37
cpu0->cpu0_L2C PREFETCH     ACCESS:    3086342 HIT:     949850 MISS:    2136492 MSHR_MERGE:    1631812
cpu0->cpu0_L2C WRITE        ACCESS:     572629 HIT:     572597 MISS:         32 MSHR_MERGE:          0
cpu0->cpu0_L2C TRANSLATION  ACCESS:       1241 HIT:        415 MISS:        826 MSHR_MERGE:          0
cpu0->cpu0_L2C PREFETCH REQUESTED:    2988707 ISSUED:    2806401 USEFUL:     356950 USELESS:     101730 LATE:     112468
cpu0->cpu0_L2C AVERAGE MISS LATENCY: 419.1 cycles
cpu0->cpu0_L1I TOTAL        ACCESS:    6378064 HIT:    6378064 MISS:          0 MSHR_MERGE:          0
cpu0->cpu0_L1I LOAD         ACCESS:    6378064 HIT:    6378064 MISS:          0 MSHR_MERGE:          0
cpu0->cpu0_L1I RFO          ACCESS:          0 HIT:          0 MISS:          0 MSHR_MERGE:          0
cpu0->cpu0_L1I PREFETCH     ACCESS:          0 HIT:          0 MISS:          0 MSHR_MERGE:          0
cpu0->cpu0_L1I WRITE        ACCESS:          0 HIT:          0 MISS:          0 MSHR_MERGE:          0
cpu0->cpu0_L1I TRANSLATION  ACCESS:          0 HIT:          0 MISS:          0 MSHR_MERGE:          0
cpu0->cpu0_L1I PREFETCH REQUESTED:          0 ISSUED:          0 USEFUL:          0 USELESS:          0 LATE:          0
cpu0->cpu0_L1I AVERAGE MISS LATENCY: - cycles
cpu0->cpu0_L1D TOTAL        ACCESS:   15566487 HIT:    7871393 MISS:    7695094 MSHR_MERGE:    6378788
cpu0->cpu0_L1D LOAD         ACCESS:    3545833 HIT:    2659850 MISS:     885983 MSHR_MERGE:     422118
cpu0->cpu0_L1D RFO          ACCESS:          0 HIT:          0 MISS:          0 MSHR_MERGE:          0
cpu0->cpu0_L1D PREFETCH     ACCESS:     500444 HIT:     147544 MISS:     352900 MSHR_MERGE:      72959
cpu0->cpu0_L1D WRITE        ACCESS:   11511416 HIT:    5056710 MISS:    6454706 MSHR_MERGE:    5883447
cpu0->cpu0_L1D TRANSLATION  ACCESS:       8794 HIT:       7289 MISS:       1505 MSHR_MERGE:        264
cpu0->cpu0_L1D PREFETCH REQUESTED:     746818 ISSUED:     500436 USEFUL:     271961 USELESS:       7964 LATE:      75099
cpu0->cpu0_L1D AVERAGE MISS LATENCY: 272.2 cycles
cpu0->cpu0_ITLB TOTAL        ACCESS:    5376524 HIT:    5376524 MISS:          0 MSHR_MERGE:          0
cpu0->cpu0_ITLB LOAD         ACCESS:    5376524 HIT:    5376524 MISS:          0 MSHR_MERGE:          0
cpu0->cpu0_ITLB RFO          ACCESS:          0 HIT:          0 MISS:          0 MSHR_MERGE:          0
cpu0->cpu0_ITLB PREFETCH     ACCESS:          0 HIT:          0 MISS:          0 MSHR_MERGE:          0
cpu0->cpu0_ITLB WRITE        ACCESS:          0 HIT:          0 MISS:          0 MSHR_MERGE:          0
cpu0->cpu0_ITLB TRANSLATION  ACCESS:          0 HIT:          0 MISS:          0 MSHR_MERGE:          0
cpu0->cpu0_ITLB PREFETCH REQUESTED:          0 ISSUED:          0 USEFUL:          0 USELESS:          0 LATE:          0
cpu0->cpu0_ITLB AVERAGE MISS LATENCY: - cycles
cpu0->cpu0_DTLB TOTAL        ACCESS:   13919980 HIT:   13820791 MISS:      99189 MSHR_MERGE:      74090
cpu0->cpu0_DTLB LOAD         ACCESS:   13919980 HIT:   13820791 MISS:      99189 MSHR_MERGE:      74090
cpu0->cpu0_DTLB RFO          ACCESS:          0 HIT:          0 MISS:          0 MSHR_MERGE:          0
cpu0->cpu0_DTLB PREFETCH     ACCESS:          0 HIT:          0 MISS:          0 MSHR_MERGE:          0
cpu0->cpu0_DTLB WRITE        ACCESS:          0 HIT:          0 MISS:          0 MSHR_MERGE:          0
cpu0->cpu0_DTLB TRANSLATION  ACCESS:          0 HIT:          0 MISS:          0 MSHR_MERGE:          0
cpu0->cpu0_DTLB PREFETCH REQUESTED:          0 ISSUED:          0 USEFUL:          0 USELESS:          0 LATE:          0
cpu0->cpu0_DTLB AVERAGE MISS LATENCY: 50.37 cycles
cpu0->LLC TOTAL        ACCESS:    1585382 HIT:     181570 MISS:    1403812 MSHR_MERGE:          0
cpu0->LLC LOAD         ACCESS:      22160 HIT:       3073 MISS:      19087 MSHR_MERGE:          0
cpu0->LLC RFO          ACCESS:     528107 HIT:      17999 MISS:     510108 MSHR_MERGE:          0
cpu0->LLC PREFETCH     ACCESS:     504680 HIT:      61644 MISS:     443036 MSHR_MERGE:          0
cpu0->LLC WRITE        ACCESS:     529609 HIT:      98836 MISS:     430773 MSHR_MERGE:          0
cpu0->LLC TRANSLATION  ACCESS:        826 HIT:         18 MISS:        808 MSHR_MERGE:          0
cpu0->LLC PREFETCH REQUESTED:          0 ISSUED:          0 USEFUL:          0 USELESS:          0 LATE:          0
cpu0->LLC AVERAGE MISS LATENCY: 252.3 cycles

DRAM Statistics

Channel 0 RQ ROW_BUFFER_HIT:      71963
  ROW_BUFFER_MISS:     900871
  AVG DBUS CONGESTED CYCLE: 6.86
Channel 0 WQ ROW_BUFFER_HIT:      52114
  ROW_BUFFER_MISS:     459945
  FULL:       5002
Channel 0 REFRESHES ISSUED:       2814

[ROI Statistics]
[System Configuration]
num_cpus 1
cpu_freq 4000
fetch_width 6
decode_width 6
dispatch_width 6
execute_width 6
lq_width 2
sq_width 2
retire_width 6
scheduler_size 160
branch_mispredict_penalty 1
rob_size 352
lq_size 240
sq_size 112
ifetch_buffer_size 64
decode_buffer_size 32
dispatch_buffer_size 32
register_file_size 288
decode_latency 1
dispatch_latency 1
schedule_latency 0
execute_latency 0
page_size 4096
block_size 64
core_0_itlb_set 16
core_0_itlb_way 4
core_0_itlb_rq_size 16
core_0_itlb_wq_size 16
core_0_itlb_pq_size 0
core_0_itlb_mshr_size 8
core_0_itlb_hit_latency 1
core_0_itlb_fill_latency 1
core_0_itlb_max_tag_check 2
core_0_itlb_max_fill 2
core_0_dtlb_set 16
core_0_dtlb_way 4
core_0_dtlb_rq_size 16
core_0_dtlb_wq_size 16
core_0_dtlb_pq_size 0
core_0_dtlb_mshr_size 8
core_0_dtlb_hit_latency 1
core_0_dtlb_fill_latency 1
core_0_dtlb_max_tag_check 2
core_0_dtlb_max_fill 2
core_0_stlb_set 128
core_0_stlb_way 12
core_0_stlb_rq_size 32
core_0_stlb_wq_size 32
core_0_stlb_pq_size 0
core_0_stlb_mshr_size 16
core_0_stlb_hit_latency 4
core_0_stlb_fill_latency 4
core_0_stlb_max_tag_check 1
core_0_stlb_max_fill 1
core_0_l1i_set 64
core_0_l1i_way 8
core_0_l1i_rq_size 64
core_0_l1i_wq_size 64
core_0_l1i_pq_size 32
core_0_l1i_mshr_size 8
core_0_l1i_hit_latency 2
core_0_l1i_fill_latency 2
core_0_l1i_max_tag_check 2
core_0_l1i_max_fill 2
core_0_l1d_set 64
core_0_l1d_way 12
core_0_l1d_rq_size 64
core_0_l1d_wq_size 64
core_0_l1d_pq_size 8
core_0_l1d_mshr_size 16
core_0_l1d_hit_latency 2
core_0_l1d_fill_latency 3
core_0_l1d_max_tag_check 2
core_0_l1d_max_fill 2
core_0_l2c_set 1024
core_0_l2c_way 8
core_0_l2c_rq_size 32
core_0_l2c_wq_size 32
core_0_l2c_pq_size 16
core_0_l2c_mshr_size 32
core_0_l2c_hit_latency 5
core_0_l2c_fill_latency 5
core_0_l2c_max_tag_check 1
core_0_l2c_max_fill 1
llc_set 2048
llc_way 16
llc_rq_size 32
llc_wq_size 32
llc_pq_size 32
llc_mshr_size 64
llc_hit_latency 10
llc_fill_latency 10
llc_max_tag_check 1
llc_max_fill 1
dram_channels 1
dram_ranks 1
dram_bankgroups 8
dram_banks 4
dram_rows 16384
dram_columns 1024
dram_channel_width 8
dram_rq_size 64
dram_wq_size 64
dram_size 4294967296
core_0_itlb_prefetcher no
core_0_dtlb_prefetcher no
core_0_stlb_prefetcher no
core_0_l1i_prefetcher next_line
core_0_l1d_prefetcher berti
core_0_l2c_prefetcher pythia
llc_prefetcher no
llc_replacement drrip

Core_0_instructions 50000002
Core_0_cycles 33772971
Core_0_IPC 1.48047
Core_0_branch_prediction_accuracy 99.4129
Core_0_branch_MPKI 0.48236
Core_0_average_ROB_occupancy_at_mispredict 183.932

Core_0_ITLB_total_access 5376524
Core_0_ITLB_total_hit 5376524
Core_0_ITLB_total_miss 0
Core_0_ITLB_total_MPKI 0
Core_0_ITLB_total_miss_rate 0
Core_0_ITLB_demand_access 5376524
Core_0_ITLB_demand_hit 5376524
Core_0_ITLB_demand_miss 0
Core_0_ITLB_demand_MPKI 0
Core_0_ITLB_demand_miss_rate 0
Core_0_ITLB_load_access 5376524
Core_0_ITLB_load_hit 5376524
Core_0_ITLB_load_miss 0
Core_0_ITLB_load_MPKI 0
Core_0_ITLB_load_miss_rate 0
Core_0_ITLB_rfo_access 0
Core_0_ITLB_rfo_hit 0
Core_0_ITLB_rfo_miss 0
Core_0_ITLB_rfo_MPKI 0
Core_0_ITLB_rfo_miss_rate 0
Core_0_ITLB_prefetch_access 0
Core_0_ITLB_prefetch_hit 0
Core_0_ITLB_prefetch_miss 0
Core_0_ITLB_prefetch_MPKI 0
Core_0_ITLB_prefetch_miss_rate 0
Core_0_ITLB_writeback_access 0
Core_0_ITLB_writeback_hit 0
Core_0_ITLB_writeback_miss 0
Core_0_ITLB_writeback_MPKI 0
Core_0_ITLB_writeback_miss_rate 0
Core_0_ITLB_prefetch_requested 0
Core_0_ITLB_prefetch_issued 0
Core_0_ITLB_prefetch_useful 0
Core_0_ITLB_prefetch_useless 0
Core_0_ITLB_prefetch_late 0
Core_0_ITLB_prefetch_accuracy 0
Core_0_ITLB_prefetch_coverage 0

Core_0_DTLB_total_access 13919980
Core_0_DTLB_total_hit 13820791
Core_0_DTLB_total_miss 99189
Core_0_DTLB_total_MPKI 1.98378
Core_0_DTLB_total_miss_rate 0.00712566
Core_0_DTLB_demand_access 13919980
Core_0_DTLB_demand_hit 13820791
Core_0_DTLB_demand_miss 99189
Core_0_DTLB_demand_MPKI 1.98378
Core_0_DTLB_demand_miss_rate 0.00712566
Core_0_DTLB_load_access 13919980
Core_0_DTLB_load_hit 13820791
Core_0_DTLB_load_miss 99189
Core_0_DTLB_load_MPKI 1.98378
Core_0_DTLB_load_miss_rate 0.00712566
Core_0_DTLB_rfo_access 0
Core_0_DTLB_rfo_hit 0
Core_0_DTLB_rfo_miss 0
Core_0_DTLB_rfo_MPKI 0
Core_0_DTLB_rfo_miss_rate 0
Core_0_DTLB_prefetch_access 0
Core_0_DTLB_prefetch_hit 0
Core_0_DTLB_prefetch_miss 0
Core_0_DTLB_prefetch_MPKI 0
Core_0_DTLB_prefetch_miss_rate 0
Core_0_DTLB_writeback_access 0
Core_0_DTLB_writeback_hit 0
Core_0_DTLB_writeback_miss 0
Core_0_DTLB_writeback_MPKI 0
Core_0_DTLB_writeback_miss_rate 0
Core_0_DTLB_prefetch_requested 0
Core_0_DTLB_prefetch_issued 0
Core_0_DTLB_prefetch_useful 0
Core_0_DTLB_prefetch_useless 0
Core_0_DTLB_prefetch_late 0
Core_0_DTLB_prefetch_accuracy 0
Core_0_DTLB_prefetch_coverage 0

Core_0_STLB_total_access 25099
Core_0_STLB_total_hit 20589
Core_0_STLB_total_miss 4510
Core_0_STLB_total_MPKI 0.0902
Core_0_STLB_total_miss_rate 0.179688
Core_0_STLB_demand_access 25099
Core_0_STLB_demand_hit 20589
Core_0_STLB_demand_miss 4510
Core_0_STLB_demand_MPKI 0.0902
Core_0_STLB_demand_miss_rate 0.179688
Core_0_STLB_load_access 25099
Core_0_STLB_load_hit 20589
Core_0_STLB_load_miss 4510
Core_0_STLB_load_MPKI 0.0902
Core_0_STLB_load_miss_rate 0.179688
Core_0_STLB_rfo_access 0
Core_0_STLB_rfo_hit 0
Core_0_STLB_rfo_miss 0
Core_0_STLB_rfo_MPKI 0
Core_0_STLB_rfo_miss_rate 0
Core_0_STLB_prefetch_access 0
Core_0_STLB_prefetch_hit 0
Core_0_STLB_prefetch_miss 0
Core_0_STLB_prefetch_MPKI 0
Core_0_STLB_prefetch_miss_rate 0
Core_0_STLB_writeback_access 0
Core_0_STLB_writeback_hit 0
Core_0_STLB_writeback_miss 0
Core_0_STLB_writeback_MPKI 0
Core_0_STLB_writeback_miss_rate 0
Core_0_STLB_prefetch_requested 0
Core_0_STLB_prefetch_issued 0
Core_0_STLB_prefetch_useful 0
Core_0_STLB_prefetch_useless 0
Core_0_STLB_prefetch_late 0
Core_0_STLB_prefetch_accuracy 0
Core_0_STLB_prefetch_coverage 0

Core_0_L1I_total_access 6378064
Core_0_L1I_total_hit 6378064
Core_0_L1I_total_miss 0
Core_0_L1I_total_MPKI 0
Core_0_L1I_total_miss_rate 0
Core_0_L1I_demand_access 6378064
Core_0_L1I_demand_hit 6378064
Core_0_L1I_demand_miss 0
Core_0_L1I_demand_MPKI 0
Core_0_L1I_demand_miss_rate 0
Core_0_L1I_load_access 6378064
Core_0_L1I_load_hit 6378064
Core_0_L1I_load_miss 0
Core_0_L1I_load_MPKI 0
Core_0_L1I_load_miss_rate 0
Core_0_L1I_rfo_access 0
Core_0_L1I_rfo_hit 0
Core_0_L1I_rfo_miss 0
Core_0_L1I_rfo_MPKI 0
Core_0_L1I_rfo_miss_rate 0
Core_0_L1I_prefetch_access 0
Core_0_L1I_prefetch_hit 0
Core_0_L1I_prefetch_miss 0
Core_0_L1I_prefetch_MPKI 0
Core_0_L1I_prefetch_miss_rate 0
Core_0_L1I_writeback_access 0
Core_0_L1I_writeback_hit 0
Core_0_L1I_writeback_miss 0
Core_0_L1I_writeback_MPKI 0
Core_0_L1I_writeback_miss_rate 0
Core_0_L1I_prefetch_requested 0
Core_0_L1I_prefetch_issued 0
Core_0_L1I_prefetch_useful 0
Core_0_L1I_prefetch_useless 0
Core_0_L1I_prefetch_late 0
Core_0_L1I_prefetch_accuracy 0
Core_0_L1I_prefetch_coverage 0

Core_0_L1D_total_access 15557693
Core_0_L1D_total_hit 7864104
Core_0_L1D_total_miss 7693589
Core_0_L1D_total_MPKI 153.872
Core_0_L1D_total_miss_rate 0.49452
Core_0_L1D_demand_access 3545833
Core_0_L1D_demand_hit 2659850
Core_0_L1D_demand_miss 885983
Core_0_L1D_demand_MPKI 17.7197
Core_0_L1D_demand_miss_rate 0.249866
Core_0_L1D_load_access 3545833
Core_0_L1D_load_hit 2659850
Core_0_L1D_load_miss 885983
Core_0_L1D_load_MPKI 17.7197
Core_0_L1D_load_miss_rate 0.249866
Core_0_L1D_rfo_access 0
Core_0_L1D_rfo_hit 0
Core_0_L1D_rfo_miss 0
Core_0_L1D_rfo_MPKI 0
Core_0_L1D_rfo_miss_rate 0
Core_0_L1D_prefetch_access 500444
Core_0_L1D_prefetch_hit 147544
Core_0_L1D_prefetch_miss 352900
Core_0_L1D_prefetch_MPKI 7.058
Core_0_L1D_prefetch_miss_rate 0.705174
Core_0_L1D_writeback_access 11511416
Core_0_L1D_writeback_hit 5056710
Core_0_L1D_writeback_miss 6454706
Core_0_L1D_writeback_MPKI 129.094
Core_0_L1D_writeback_miss_rate 0.560722
Core_0_L1D_prefetch_requested 746818
Core_0_L1D_prefetch_issued 500436
Core_0_L1D_prefetch_useful 271961
Core_0_L1D_prefetch_useless 7964
Core_0_L1D_prefetch_late 75099
Core_0_L1D_prefetch_accuracy 0.543448
Core_0_L1D_prefetch_coverage 0.234865

Core_0_L2C_total_access 4694047
Core_0_L2C_total_hit 1894788
Core_0_L2C_total_miss 2799259
Core_0_L2C_total_MPKI 55.9852
Core_0_L2C_total_miss_rate 0.596342
Core_0_L2C_demand_access 1035076
Core_0_L2C_demand_hit 372341
Core_0_L2C_demand_miss 662735
Core_0_L2C_demand_MPKI 13.2547
Core_0_L2C_demand_miss_rate 0.640277
Core_0_L2C_load_access 463864
Core_0_L2C_load_hit 329273
Core_0_L2C_load_miss 134591
Core_0_L2C_load_MPKI 2.69182
Core_0_L2C_load_miss_rate 0.290152
Core_0_L2C_rfo_access 571212
Core_0_L2C_rfo_hit 43068
Core_0_L2C_rfo_miss 528144
Core_0_L2C_rfo_MPKI 10.5629
Core_0_L2C_rfo_miss_rate 0.924602
Core_0_L2C_prefetch_access 3086342
Core_0_L2C_prefetch_hit 949850
Core_0_L2C_prefetch_miss 2136492
Core_0_L2C_prefetch_MPKI 42.7298
Core_0_L2C_prefetch_miss_rate 0.692241
Core_0_L2C_writeback_access 572629
Core_0_L2C_writeback_hit 572597
Core_0_L2C_writeback_miss 32
Core_0_L2C_writeback_MPKI 0.00064
Core_0_L2C_writeback_miss_rate 5.58826e-05
Core_0_L2C_prefetch_requested 2988707
Core_0_L2C_prefetch_issued 2806401
Core_0_L2C_prefetch_useful 356950
Core_0_L2C_prefetch_useless 101730
Core_0_L2C_prefetch_late 112468
Core_0_L2C_prefetch_accuracy 0.127191
Core_0_L2C_prefetch_coverage 0.350059

Core_0_LLC_total_access 1584556
Core_0_LLC_total_hit 181552
Core_0_LLC_total_miss 1403004
Core_0_LLC_total_MPKI 28.0601
Core_0_LLC_total_miss_rate 0.885424
Core_0_LLC_demand_access 550267
Core_0_LLC_demand_hit 21072
Core_0_LLC_demand_miss 529195
Core_0_LLC_demand_MPKI 10.5839
Core_0_LLC_demand_miss_rate 0.961706
Core_0_LLC_load_access 22160
Core_0_LLC_load_hit 3073
Core_0_LLC_load_miss 19087
Core_0_LLC_load_MPKI 0.38174
Core_0_LLC_load_miss_rate 0.861327
Core_0_LLC_rfo_access 528107
Core_0_LLC_rfo_hit 17999
Core_0_LLC_rfo_miss 510108
Core_0_LLC_rfo_MPKI 10.2022
Core_0_LLC_rfo_miss_rate 0.965918
Core_0_LLC_prefetch_access 504680
Core_0_LLC_prefetch_hit 61644
Core_0_LLC_prefetch_miss 443036
Core_0_LLC_prefetch_MPKI 8.86072
Core_0_LLC_prefetch_miss_rate 0.877855
Core_0_LLC_writeback_access 529609
Core_0_LLC_writeback_hit 98836
Core_0_LLC_writeback_miss 430773
Core_0_LLC_writeback_MPKI 8.61546
Core_0_LLC_writeback_miss_rate 0.813379
Core_0_LLC_prefetch_requested 0
Core_0_LLC_prefetch_issued 0
Core_0_LLC_prefetch_useful 0
Core_0_LLC_prefetch_useless 0
Core_0_LLC_prefetch_late 0
Core_0_LLC_prefetch_accuracy 0
Core_0_LLC_prefetch_coverage 0

[DRAM Statistics]
Channel_0_RQ_row_buffer_hit 71963
Channel_0_RQ_row_buffer_miss 900871
Channel_0_WQ_row_buffer_hit 52114
Channel_0_WQ_row_buffer_miss 459945
Channel_0_WQ_full 5002
Channel_0_dbus_congested 4984550
DRAM_total_RQ_row_buffer_hit 71963
DRAM_total_RQ_row_buffer_miss 900871
DRAM_total_WQ_row_buffer_hit 52114
DRAM_total_WQ_row_buffer_miss 459945
DRAM_total_WQ_full 5002
DRAM_total_dbus_congested 4984550
DRAM_avg_congested_cycle 6.85959

======STLB miss causes ========
Core_0_STLB_miss_cause_breakdown
Core_0_STLB_cause_Demand_Data_miss 4425
Core_0_STLB_cause_Demand_Data_miss_rate 0.176302
Core_0_STLB_cause_Demand_Instruction_miss 0
Core_0_STLB_cause_Demand_Instruction_miss_rate 0
Core_0_STLB_cause_L1D_Prefetch_miss 85
Core_0_STLB_cause_L1D_Prefetch_miss_rate 0.00338659
Core_0_STLB_cause_L1I_Prefetch_miss 0
Core_0_STLB_cause_L1I_Prefetch_miss_rate 0
Core_0_STLB_cause_Other_miss 0
Core_0_STLB_cause_Other_miss_rate 0
Core_0_STLB_Demand_miss 4425
Core_0_STLB_Demand_miss_rate 0.176302
Core_0_STLB_L1D_Prefetch_miss 85
Core_0_STLB_L1D_Prefetch_miss_rate 0.00338659
Core_0_STLB_Other_miss 0
Core_0_STLB_Other_miss_rate 0
