[VMEM] WARNING: physical memory size is smaller than virtual memory size.

*** ChampSim Multicore Out-of-Order Simulator ***
Warmup Instructions: 20000000
Simulation Instructions: 50000000
Number of CPUs: 1
Page size: 4096
Core 0: /data0/tzh/champsim_traces/Ligra/ligra_MIS.com-lj.ungraph.gcc_6.3.0_O3.drop_21250M.length_250M.champsimtrace.xz
 L1D Berti prefetcher
Off-chip DRAM Size: 4 GiB Channels: 1 Width: 64-bit Data Rate: 3205 MT/s
Warmup halting CPU 0 at instruction 20000003 cycle 9605716 for remainder of phase
Warmup finished CPU 0 instructions: 20000003 cycles: 9605716 cumulative IPC: 2.082 (Simulation time: 00 hr 01 min 35 sec)
Warmup complete CPU 0 instructions: 20000003 cycles: 9605716 cumulative IPC: 2.082 (Simulation time: 00 hr 01 min 35 sec)
Simulation finished CPU 0 instructions: 50000000 cycles: 50594842 cumulative IPC: 0.9882 (Simulation time: 00 hr 08 min 37 sec)
Simulation complete CPU 0 instructions: 50000000 cycles: 50594842 cumulative IPC: 0.9882 (Simulation time: 00 hr 08 min 37 sec)

ChampSim completed all CPUs

=== Simulation ===
CPU 0 runs /data0/tzh/champsim_traces/Ligra/ligra_MIS.com-lj.ungraph.gcc_6.3.0_O3.drop_21250M.length_250M.champsimtrace.xz

Region of Interest Statistics

CPU 0 cumulative IPC: 0.9882 instructions: 50000000 cycles: 50594842
CPU 0 Branch Prediction Accuracy: 99.13% MPKI: 1.73 Average ROB Occupancy at Mispredict: 117.4
Branch type MPKI
BRANCH_DIRECT_JUMP: 0.0004
BRANCH_INDIRECT: 0
BRANCH_CONDITIONAL: 1.729
BRANCH_DIRECT_CALL: 0.00018
BRANCH_INDIRECT_CALL: 0
BRANCH_RETURN: 0.00016

cpu0->cpu0_STLB TOTAL        ACCESS:      23756 HIT:         39 MISS:      23717 MSHR_MERGE:          0
cpu0->cpu0_STLB LOAD         ACCESS:      23756 HIT:         39 MISS:      23717 MSHR_MERGE:          0
cpu0->cpu0_STLB RFO          ACCESS:          0 HIT:          0 MISS:          0 MSHR_MERGE:          0
cpu0->cpu0_STLB PREFETCH     ACCESS:          0 HIT:          0 MISS:          0 MSHR_MERGE:          0
cpu0->cpu0_STLB WRITE        ACCESS:          0 HIT:          0 MISS:          0 MSHR_MERGE:          0
cpu0->cpu0_STLB TRANSLATION  ACCESS:          0 HIT:          0 MISS:          0 MSHR_MERGE:          0
cpu0->cpu0_STLB PREFETCH REQUESTED:          0 ISSUED:          0 USEFUL:          0 USELESS:          0 LATE:          0
cpu0->cpu0_STLB AVERAGE MISS LATENCY: 255.3 cycles
cpu0->cpu0_L2C TOTAL        ACCESS:    7106350 HIT:    2366948 MISS:    4739402 MSHR_MERGE:    3218245
cpu0->cpu0_L2C LOAD         ACCESS:     325263 HIT:     147978 MISS:     177285 MSHR_MERGE:     136331
cpu0->cpu0_L2C RFO          ACCESS:     556499 HIT:        580 MISS:     555919 MSHR_MERGE:          0
cpu0->cpu0_L2C PREFETCH     ACCESS:    5662246 HIT:    1659107 MISS:    4003139 MSHR_MERGE:    3081914
cpu0->cpu0_L2C WRITE        ACCESS:     556900 HIT:     556900 MISS:          0 MSHR_MERGE:          0
cpu0->cpu0_L2C TRANSLATION  ACCESS:       5442 HIT:       2383 MISS:       3059 MSHR_MERGE:          0
cpu0->cpu0_L2C PREFETCH REQUESTED:    5119123 ISSUED:    4984178 USEFUL:     606575 USELESS:     267790 LATE:     136331
cpu0->cpu0_L2C AVERAGE MISS LATENCY: 502 cycles
cpu0->cpu0_L1I TOTAL        ACCESS:    8091642 HIT:    8091543 MISS:         99 MSHR_MERGE:          7
cpu0->cpu0_L1I LOAD         ACCESS:    8091642 HIT:    8091543 MISS:         99 MSHR_MERGE:          7
cpu0->cpu0_L1I RFO          ACCESS:          0 HIT:          0 MISS:          0 MSHR_MERGE:          0
cpu0->cpu0_L1I PREFETCH     ACCESS:          0 HIT:          0 MISS:          0 MSHR_MERGE:          0
cpu0->cpu0_L1I WRITE        ACCESS:          0 HIT:          0 MISS:          0 MSHR_MERGE:          0
cpu0->cpu0_L1I TRANSLATION  ACCESS:          0 HIT:          0 MISS:          0 MSHR_MERGE:          0
cpu0->cpu0_L1I PREFETCH REQUESTED:          0 ISSUED:          0 USEFUL:          0 USELESS:          0 LATE:          0
cpu0->cpu0_L1I AVERAGE MISS LATENCY: 216.1 cycles
cpu0->cpu0_L1D TOTAL        ACCESS:   15435208 HIT:    7858188 MISS:    7577020 MSHR_MERGE:    6011852
cpu0->cpu0_L1D LOAD         ACCESS:    8101281 HIT:    7476752 MISS:     624529 MSHR_MERGE:     299358
cpu0->cpu0_L1D RFO          ACCESS:          0 HIT:          0 MISS:          0 MSHR_MERGE:          0
cpu0->cpu0_L1D PREFETCH     ACCESS:     927817 HIT:     177731 MISS:     750086 MSHR_MERGE:      72030
cpu0->cpu0_L1D WRITE        ACCESS:    6358615 HIT:     161653 MISS:    6196962 MSHR_MERGE:    5640463
cpu0->cpu0_L1D TRANSLATION  ACCESS:      47495 HIT:      42052 MISS:       5443 MSHR_MERGE:          1
cpu0->cpu0_L1D PREFETCH REQUESTED:    1117275 ISSUED:     927809 USEFUL:     665108 USELESS:      12909 LATE:      75452
cpu0->cpu0_L1D AVERAGE MISS LATENCY: 413.7 cycles
cpu0->cpu0_ITLB TOTAL        ACCESS:    6980696 HIT:    6980684 MISS:         12 MSHR_MERGE:          4
cpu0->cpu0_ITLB LOAD         ACCESS:    6980696 HIT:    6980684 MISS:         12 MSHR_MERGE:          4
cpu0->cpu0_ITLB RFO          ACCESS:          0 HIT:          0 MISS:          0 MSHR_MERGE:          0
cpu0->cpu0_ITLB PREFETCH     ACCESS:          0 HIT:          0 MISS:          0 MSHR_MERGE:          0
cpu0->cpu0_ITLB WRITE        ACCESS:          0 HIT:          0 MISS:          0 MSHR_MERGE:          0
cpu0->cpu0_ITLB TRANSLATION  ACCESS:          0 HIT:          0 MISS:          0 MSHR_MERGE:          0
cpu0->cpu0_ITLB PREFETCH REQUESTED:          0 ISSUED:          0 USEFUL:          0 USELESS:          0 LATE:          0
cpu0->cpu0_ITLB AVERAGE MISS LATENCY: 505.5 cycles
cpu0->cpu0_DTLB TOTAL        ACCESS:   14506947 HIT:   14282723 MISS:     224224 MSHR_MERGE:     200476
cpu0->cpu0_DTLB LOAD         ACCESS:   14506947 HIT:   14282723 MISS:     224224 MSHR_MERGE:     200476
cpu0->cpu0_DTLB RFO          ACCESS:          0 HIT:          0 MISS:          0 MSHR_MERGE:          0
cpu0->cpu0_DTLB PREFETCH     ACCESS:          0 HIT:          0 MISS:          0 MSHR_MERGE:          0
cpu0->cpu0_DTLB WRITE        ACCESS:          0 HIT:          0 MISS:          0 MSHR_MERGE:          0
cpu0->cpu0_DTLB TRANSLATION  ACCESS:          0 HIT:          0 MISS:          0 MSHR_MERGE:          0
cpu0->cpu0_DTLB PREFETCH REQUESTED:          0 ISSUED:          0 USEFUL:          0 USELESS:          0 LATE:          0
cpu0->cpu0_DTLB AVERAGE MISS LATENCY: 260.8 cycles
cpu0->LLC TOTAL        ACCESS:    2081248 HIT:      89061 MISS:    1992187 MSHR_MERGE:          0
cpu0->LLC LOAD         ACCESS:      40954 HIT:        156 MISS:      40798 MSHR_MERGE:          0
cpu0->LLC RFO          ACCESS:     555919 HIT:          4 MISS:     555915 MSHR_MERGE:          0
cpu0->LLC PREFETCH     ACCESS:     921225 HIT:       3265 MISS:     917960 MSHR_MERGE:          0
cpu0->LLC WRITE        ACCESS:     560091 HIT:      85631 MISS:     474460 MSHR_MERGE:          0
cpu0->LLC TRANSLATION  ACCESS:       3059 HIT:          5 MISS:       3054 MSHR_MERGE:          0
cpu0->LLC PREFETCH REQUESTED:          0 ISSUED:          0 USEFUL:          0 USELESS:          0 LATE:          0
cpu0->LLC AVERAGE MISS LATENCY: 294.2 cycles

DRAM Statistics

Channel 0 RQ ROW_BUFFER_HIT:     192851
  ROW_BUFFER_MISS:    1324866
  AVG DBUS CONGESTED CYCLE: 6.662
Channel 0 WQ ROW_BUFFER_HIT:      45854
  ROW_BUFFER_MISS:     528274
  FULL:          0
Channel 0 REFRESHES ISSUED:       4216

[ROI Statistics]
[System Configuration]
num_cpus 1
cpu_freq 4000
fetch_width 6
decode_width 6
dispatch_width 6
execute_width 6
lq_width 2
sq_width 2
retire_width 6
scheduler_size 160
branch_mispredict_penalty 1
rob_size 352
lq_size 240
sq_size 112
ifetch_buffer_size 64
decode_buffer_size 32
dispatch_buffer_size 32
register_file_size 288
decode_latency 1
dispatch_latency 1
schedule_latency 0
execute_latency 0
page_size 4096
block_size 64
core_0_itlb_set 16
core_0_itlb_way 4
core_0_itlb_rq_size 16
core_0_itlb_wq_size 16
core_0_itlb_pq_size 0
core_0_itlb_mshr_size 8
core_0_itlb_hit_latency 1
core_0_itlb_fill_latency 1
core_0_itlb_max_tag_check 2
core_0_itlb_max_fill 2
core_0_dtlb_set 16
core_0_dtlb_way 4
core_0_dtlb_rq_size 16
core_0_dtlb_wq_size 16
core_0_dtlb_pq_size 0
core_0_dtlb_mshr_size 8
core_0_dtlb_hit_latency 1
core_0_dtlb_fill_latency 1
core_0_dtlb_max_tag_check 2
core_0_dtlb_max_fill 2
core_0_stlb_set 128
core_0_stlb_way 12
core_0_stlb_rq_size 32
core_0_stlb_wq_size 32
core_0_stlb_pq_size 0
core_0_stlb_mshr_size 16
core_0_stlb_hit_latency 4
core_0_stlb_fill_latency 4
core_0_stlb_max_tag_check 1
core_0_stlb_max_fill 1
core_0_l1i_set 64
core_0_l1i_way 8
core_0_l1i_rq_size 64
core_0_l1i_wq_size 64
core_0_l1i_pq_size 32
core_0_l1i_mshr_size 8
core_0_l1i_hit_latency 2
core_0_l1i_fill_latency 2
core_0_l1i_max_tag_check 2
core_0_l1i_max_fill 2
core_0_l1d_set 64
core_0_l1d_way 12
core_0_l1d_rq_size 64
core_0_l1d_wq_size 64
core_0_l1d_pq_size 8
core_0_l1d_mshr_size 16
core_0_l1d_hit_latency 2
core_0_l1d_fill_latency 3
core_0_l1d_max_tag_check 2
core_0_l1d_max_fill 2
core_0_l2c_set 1024
core_0_l2c_way 8
core_0_l2c_rq_size 32
core_0_l2c_wq_size 32
core_0_l2c_pq_size 16
core_0_l2c_mshr_size 32
core_0_l2c_hit_latency 5
core_0_l2c_fill_latency 5
core_0_l2c_max_tag_check 1
core_0_l2c_max_fill 1
llc_set 2048
llc_way 16
llc_rq_size 32
llc_wq_size 32
llc_pq_size 32
llc_mshr_size 64
llc_hit_latency 10
llc_fill_latency 10
llc_max_tag_check 1
llc_max_fill 1
dram_channels 1
dram_ranks 1
dram_bankgroups 8
dram_banks 4
dram_rows 16384
dram_columns 1024
dram_channel_width 8
dram_rq_size 64
dram_wq_size 64
dram_size 4294967296
core_0_itlb_prefetcher no
core_0_dtlb_prefetcher no
core_0_stlb_prefetcher no
core_0_l1i_prefetcher next_line
core_0_l1d_prefetcher berti
core_0_l2c_prefetcher pythia
llc_prefetcher no
llc_replacement drrip

Core_0_instructions 50000000
Core_0_cycles 50594842
Core_0_IPC 0.988243
Core_0_branch_prediction_accuracy 99.1289
Core_0_branch_MPKI 1.72992
Core_0_average_ROB_occupancy_at_mispredict 117.387

Core_0_ITLB_total_access 6980696
Core_0_ITLB_total_hit 6980684
Core_0_ITLB_total_miss 12
Core_0_ITLB_total_MPKI 0.00024
Core_0_ITLB_total_miss_rate 1.71903e-06
Core_0_ITLB_demand_access 6980696
Core_0_ITLB_demand_hit 6980684
Core_0_ITLB_demand_miss 12
Core_0_ITLB_demand_MPKI 0.00024
Core_0_ITLB_demand_miss_rate 1.71903e-06
Core_0_ITLB_load_access 6980696
Core_0_ITLB_load_hit 6980684
Core_0_ITLB_load_miss 12
Core_0_ITLB_load_MPKI 0.00024
Core_0_ITLB_load_miss_rate 1.71903e-06
Core_0_ITLB_rfo_access 0
Core_0_ITLB_rfo_hit 0
Core_0_ITLB_rfo_miss 0
Core_0_ITLB_rfo_MPKI 0
Core_0_ITLB_rfo_miss_rate 0
Core_0_ITLB_prefetch_access 0
Core_0_ITLB_prefetch_hit 0
Core_0_ITLB_prefetch_miss 0
Core_0_ITLB_prefetch_MPKI 0
Core_0_ITLB_prefetch_miss_rate 0
Core_0_ITLB_writeback_access 0
Core_0_ITLB_writeback_hit 0
Core_0_ITLB_writeback_miss 0
Core_0_ITLB_writeback_MPKI 0
Core_0_ITLB_writeback_miss_rate 0
Core_0_ITLB_prefetch_requested 0
Core_0_ITLB_prefetch_issued 0
Core_0_ITLB_prefetch_useful 0
Core_0_ITLB_prefetch_useless 0
Core_0_ITLB_prefetch_late 0
Core_0_ITLB_prefetch_accuracy 0
Core_0_ITLB_prefetch_coverage 0

Core_0_DTLB_total_access 14506947
Core_0_DTLB_total_hit 14282723
Core_0_DTLB_total_miss 224224
Core_0_DTLB_total_MPKI 4.48448
Core_0_DTLB_total_miss_rate 0.0154563
Core_0_DTLB_demand_access 14506947
Core_0_DTLB_demand_hit 14282723
Core_0_DTLB_demand_miss 224224
Core_0_DTLB_demand_MPKI 4.48448
Core_0_DTLB_demand_miss_rate 0.0154563
Core_0_DTLB_load_access 14506947
Core_0_DTLB_load_hit 14282723
Core_0_DTLB_load_miss 224224
Core_0_DTLB_load_MPKI 4.48448
Core_0_DTLB_load_miss_rate 0.0154563
Core_0_DTLB_rfo_access 0
Core_0_DTLB_rfo_hit 0
Core_0_DTLB_rfo_miss 0
Core_0_DTLB_rfo_MPKI 0
Core_0_DTLB_rfo_miss_rate 0
Core_0_DTLB_prefetch_access 0
Core_0_DTLB_prefetch_hit 0
Core_0_DTLB_prefetch_miss 0
Core_0_DTLB_prefetch_MPKI 0
Core_0_DTLB_prefetch_miss_rate 0
Core_0_DTLB_writeback_access 0
Core_0_DTLB_writeback_hit 0
Core_0_DTLB_writeback_miss 0
Core_0_DTLB_writeback_MPKI 0
Core_0_DTLB_writeback_miss_rate 0
Core_0_DTLB_prefetch_requested 0
Core_0_DTLB_prefetch_issued 0
Core_0_DTLB_prefetch_useful 0
Core_0_DTLB_prefetch_useless 0
Core_0_DTLB_prefetch_late 0
Core_0_DTLB_prefetch_accuracy 0
Core_0_DTLB_prefetch_coverage 0

Core_0_STLB_total_access 23756
Core_0_STLB_total_hit 39
Core_0_STLB_total_miss 23717
Core_0_STLB_total_MPKI 0.47434
Core_0_STLB_total_miss_rate 0.998358
Core_0_STLB_demand_access 23756
Core_0_STLB_demand_hit 39
Core_0_STLB_demand_miss 23717
Core_0_STLB_demand_MPKI 0.47434
Core_0_STLB_demand_miss_rate 0.998358
Core_0_STLB_load_access 23756
Core_0_STLB_load_hit 39
Core_0_STLB_load_miss 23717
Core_0_STLB_load_MPKI 0.47434
Core_0_STLB_load_miss_rate 0.998358
Core_0_STLB_rfo_access 0
Core_0_STLB_rfo_hit 0
Core_0_STLB_rfo_miss 0
Core_0_STLB_rfo_MPKI 0
Core_0_STLB_rfo_miss_rate 0
Core_0_STLB_prefetch_access 0
Core_0_STLB_prefetch_hit 0
Core_0_STLB_prefetch_miss 0
Core_0_STLB_prefetch_MPKI 0
Core_0_STLB_prefetch_miss_rate 0
Core_0_STLB_writeback_access 0
Core_0_STLB_writeback_hit 0
Core_0_STLB_writeback_miss 0
Core_0_STLB_writeback_MPKI 0
Core_0_STLB_writeback_miss_rate 0
Core_0_STLB_prefetch_requested 0
Core_0_STLB_prefetch_issued 0
Core_0_STLB_prefetch_useful 0
Core_0_STLB_prefetch_useless 0
Core_0_STLB_prefetch_late 0
Core_0_STLB_prefetch_accuracy 0
Core_0_STLB_prefetch_coverage 0

Core_0_L1I_total_access 8091642
Core_0_L1I_total_hit 8091543
Core_0_L1I_total_miss 99
Core_0_L1I_total_MPKI 0.00198
Core_0_L1I_total_miss_rate 1.22348e-05
Core_0_L1I_demand_access 8091642
Core_0_L1I_demand_hit 8091543
Core_0_L1I_demand_miss 99
Core_0_L1I_demand_MPKI 0.00198
Core_0_L1I_demand_miss_rate 1.22348e-05
Core_0_L1I_load_access 8091642
Core_0_L1I_load_hit 8091543
Core_0_L1I_load_miss 99
Core_0_L1I_load_MPKI 0.00198
Core_0_L1I_load_miss_rate 1.22348e-05
Core_0_L1I_rfo_access 0
Core_0_L1I_rfo_hit 0
Core_0_L1I_rfo_miss 0
Core_0_L1I_rfo_MPKI 0
Core_0_L1I_rfo_miss_rate 0
Core_0_L1I_prefetch_access 0
Core_0_L1I_prefetch_hit 0
Core_0_L1I_prefetch_miss 0
Core_0_L1I_prefetch_MPKI 0
Core_0_L1I_prefetch_miss_rate 0
Core_0_L1I_writeback_access 0
Core_0_L1I_writeback_hit 0
Core_0_L1I_writeback_miss 0
Core_0_L1I_writeback_MPKI 0
Core_0_L1I_writeback_miss_rate 0
Core_0_L1I_prefetch_requested 0
Core_0_L1I_prefetch_issued 0
Core_0_L1I_prefetch_useful 0
Core_0_L1I_prefetch_useless 0
Core_0_L1I_prefetch_late 0
Core_0_L1I_prefetch_accuracy 0
Core_0_L1I_prefetch_coverage 0

Core_0_L1D_total_access 15387713
Core_0_L1D_total_hit 7816136
Core_0_L1D_total_miss 7571577
Core_0_L1D_total_MPKI 151.432
Core_0_L1D_total_miss_rate 0.492053
Core_0_L1D_demand_access 8101281
Core_0_L1D_demand_hit 7476752
Core_0_L1D_demand_miss 624529
Core_0_L1D_demand_MPKI 12.4906
Core_0_L1D_demand_miss_rate 0.0770902
Core_0_L1D_load_access 8101281
Core_0_L1D_load_hit 7476752
Core_0_L1D_load_miss 624529
Core_0_L1D_load_MPKI 12.4906
Core_0_L1D_load_miss_rate 0.0770902
Core_0_L1D_rfo_access 0
Core_0_L1D_rfo_hit 0
Core_0_L1D_rfo_miss 0
Core_0_L1D_rfo_MPKI 0
Core_0_L1D_rfo_miss_rate 0
Core_0_L1D_prefetch_access 927817
Core_0_L1D_prefetch_hit 177731
Core_0_L1D_prefetch_miss 750086
Core_0_L1D_prefetch_MPKI 15.0017
Core_0_L1D_prefetch_miss_rate 0.808442
Core_0_L1D_writeback_access 6358615
Core_0_L1D_writeback_hit 161653
Core_0_L1D_writeback_miss 6196962
Core_0_L1D_writeback_MPKI 123.939
Core_0_L1D_writeback_miss_rate 0.974577
Core_0_L1D_prefetch_requested 1117275
Core_0_L1D_prefetch_issued 927809
Core_0_L1D_prefetch_useful 665108
Core_0_L1D_prefetch_useless 12909
Core_0_L1D_prefetch_late 75452
Core_0_L1D_prefetch_accuracy 0.716859
Core_0_L1D_prefetch_coverage 0.515733

Core_0_L2C_total_access 7100908
Core_0_L2C_total_hit 2364565
Core_0_L2C_total_miss 4736343
Core_0_L2C_total_MPKI 94.7269
Core_0_L2C_total_miss_rate 0.667005
Core_0_L2C_demand_access 881762
Core_0_L2C_demand_hit 148558
Core_0_L2C_demand_miss 733204
Core_0_L2C_demand_MPKI 14.6641
Core_0_L2C_demand_miss_rate 0.831521
Core_0_L2C_load_access 325263
Core_0_L2C_load_hit 147978
Core_0_L2C_load_miss 177285
Core_0_L2C_load_MPKI 3.5457
Core_0_L2C_load_miss_rate 0.545051
Core_0_L2C_rfo_access 556499
Core_0_L2C_rfo_hit 580
Core_0_L2C_rfo_miss 555919
Core_0_L2C_rfo_MPKI 11.1184
Core_0_L2C_rfo_miss_rate 0.998958
Core_0_L2C_prefetch_access 5662246
Core_0_L2C_prefetch_hit 1659107
Core_0_L2C_prefetch_miss 4003139
Core_0_L2C_prefetch_MPKI 80.0628
Core_0_L2C_prefetch_miss_rate 0.706988
Core_0_L2C_writeback_access 556900
Core_0_L2C_writeback_hit 556900
Core_0_L2C_writeback_miss 0
Core_0_L2C_writeback_MPKI 0
Core_0_L2C_writeback_miss_rate 0
Core_0_L2C_prefetch_requested 5119123
Core_0_L2C_prefetch_issued 4984178
Core_0_L2C_prefetch_useful 606575
Core_0_L2C_prefetch_useless 267790
Core_0_L2C_prefetch_late 136331
Core_0_L2C_prefetch_accuracy 0.1217
Core_0_L2C_prefetch_coverage 0.452743

Core_0_LLC_total_access 2078189
Core_0_LLC_total_hit 89056
Core_0_LLC_total_miss 1989133
Core_0_LLC_total_MPKI 39.7827
Core_0_LLC_total_miss_rate 0.957147
Core_0_LLC_demand_access 596873
Core_0_LLC_demand_hit 160
Core_0_LLC_demand_miss 596713
Core_0_LLC_demand_MPKI 11.9343
Core_0_LLC_demand_miss_rate 0.999732
Core_0_LLC_load_access 40954
Core_0_LLC_load_hit 156
Core_0_LLC_load_miss 40798
Core_0_LLC_load_MPKI 0.81596
Core_0_LLC_load_miss_rate 0.996191
Core_0_LLC_rfo_access 555919
Core_0_LLC_rfo_hit 4
Core_0_LLC_rfo_miss 555915
Core_0_LLC_rfo_MPKI 11.1183
Core_0_LLC_rfo_miss_rate 0.999993
Core_0_LLC_prefetch_access 921225
Core_0_LLC_prefetch_hit 3265
Core_0_LLC_prefetch_miss 917960
Core_0_LLC_prefetch_MPKI 18.3592
Core_0_LLC_prefetch_miss_rate 0.996456
Core_0_LLC_writeback_access 560091
Core_0_LLC_writeback_hit 85631
Core_0_LLC_writeback_miss 474460
Core_0_LLC_writeback_MPKI 9.4892
Core_0_LLC_writeback_miss_rate 0.847112
Core_0_LLC_prefetch_requested 0
Core_0_LLC_prefetch_issued 0
Core_0_LLC_prefetch_useful 0
Core_0_LLC_prefetch_useless 0
Core_0_LLC_prefetch_late 0
Core_0_LLC_prefetch_accuracy 0
Core_0_LLC_prefetch_coverage 0

[DRAM Statistics]
Channel_0_RQ_row_buffer_hit 192851
Channel_0_RQ_row_buffer_miss 1324866
Channel_0_WQ_row_buffer_hit 45854
Channel_0_WQ_row_buffer_miss 528274
Channel_0_WQ_full 0
Channel_0_dbus_congested 6344234
DRAM_total_RQ_row_buffer_hit 192851
DRAM_total_RQ_row_buffer_miss 1324866
DRAM_total_WQ_row_buffer_hit 45854
DRAM_total_WQ_row_buffer_miss 528274
DRAM_total_WQ_full 0
DRAM_total_dbus_congested 6344234
DRAM_avg_congested_cycle 6.66189

======STLB miss causes ========
Core_0_STLB_miss_cause_breakdown
Core_0_STLB_cause_Demand_Data_miss 22816
Core_0_STLB_cause_Demand_Data_miss_rate 0.960431
Core_0_STLB_cause_Demand_Instruction_miss 8
Core_0_STLB_cause_Demand_Instruction_miss_rate 0.000336757
Core_0_STLB_cause_L1D_Prefetch_miss 893
Core_0_STLB_cause_L1D_Prefetch_miss_rate 0.0375905
Core_0_STLB_cause_L1I_Prefetch_miss 0
Core_0_STLB_cause_L1I_Prefetch_miss_rate 0
Core_0_STLB_cause_Other_miss 0
Core_0_STLB_cause_Other_miss_rate 0
Core_0_STLB_Demand_miss 22824
Core_0_STLB_Demand_miss_rate 0.960768
Core_0_STLB_L1D_Prefetch_miss 893
Core_0_STLB_L1D_Prefetch_miss_rate 0.0375905
Core_0_STLB_Other_miss 0
Core_0_STLB_Other_miss_rate 0
