[VMEM] WARNING: physical memory size is smaller than virtual memory size.

*** ChampSim Multicore Out-of-Order Simulator ***
Warmup Instructions: 20000000
Simulation Instructions: 50000000
Number of CPUs: 1
Page size: 4096
Core 0: /data0/tzh/champsim_traces/SPEC06/429.mcf-184B.champsimtrace.xz
Off-chip DRAM Size: 4 GiB Channels: 1 Width: 64-bit Data Rate: 3205 MT/s
Warmup halting CPU 0 at instruction 20000000 cycle 5727941 for remainder of phase
Warmup finished CPU 0 instructions: 20000000 cycles: 5727941 cumulative IPC: 3.492 (Simulation time: 00 hr 01 min 14 sec)
Warmup complete CPU 0 instructions: 20000000 cycles: 5727941 cumulative IPC: 3.492 (Simulation time: 00 hr 01 min 14 sec)
Simulation finished CPU 0 instructions: 50000001 cycles: 430099483 cumulative IPC: 0.1163 (Simulation time: 00 hr 32 min 11 sec)
Simulation complete CPU 0 instructions: 50000001 cycles: 430099483 cumulative IPC: 0.1163 (Simulation time: 00 hr 32 min 11 sec)

ChampSim completed all CPUs

=== Simulation ===
CPU 0 runs /data0/tzh/champsim_traces/SPEC06/429.mcf-184B.champsimtrace.xz

Region of Interest Statistics

CPU 0 cumulative IPC: 0.1163 instructions: 50000001 cycles: 430099483
CPU 0 Branch Prediction Accuracy: 91.55% MPKI: 20.28 Average ROB Occupancy at Mispredict: 36.61
Branch type MPKI
BRANCH_DIRECT_JUMP: 0.2201
BRANCH_INDIRECT: 0
BRANCH_CONDITIONAL: 20.06
BRANCH_DIRECT_CALL: 0
BRANCH_INDIRECT_CALL: 0
BRANCH_RETURN: 0

cpu0->cpu0_STLB TOTAL        ACCESS:    6490884 HIT:    6206276 MISS:     284608 MSHR_MERGE:          0
cpu0->cpu0_STLB LOAD         ACCESS:    6490884 HIT:    6206276 MISS:     284608 MSHR_MERGE:          0
cpu0->cpu0_STLB RFO          ACCESS:          0 HIT:          0 MISS:          0 MSHR_MERGE:          0
cpu0->cpu0_STLB PREFETCH     ACCESS:          0 HIT:          0 MISS:          0 MSHR_MERGE:          0
cpu0->cpu0_STLB WRITE        ACCESS:          0 HIT:          0 MISS:          0 MSHR_MERGE:          0
cpu0->cpu0_STLB TRANSLATION  ACCESS:          0 HIT:          0 MISS:          0 MSHR_MERGE:          0
cpu0->cpu0_STLB PREFETCH REQUESTED:          0 ISSUED:          0 USEFUL:          0 USELESS:          0 LATE:          0
cpu0->cpu0_STLB AVERAGE MISS LATENCY: 130.6 cycles
cpu0->cpu0_L2C TOTAL        ACCESS:    7435067 HIT:    2275642 MISS:    5159425 MSHR_MERGE:          0
cpu0->cpu0_L2C LOAD         ACCESS:    6778335 HIT:    1828024 MISS:    4950311 MSHR_MERGE:          0
cpu0->cpu0_L2C RFO          ACCESS:      32566 HIT:      10409 MISS:      22157 MSHR_MERGE:          0
cpu0->cpu0_L2C PREFETCH     ACCESS:          0 HIT:          0 MISS:          0 MSHR_MERGE:          0
cpu0->cpu0_L2C WRITE        ACCESS:     331444 HIT:     331443 MISS:          1 MSHR_MERGE:          0
cpu0->cpu0_L2C TRANSLATION  ACCESS:     292722 HIT:     105766 MISS:     186956 MSHR_MERGE:          0
cpu0->cpu0_L2C PREFETCH REQUESTED:          0 ISSUED:          0 USEFUL:          0 USELESS:          0 LATE:          0
cpu0->cpu0_L2C AVERAGE MISS LATENCY: 141.4 cycles
cpu0->cpu0_L1I TOTAL        ACCESS:     266218 HIT:     266218 MISS:          0 MSHR_MERGE:          0
cpu0->cpu0_L1I LOAD         ACCESS:     266218 HIT:     266218 MISS:          0 MSHR_MERGE:          0
cpu0->cpu0_L1I RFO          ACCESS:          0 HIT:          0 MISS:          0 MSHR_MERGE:          0
cpu0->cpu0_L1I PREFETCH     ACCESS:          0 HIT:          0 MISS:          0 MSHR_MERGE:          0
cpu0->cpu0_L1I WRITE        ACCESS:          0 HIT:          0 MISS:          0 MSHR_MERGE:          0
cpu0->cpu0_L1I TRANSLATION  ACCESS:          0 HIT:          0 MISS:          0 MSHR_MERGE:          0
cpu0->cpu0_L1I PREFETCH REQUESTED:          0 ISSUED:          0 USEFUL:          0 USELESS:          0 LATE:          0
cpu0->cpu0_L1I AVERAGE MISS LATENCY: - cycles
cpu0->cpu0_L1D TOTAL        ACCESS:   13752878 HIT:    4652552 MISS:    9100326 MSHR_MERGE:    1996704
cpu0->cpu0_L1D LOAD         ACCESS:   12446177 HIT:    3679392 MISS:    8766785 MSHR_MERGE:    1988451
cpu0->cpu0_L1D RFO          ACCESS:          0 HIT:          0 MISS:          0 MSHR_MERGE:          0
cpu0->cpu0_L1D PREFETCH     ACCESS:          0 HIT:          0 MISS:          0 MSHR_MERGE:          0
cpu0->cpu0_L1D WRITE        ACCESS:     644402 HIT:     609339 MISS:      35063 MSHR_MERGE:       2497
cpu0->cpu0_L1D TRANSLATION  ACCESS:     662299 HIT:     363821 MISS:     298478 MSHR_MERGE:       5756
cpu0->cpu0_L1D PREFETCH REQUESTED:          0 ISSUED:          0 USEFUL:          0 USELESS:          0 LATE:          0
cpu0->cpu0_L1D AVERAGE MISS LATENCY: 111.4 cycles
cpu0->cpu0_ITLB TOTAL        ACCESS:     236154 HIT:     236154 MISS:          0 MSHR_MERGE:          0
cpu0->cpu0_ITLB LOAD         ACCESS:     236154 HIT:     236154 MISS:          0 MSHR_MERGE:          0
cpu0->cpu0_ITLB RFO          ACCESS:          0 HIT:          0 MISS:          0 MSHR_MERGE:          0
cpu0->cpu0_ITLB PREFETCH     ACCESS:          0 HIT:          0 MISS:          0 MSHR_MERGE:          0
cpu0->cpu0_ITLB WRITE        ACCESS:          0 HIT:          0 MISS:          0 MSHR_MERGE:          0
cpu0->cpu0_ITLB TRANSLATION  ACCESS:          0 HIT:          0 MISS:          0 MSHR_MERGE:          0
cpu0->cpu0_ITLB PREFETCH REQUESTED:          0 ISSUED:          0 USEFUL:          0 USELESS:          0 LATE:          0
cpu0->cpu0_ITLB AVERAGE MISS LATENCY: - cycles
cpu0->cpu0_DTLB TOTAL        ACCESS:   13030323 HIT:    4554261 MISS:    8476062 MSHR_MERGE:    1985178
cpu0->cpu0_DTLB LOAD         ACCESS:   13030323 HIT:    4554261 MISS:    8476062 MSHR_MERGE:    1985178
cpu0->cpu0_DTLB RFO          ACCESS:          0 HIT:          0 MISS:          0 MSHR_MERGE:          0
cpu0->cpu0_DTLB PREFETCH     ACCESS:          0 HIT:          0 MISS:          0 MSHR_MERGE:          0
cpu0->cpu0_DTLB WRITE        ACCESS:          0 HIT:          0 MISS:          0 MSHR_MERGE:          0
cpu0->cpu0_DTLB TRANSLATION  ACCESS:          0 HIT:          0 MISS:          0 MSHR_MERGE:          0
cpu0->cpu0_DTLB PREFETCH REQUESTED:          0 ISSUED:          0 USEFUL:          0 USELESS:          0 LATE:          0
cpu0->cpu0_DTLB AVERAGE MISS LATENCY: 10.77 cycles
cpu0->LLC TOTAL        ACCESS:    5424921 HIT:    1990825 MISS:    3434096 MSHR_MERGE:          0
cpu0->LLC LOAD         ACCESS:    4950311 HIT:    1748887 MISS:    3201424 MSHR_MERGE:          0
cpu0->LLC RFO          ACCESS:      22157 HIT:       8322 MISS:      13835 MSHR_MERGE:          0
cpu0->LLC PREFETCH     ACCESS:          0 HIT:          0 MISS:          0 MSHR_MERGE:          0
cpu0->LLC WRITE        ACCESS:     265497 HIT:     144156 MISS:     121341 MSHR_MERGE:          0
cpu0->LLC TRANSLATION  ACCESS:     186956 HIT:      89460 MISS:      97496 MSHR_MERGE:          0
cpu0->LLC PREFETCH REQUESTED:          0 ISSUED:          0 USEFUL:          0 USELESS:          0 LATE:          0
cpu0->LLC AVERAGE MISS LATENCY: 189.2 cycles

DRAM Statistics

Channel 0 RQ ROW_BUFFER_HIT:       2117
  ROW_BUFFER_MISS:    3310427
  AVG DBUS CONGESTED CYCLE: 12.21
Channel 0 WQ ROW_BUFFER_HIT:      61873
  ROW_BUFFER_MISS:     140957
  FULL:          0
Channel 0 REFRESHES ISSUED:      35841

[ROI Statistics]
[System Configuration]
num_cpus 1
cpu_freq 4000
fetch_width 6
decode_width 6
dispatch_width 6
execute_width 6
lq_width 2
sq_width 2
retire_width 6
scheduler_size 160
branch_mispredict_penalty 1
rob_size 352
lq_size 240
sq_size 112
ifetch_buffer_size 64
decode_buffer_size 32
dispatch_buffer_size 32
register_file_size 288
decode_latency 1
dispatch_latency 1
schedule_latency 0
execute_latency 0
page_size 4096
block_size 64
core_0_itlb_set 16
core_0_itlb_way 4
core_0_itlb_rq_size 16
core_0_itlb_wq_size 16
core_0_itlb_pq_size 0
core_0_itlb_mshr_size 8
core_0_itlb_hit_latency 1
core_0_itlb_fill_latency 1
core_0_itlb_max_tag_check 2
core_0_itlb_max_fill 2
core_0_dtlb_set 16
core_0_dtlb_way 4
core_0_dtlb_rq_size 16
core_0_dtlb_wq_size 16
core_0_dtlb_pq_size 0
core_0_dtlb_mshr_size 8
core_0_dtlb_hit_latency 1
core_0_dtlb_fill_latency 1
core_0_dtlb_max_tag_check 2
core_0_dtlb_max_fill 2
core_0_stlb_set 128
core_0_stlb_way 12
core_0_stlb_rq_size 32
core_0_stlb_wq_size 32
core_0_stlb_pq_size 0
core_0_stlb_mshr_size 16
core_0_stlb_hit_latency 4
core_0_stlb_fill_latency 4
core_0_stlb_max_tag_check 1
core_0_stlb_max_fill 1
core_0_l1i_set 64
core_0_l1i_way 8
core_0_l1i_rq_size 64
core_0_l1i_wq_size 64
core_0_l1i_pq_size 32
core_0_l1i_mshr_size 8
core_0_l1i_hit_latency 2
core_0_l1i_fill_latency 2
core_0_l1i_max_tag_check 2
core_0_l1i_max_fill 2
core_0_l1d_set 64
core_0_l1d_way 12
core_0_l1d_rq_size 64
core_0_l1d_wq_size 64
core_0_l1d_pq_size 8
core_0_l1d_mshr_size 16
core_0_l1d_hit_latency 2
core_0_l1d_fill_latency 3
core_0_l1d_max_tag_check 2
core_0_l1d_max_fill 2
core_0_l2c_set 1024
core_0_l2c_way 8
core_0_l2c_rq_size 32
core_0_l2c_wq_size 32
core_0_l2c_pq_size 16
core_0_l2c_mshr_size 32
core_0_l2c_hit_latency 5
core_0_l2c_fill_latency 5
core_0_l2c_max_tag_check 1
core_0_l2c_max_fill 1
llc_set 2048
llc_way 16
llc_rq_size 32
llc_wq_size 32
llc_pq_size 32
llc_mshr_size 64
llc_hit_latency 10
llc_fill_latency 10
llc_max_tag_check 1
llc_max_fill 1
dram_channels 1
dram_ranks 1
dram_bankgroups 8
dram_banks 4
dram_rows 16384
dram_columns 1024
dram_channel_width 8
dram_rq_size 64
dram_wq_size 64
dram_size 4294967296
core_0_itlb_prefetcher no
core_0_dtlb_prefetcher no
core_0_stlb_prefetcher no
core_0_l1i_prefetcher no
core_0_l1d_prefetcher no
core_0_l2c_prefetcher no
llc_prefetcher no
llc_replacement drrip

Core_0_instructions 50000001
Core_0_cycles 430099483
Core_0_IPC 0.116252
Core_0_branch_prediction_accuracy 91.5489
Core_0_branch_MPKI 20.2769
Core_0_average_ROB_occupancy_at_mispredict 36.6097

Core_0_ITLB_total_access 236154
Core_0_ITLB_total_hit 236154
Core_0_ITLB_total_miss 0
Core_0_ITLB_total_MPKI 0
Core_0_ITLB_total_miss_rate 0
Core_0_ITLB_demand_access 236154
Core_0_ITLB_demand_hit 236154
Core_0_ITLB_demand_miss 0
Core_0_ITLB_demand_MPKI 0
Core_0_ITLB_demand_miss_rate 0
Core_0_ITLB_load_access 236154
Core_0_ITLB_load_hit 236154
Core_0_ITLB_load_miss 0
Core_0_ITLB_load_MPKI 0
Core_0_ITLB_load_miss_rate 0
Core_0_ITLB_rfo_access 0
Core_0_ITLB_rfo_hit 0
Core_0_ITLB_rfo_miss 0
Core_0_ITLB_rfo_MPKI 0
Core_0_ITLB_rfo_miss_rate 0
Core_0_ITLB_prefetch_access 0
Core_0_ITLB_prefetch_hit 0
Core_0_ITLB_prefetch_miss 0
Core_0_ITLB_prefetch_MPKI 0
Core_0_ITLB_prefetch_miss_rate 0
Core_0_ITLB_writeback_access 0
Core_0_ITLB_writeback_hit 0
Core_0_ITLB_writeback_miss 0
Core_0_ITLB_writeback_MPKI 0
Core_0_ITLB_writeback_miss_rate 0
Core_0_ITLB_prefetch_requested 0
Core_0_ITLB_prefetch_issued 0
Core_0_ITLB_prefetch_useful 0
Core_0_ITLB_prefetch_useless 0
Core_0_ITLB_prefetch_late 0
Core_0_ITLB_prefetch_accuracy 0
Core_0_ITLB_prefetch_coverage 0

Core_0_DTLB_total_access 13030323
Core_0_DTLB_total_hit 4554261
Core_0_DTLB_total_miss 8476062
Core_0_DTLB_total_MPKI 169.521
Core_0_DTLB_total_miss_rate 0.650487
Core_0_DTLB_demand_access 13030323
Core_0_DTLB_demand_hit 4554261
Core_0_DTLB_demand_miss 8476062
Core_0_DTLB_demand_MPKI 169.521
Core_0_DTLB_demand_miss_rate 0.650487
Core_0_DTLB_load_access 13030323
Core_0_DTLB_load_hit 4554261
Core_0_DTLB_load_miss 8476062
Core_0_DTLB_load_MPKI 169.521
Core_0_DTLB_load_miss_rate 0.650487
Core_0_DTLB_rfo_access 0
Core_0_DTLB_rfo_hit 0
Core_0_DTLB_rfo_miss 0
Core_0_DTLB_rfo_MPKI 0
Core_0_DTLB_rfo_miss_rate 0
Core_0_DTLB_prefetch_access 0
Core_0_DTLB_prefetch_hit 0
Core_0_DTLB_prefetch_miss 0
Core_0_DTLB_prefetch_MPKI 0
Core_0_DTLB_prefetch_miss_rate 0
Core_0_DTLB_writeback_access 0
Core_0_DTLB_writeback_hit 0
Core_0_DTLB_writeback_miss 0
Core_0_DTLB_writeback_MPKI 0
Core_0_DTLB_writeback_miss_rate 0
Core_0_DTLB_prefetch_requested 0
Core_0_DTLB_prefetch_issued 0
Core_0_DTLB_prefetch_useful 0
Core_0_DTLB_prefetch_useless 0
Core_0_DTLB_prefetch_late 0
Core_0_DTLB_prefetch_accuracy 0
Core_0_DTLB_prefetch_coverage 0

Core_0_STLB_total_access 6490884
Core_0_STLB_total_hit 6206276
Core_0_STLB_total_miss 284608
Core_0_STLB_total_MPKI 5.69216
Core_0_STLB_total_miss_rate 0.0438473
Core_0_STLB_demand_access 6490884
Core_0_STLB_demand_hit 6206276
Core_0_STLB_demand_miss 284608
Core_0_STLB_demand_MPKI 5.69216
Core_0_STLB_demand_miss_rate 0.0438473
Core_0_STLB_load_access 6490884
Core_0_STLB_load_hit 6206276
Core_0_STLB_load_miss 284608
Core_0_STLB_load_MPKI 5.69216
Core_0_STLB_load_miss_rate 0.0438473
Core_0_STLB_rfo_access 0
Core_0_STLB_rfo_hit 0
Core_0_STLB_rfo_miss 0
Core_0_STLB_rfo_MPKI 0
Core_0_STLB_rfo_miss_rate 0
Core_0_STLB_prefetch_access 0
Core_0_STLB_prefetch_hit 0
Core_0_STLB_prefetch_miss 0
Core_0_STLB_prefetch_MPKI 0
Core_0_STLB_prefetch_miss_rate 0
Core_0_STLB_writeback_access 0
Core_0_STLB_writeback_hit 0
Core_0_STLB_writeback_miss 0
Core_0_STLB_writeback_MPKI 0
Core_0_STLB_writeback_miss_rate 0
Core_0_STLB_prefetch_requested 0
Core_0_STLB_prefetch_issued 0
Core_0_STLB_prefetch_useful 0
Core_0_STLB_prefetch_useless 0
Core_0_STLB_prefetch_late 0
Core_0_STLB_prefetch_accuracy 0
Core_0_STLB_prefetch_coverage 0

Core_0_L1I_total_access 266218
Core_0_L1I_total_hit 266218
Core_0_L1I_total_miss 0
Core_0_L1I_total_MPKI 0
Core_0_L1I_total_miss_rate 0
Core_0_L1I_demand_access 266218
Core_0_L1I_demand_hit 266218
Core_0_L1I_demand_miss 0
Core_0_L1I_demand_MPKI 0
Core_0_L1I_demand_miss_rate 0
Core_0_L1I_load_access 266218
Core_0_L1I_load_hit 266218
Core_0_L1I_load_miss 0
Core_0_L1I_load_MPKI 0
Core_0_L1I_load_miss_rate 0
Core_0_L1I_rfo_access 0
Core_0_L1I_rfo_hit 0
Core_0_L1I_rfo_miss 0
Core_0_L1I_rfo_MPKI 0
Core_0_L1I_rfo_miss_rate 0
Core_0_L1I_prefetch_access 0
Core_0_L1I_prefetch_hit 0
Core_0_L1I_prefetch_miss 0
Core_0_L1I_prefetch_MPKI 0
Core_0_L1I_prefetch_miss_rate 0
Core_0_L1I_writeback_access 0
Core_0_L1I_writeback_hit 0
Core_0_L1I_writeback_miss 0
Core_0_L1I_writeback_MPKI 0
Core_0_L1I_writeback_miss_rate 0
Core_0_L1I_prefetch_requested 0
Core_0_L1I_prefetch_issued 0
Core_0_L1I_prefetch_useful 0
Core_0_L1I_prefetch_useless 0
Core_0_L1I_prefetch_late 0
Core_0_L1I_prefetch_accuracy 0
Core_0_L1I_prefetch_coverage 0

Core_0_L1D_total_access 13090579
Core_0_L1D_total_hit 4288731
Core_0_L1D_total_miss 8801848
Core_0_L1D_total_MPKI 176.037
Core_0_L1D_total_miss_rate 0.67238
Core_0_L1D_demand_access 12446177
Core_0_L1D_demand_hit 3679392
Core_0_L1D_demand_miss 8766785
Core_0_L1D_demand_MPKI 175.336
Core_0_L1D_demand_miss_rate 0.704376
Core_0_L1D_load_access 12446177
Core_0_L1D_load_hit 3679392
Core_0_L1D_load_miss 8766785
Core_0_L1D_load_MPKI 175.336
Core_0_L1D_load_miss_rate 0.704376
Core_0_L1D_rfo_access 0
Core_0_L1D_rfo_hit 0
Core_0_L1D_rfo_miss 0
Core_0_L1D_rfo_MPKI 0
Core_0_L1D_rfo_miss_rate 0
Core_0_L1D_prefetch_access 0
Core_0_L1D_prefetch_hit 0
Core_0_L1D_prefetch_miss 0
Core_0_L1D_prefetch_MPKI 0
Core_0_L1D_prefetch_miss_rate 0
Core_0_L1D_writeback_access 644402
Core_0_L1D_writeback_hit 609339
Core_0_L1D_writeback_miss 35063
Core_0_L1D_writeback_MPKI 0.70126
Core_0_L1D_writeback_miss_rate 0.0544117
Core_0_L1D_prefetch_requested 0
Core_0_L1D_prefetch_issued 0
Core_0_L1D_prefetch_useful 0
Core_0_L1D_prefetch_useless 0
Core_0_L1D_prefetch_late 0
Core_0_L1D_prefetch_accuracy 0
Core_0_L1D_prefetch_coverage 0

Core_0_L2C_total_access 7142345
Core_0_L2C_total_hit 2169876
Core_0_L2C_total_miss 4972469
Core_0_L2C_total_MPKI 99.4494
Core_0_L2C_total_miss_rate 0.696196
Core_0_L2C_demand_access 6810901
Core_0_L2C_demand_hit 1838433
Core_0_L2C_demand_miss 4972468
Core_0_L2C_demand_MPKI 99.4494
Core_0_L2C_demand_miss_rate 0.730075
Core_0_L2C_load_access 6778335
Core_0_L2C_load_hit 1828024
Core_0_L2C_load_miss 4950311
Core_0_L2C_load_MPKI 99.0062
Core_0_L2C_load_miss_rate 0.730314
Core_0_L2C_rfo_access 32566
Core_0_L2C_rfo_hit 10409
Core_0_L2C_rfo_miss 22157
Core_0_L2C_rfo_MPKI 0.44314
Core_0_L2C_rfo_miss_rate 0.680372
Core_0_L2C_prefetch_access 0
Core_0_L2C_prefetch_hit 0
Core_0_L2C_prefetch_miss 0
Core_0_L2C_prefetch_MPKI 0
Core_0_L2C_prefetch_miss_rate 0
Core_0_L2C_writeback_access 331444
Core_0_L2C_writeback_hit 331443
Core_0_L2C_writeback_miss 1
Core_0_L2C_writeback_MPKI 2e-05
Core_0_L2C_writeback_miss_rate 3.0171e-06
Core_0_L2C_prefetch_requested 0
Core_0_L2C_prefetch_issued 0
Core_0_L2C_prefetch_useful 0
Core_0_L2C_prefetch_useless 0
Core_0_L2C_prefetch_late 0
Core_0_L2C_prefetch_accuracy 0
Core_0_L2C_prefetch_coverage 0

Core_0_LLC_total_access 5237965
Core_0_LLC_total_hit 1901365
Core_0_LLC_total_miss 3336600
Core_0_LLC_total_MPKI 66.732
Core_0_LLC_total_miss_rate 0.637003
Core_0_LLC_demand_access 4972468
Core_0_LLC_demand_hit 1757209
Core_0_LLC_demand_miss 3215259
Core_0_LLC_demand_MPKI 64.3052
Core_0_LLC_demand_miss_rate 0.646612
Core_0_LLC_load_access 4950311
Core_0_LLC_load_hit 1748887
Core_0_LLC_load_miss 3201424
Core_0_LLC_load_MPKI 64.0285
Core_0_LLC_load_miss_rate 0.646712
Core_0_LLC_rfo_access 22157
Core_0_LLC_rfo_hit 8322
Core_0_LLC_rfo_miss 13835
Core_0_LLC_rfo_MPKI 0.2767
Core_0_LLC_rfo_miss_rate 0.624408
Core_0_LLC_prefetch_access 0
Core_0_LLC_prefetch_hit 0
Core_0_LLC_prefetch_miss 0
Core_0_LLC_prefetch_MPKI 0
Core_0_LLC_prefetch_miss_rate 0
Core_0_LLC_writeback_access 265497
Core_0_LLC_writeback_hit 144156
Core_0_LLC_writeback_miss 121341
Core_0_LLC_writeback_MPKI 2.42682
Core_0_LLC_writeback_miss_rate 0.457033
Core_0_LLC_prefetch_requested 0
Core_0_LLC_prefetch_issued 0
Core_0_LLC_prefetch_useful 0
Core_0_LLC_prefetch_useless 0
Core_0_LLC_prefetch_late 0
Core_0_LLC_prefetch_accuracy 0
Core_0_LLC_prefetch_coverage 0

[DRAM Statistics]
Channel_0_RQ_row_buffer_hit 2117
Channel_0_RQ_row_buffer_miss 3310427
Channel_0_WQ_row_buffer_hit 61873
Channel_0_WQ_row_buffer_miss 140957
Channel_0_WQ_full 0
Channel_0_dbus_congested 6735059
DRAM_total_RQ_row_buffer_hit 2117
DRAM_total_RQ_row_buffer_miss 3310427
DRAM_total_WQ_row_buffer_hit 61873
DRAM_total_WQ_row_buffer_miss 140957
DRAM_total_WQ_full 0
DRAM_total_dbus_congested 6735059
DRAM_avg_congested_cycle 12.2063

======STLB miss causes ========
Core_0_STLB_miss_cause_breakdown
Core_0_STLB_cause_Demand_Data_miss 284608
Core_0_STLB_cause_Demand_Data_miss_rate 0.0438473
Core_0_STLB_cause_Demand_Instruction_miss 0
Core_0_STLB_cause_Demand_Instruction_miss_rate 0
Core_0_STLB_cause_L1D_Prefetch_miss 0
Core_0_STLB_cause_L1D_Prefetch_miss_rate 0
Core_0_STLB_cause_L1I_Prefetch_miss 0
Core_0_STLB_cause_L1I_Prefetch_miss_rate 0
Core_0_STLB_cause_Other_miss 0
Core_0_STLB_cause_Other_miss_rate 0
Core_0_STLB_Demand_miss 284608
Core_0_STLB_Demand_miss_rate 0.0438473
Core_0_STLB_L1D_Prefetch_miss 0
Core_0_STLB_L1D_Prefetch_miss_rate 0
Core_0_STLB_Other_miss 0
Core_0_STLB_Other_miss_rate 0
