[VMEM] WARNING: physical memory size is smaller than virtual memory size.

*** ChampSim Multicore Out-of-Order Simulator ***
Warmup Instructions: 20000000
Simulation Instructions: 50000000
Number of CPUs: 1
Page size: 4096
Core 0: /data0/tzh/champsim_traces/SPEC06/447.dealII-3B.champsimtrace.xz
Off-chip DRAM Size: 4 GiB Channels: 1 Width: 64-bit Data Rate: 3205 MT/s
Warmup halting CPU 0 at instruction 20000004 cycle 4066806 for remainder of phase
Warmup finished CPU 0 instructions: 20000004 cycles: 4066806 cumulative IPC: 4.918 (Simulation time: 00 hr 00 min 54 sec)
Warmup complete CPU 0 instructions: 20000004 cycles: 4066806 cumulative IPC: 4.918 (Simulation time: 00 hr 00 min 54 sec)
Simulation finished CPU 0 instructions: 50000000 cycles: 27299887 cumulative IPC: 1.832 (Simulation time: 00 hr 04 min 39 sec)
Simulation complete CPU 0 instructions: 50000000 cycles: 27299887 cumulative IPC: 1.832 (Simulation time: 00 hr 04 min 39 sec)

ChampSim completed all CPUs

=== Simulation ===
CPU 0 runs /data0/tzh/champsim_traces/SPEC06/447.dealII-3B.champsimtrace.xz

Region of Interest Statistics

CPU 0 cumulative IPC: 1.832 instructions: 50000000 cycles: 27299887
CPU 0 Branch Prediction Accuracy: 95.51% MPKI: 4.331 Average ROB Occupancy at Mispredict: 133.6
Branch type MPKI
BRANCH_DIRECT_JUMP: 0.00066
BRANCH_INDIRECT: 0.03488
BRANCH_CONDITIONAL: 4.294
BRANCH_DIRECT_CALL: 6e-05
BRANCH_INDIRECT_CALL: 0.00042
BRANCH_RETURN: 0.00086

cpu0->cpu0_STLB TOTAL        ACCESS:       4374 HIT:       4345 MISS:         29 MSHR_MERGE:          0
cpu0->cpu0_STLB LOAD         ACCESS:       4374 HIT:       4345 MISS:         29 MSHR_MERGE:          0
cpu0->cpu0_STLB RFO          ACCESS:          0 HIT:          0 MISS:          0 MSHR_MERGE:          0
cpu0->cpu0_STLB PREFETCH     ACCESS:          0 HIT:          0 MISS:          0 MSHR_MERGE:          0
cpu0->cpu0_STLB WRITE        ACCESS:          0 HIT:          0 MISS:          0 MSHR_MERGE:          0
cpu0->cpu0_STLB TRANSLATION  ACCESS:          0 HIT:          0 MISS:          0 MSHR_MERGE:          0
cpu0->cpu0_STLB PREFETCH REQUESTED:          0 ISSUED:          0 USEFUL:          0 USELESS:          0 LATE:          0
cpu0->cpu0_STLB AVERAGE MISS LATENCY: 223.2 cycles
cpu0->cpu0_L2C TOTAL        ACCESS:      69198 HIT:      67725 MISS:       1473 MSHR_MERGE:          0
cpu0->cpu0_L2C LOAD         ACCESS:      55564 HIT:      54110 MISS:       1454 MSHR_MERGE:          0
cpu0->cpu0_L2C RFO          ACCESS:       4949 HIT:       4935 MISS:         14 MSHR_MERGE:          0
cpu0->cpu0_L2C PREFETCH     ACCESS:          0 HIT:          0 MISS:          0 MSHR_MERGE:          0
cpu0->cpu0_L2C WRITE        ACCESS:       8667 HIT:       8667 MISS:          0 MSHR_MERGE:          0
cpu0->cpu0_L2C TRANSLATION  ACCESS:         18 HIT:         13 MISS:          5 MSHR_MERGE:          0
cpu0->cpu0_L2C PREFETCH REQUESTED:          0 ISSUED:          0 USEFUL:          0 USELESS:          0 LATE:          0
cpu0->cpu0_L2C AVERAGE MISS LATENCY: 158.1 cycles
cpu0->cpu0_L1I TOTAL        ACCESS:    1329921 HIT:    1329685 MISS:        236 MSHR_MERGE:         91
cpu0->cpu0_L1I LOAD         ACCESS:    1329921 HIT:    1329685 MISS:        236 MSHR_MERGE:         91
cpu0->cpu0_L1I RFO          ACCESS:          0 HIT:          0 MISS:          0 MSHR_MERGE:          0
cpu0->cpu0_L1I PREFETCH     ACCESS:          0 HIT:          0 MISS:          0 MSHR_MERGE:          0
cpu0->cpu0_L1I WRITE        ACCESS:          0 HIT:          0 MISS:          0 MSHR_MERGE:          0
cpu0->cpu0_L1I TRANSLATION  ACCESS:          0 HIT:          0 MISS:          0 MSHR_MERGE:          0
cpu0->cpu0_L1I PREFETCH REQUESTED:          0 ISSUED:          0 USEFUL:          0 USELESS:          0 LATE:          0
cpu0->cpu0_L1I AVERAGE MISS LATENCY: 189.3 cycles
cpu0->cpu0_L1D TOTAL        ACCESS:   18996281 HIT:   18908178 MISS:      88103 MSHR_MERGE:      27717
cpu0->cpu0_L1D LOAD         ACCESS:   12945592 HIT:   12879646 MISS:      65946 MSHR_MERGE:      10527
cpu0->cpu0_L1D RFO          ACCESS:          0 HIT:          0 MISS:          0 MSHR_MERGE:          0
cpu0->cpu0_L1D PREFETCH     ACCESS:          0 HIT:          0 MISS:          0 MSHR_MERGE:          0
cpu0->cpu0_L1D WRITE        ACCESS:    6050631 HIT:    6028492 MISS:      22139 MSHR_MERGE:      17190
cpu0->cpu0_L1D TRANSLATION  ACCESS:         58 HIT:         40 MISS:         18 MSHR_MERGE:          0
cpu0->cpu0_L1D PREFETCH REQUESTED:          0 ISSUED:          0 USEFUL:          0 USELESS:          0 LATE:          0
cpu0->cpu0_L1D AVERAGE MISS LATENCY: 11.45 cycles
cpu0->cpu0_ITLB TOTAL        ACCESS:    1149433 HIT:    1149412 MISS:         21 MSHR_MERGE:         15
cpu0->cpu0_ITLB LOAD         ACCESS:    1149433 HIT:    1149412 MISS:         21 MSHR_MERGE:         15
cpu0->cpu0_ITLB RFO          ACCESS:          0 HIT:          0 MISS:          0 MSHR_MERGE:          0
cpu0->cpu0_ITLB PREFETCH     ACCESS:          0 HIT:          0 MISS:          0 MSHR_MERGE:          0
cpu0->cpu0_ITLB WRITE        ACCESS:          0 HIT:          0 MISS:          0 MSHR_MERGE:          0
cpu0->cpu0_ITLB TRANSLATION  ACCESS:          0 HIT:          0 MISS:          0 MSHR_MERGE:          0
cpu0->cpu0_ITLB PREFETCH REQUESTED:          0 ISSUED:          0 USEFUL:          0 USELESS:          0 LATE:          0
cpu0->cpu0_ITLB AVERAGE MISS LATENCY: 151.3 cycles
cpu0->cpu0_DTLB TOTAL        ACCESS:   17570118 HIT:   17564797 MISS:       5321 MSHR_MERGE:        953
cpu0->cpu0_DTLB LOAD         ACCESS:   17570118 HIT:   17564797 MISS:       5321 MSHR_MERGE:        953
cpu0->cpu0_DTLB RFO          ACCESS:          0 HIT:          0 MISS:          0 MSHR_MERGE:          0
cpu0->cpu0_DTLB PREFETCH     ACCESS:          0 HIT:          0 MISS:          0 MSHR_MERGE:          0
cpu0->cpu0_DTLB WRITE        ACCESS:          0 HIT:          0 MISS:          0 MSHR_MERGE:          0
cpu0->cpu0_DTLB TRANSLATION  ACCESS:          0 HIT:          0 MISS:          0 MSHR_MERGE:          0
cpu0->cpu0_DTLB PREFETCH REQUESTED:          0 ISSUED:          0 USEFUL:          0 USELESS:          0 LATE:          0
cpu0->cpu0_DTLB AVERAGE MISS LATENCY: 6.288 cycles
cpu0->LLC TOTAL        ACCESS:       1502 HIT:        113 MISS:       1389 MSHR_MERGE:          0
cpu0->LLC LOAD         ACCESS:       1454 HIT:         67 MISS:       1387 MSHR_MERGE:          0
cpu0->LLC RFO          ACCESS:         14 HIT:         13 MISS:          1 MSHR_MERGE:          0
cpu0->LLC PREFETCH     ACCESS:          0 HIT:          0 MISS:          0 MSHR_MERGE:          0
cpu0->LLC WRITE        ACCESS:         29 HIT:         29 MISS:          0 MSHR_MERGE:          0
cpu0->LLC TRANSLATION  ACCESS:          5 HIT:          4 MISS:          1 MSHR_MERGE:          0
cpu0->LLC PREFETCH REQUESTED:          0 ISSUED:          0 USEFUL:          0 USELESS:          0 LATE:          0
cpu0->LLC AVERAGE MISS LATENCY: 150.8 cycles

DRAM Statistics

Channel 0 RQ ROW_BUFFER_HIT:          2
  ROW_BUFFER_MISS:       1387
  AVG DBUS CONGESTED CYCLE: 2.903
Channel 0 WQ ROW_BUFFER_HIT:          0
  ROW_BUFFER_MISS:          0
  FULL:          0
Channel 0 REFRESHES ISSUED:       2275

[ROI Statistics]
[System Configuration]
num_cpus 1
cpu_freq 4000
fetch_width 6
decode_width 6
dispatch_width 6
execute_width 6
lq_width 2
sq_width 2
retire_width 6
scheduler_size 160
branch_mispredict_penalty 1
rob_size 352
lq_size 240
sq_size 112
ifetch_buffer_size 64
decode_buffer_size 32
dispatch_buffer_size 32
register_file_size 288
decode_latency 1
dispatch_latency 1
schedule_latency 0
execute_latency 0
page_size 4096
block_size 64
core_0_itlb_set 16
core_0_itlb_way 4
core_0_itlb_rq_size 16
core_0_itlb_wq_size 16
core_0_itlb_pq_size 0
core_0_itlb_mshr_size 8
core_0_itlb_hit_latency 1
core_0_itlb_fill_latency 1
core_0_itlb_max_tag_check 2
core_0_itlb_max_fill 2
core_0_dtlb_set 16
core_0_dtlb_way 4
core_0_dtlb_rq_size 16
core_0_dtlb_wq_size 16
core_0_dtlb_pq_size 0
core_0_dtlb_mshr_size 8
core_0_dtlb_hit_latency 1
core_0_dtlb_fill_latency 1
core_0_dtlb_max_tag_check 2
core_0_dtlb_max_fill 2
core_0_stlb_set 128
core_0_stlb_way 12
core_0_stlb_rq_size 32
core_0_stlb_wq_size 32
core_0_stlb_pq_size 0
core_0_stlb_mshr_size 16
core_0_stlb_hit_latency 4
core_0_stlb_fill_latency 4
core_0_stlb_max_tag_check 1
core_0_stlb_max_fill 1
core_0_l1i_set 64
core_0_l1i_way 8
core_0_l1i_rq_size 64
core_0_l1i_wq_size 64
core_0_l1i_pq_size 32
core_0_l1i_mshr_size 8
core_0_l1i_hit_latency 2
core_0_l1i_fill_latency 2
core_0_l1i_max_tag_check 2
core_0_l1i_max_fill 2
core_0_l1d_set 64
core_0_l1d_way 12
core_0_l1d_rq_size 64
core_0_l1d_wq_size 64
core_0_l1d_pq_size 8
core_0_l1d_mshr_size 16
core_0_l1d_hit_latency 2
core_0_l1d_fill_latency 3
core_0_l1d_max_tag_check 2
core_0_l1d_max_fill 2
core_0_l2c_set 1024
core_0_l2c_way 8
core_0_l2c_rq_size 32
core_0_l2c_wq_size 32
core_0_l2c_pq_size 16
core_0_l2c_mshr_size 32
core_0_l2c_hit_latency 5
core_0_l2c_fill_latency 5
core_0_l2c_max_tag_check 1
core_0_l2c_max_fill 1
llc_set 2048
llc_way 16
llc_rq_size 32
llc_wq_size 32
llc_pq_size 32
llc_mshr_size 64
llc_hit_latency 10
llc_fill_latency 10
llc_max_tag_check 1
llc_max_fill 1
dram_channels 1
dram_ranks 1
dram_bankgroups 8
dram_banks 4
dram_rows 16384
dram_columns 1024
dram_channel_width 8
dram_rq_size 64
dram_wq_size 64
dram_size 4294967296
core_0_itlb_prefetcher no
core_0_dtlb_prefetcher no
core_0_stlb_prefetcher no
core_0_l1i_prefetcher no
core_0_l1d_prefetcher no
core_0_l2c_prefetcher no
llc_prefetcher no
llc_replacement drrip

Core_0_instructions 50000000
Core_0_cycles 27299887
Core_0_IPC 1.83151
Core_0_branch_prediction_accuracy 95.5113
Core_0_branch_MPKI 4.3313
Core_0_average_ROB_occupancy_at_mispredict 133.625

Core_0_ITLB_total_access 1149433
Core_0_ITLB_total_hit 1149412
Core_0_ITLB_total_miss 21
Core_0_ITLB_total_MPKI 0.00042
Core_0_ITLB_total_miss_rate 1.82699e-05
Core_0_ITLB_demand_access 1149433
Core_0_ITLB_demand_hit 1149412
Core_0_ITLB_demand_miss 21
Core_0_ITLB_demand_MPKI 0.00042
Core_0_ITLB_demand_miss_rate 1.82699e-05
Core_0_ITLB_load_access 1149433
Core_0_ITLB_load_hit 1149412
Core_0_ITLB_load_miss 21
Core_0_ITLB_load_MPKI 0.00042
Core_0_ITLB_load_miss_rate 1.82699e-05
Core_0_ITLB_rfo_access 0
Core_0_ITLB_rfo_hit 0
Core_0_ITLB_rfo_miss 0
Core_0_ITLB_rfo_MPKI 0
Core_0_ITLB_rfo_miss_rate 0
Core_0_ITLB_prefetch_access 0
Core_0_ITLB_prefetch_hit 0
Core_0_ITLB_prefetch_miss 0
Core_0_ITLB_prefetch_MPKI 0
Core_0_ITLB_prefetch_miss_rate 0
Core_0_ITLB_writeback_access 0
Core_0_ITLB_writeback_hit 0
Core_0_ITLB_writeback_miss 0
Core_0_ITLB_writeback_MPKI 0
Core_0_ITLB_writeback_miss_rate 0
Core_0_ITLB_prefetch_requested 0
Core_0_ITLB_prefetch_issued 0
Core_0_ITLB_prefetch_useful 0
Core_0_ITLB_prefetch_useless 0
Core_0_ITLB_prefetch_late 0
Core_0_ITLB_prefetch_accuracy 0
Core_0_ITLB_prefetch_coverage 0

Core_0_DTLB_total_access 17570118
Core_0_DTLB_total_hit 17564797
Core_0_DTLB_total_miss 5321
Core_0_DTLB_total_MPKI 0.10642
Core_0_DTLB_total_miss_rate 0.000302844
Core_0_DTLB_demand_access 17570118
Core_0_DTLB_demand_hit 17564797
Core_0_DTLB_demand_miss 5321
Core_0_DTLB_demand_MPKI 0.10642
Core_0_DTLB_demand_miss_rate 0.000302844
Core_0_DTLB_load_access 17570118
Core_0_DTLB_load_hit 17564797
Core_0_DTLB_load_miss 5321
Core_0_DTLB_load_MPKI 0.10642
Core_0_DTLB_load_miss_rate 0.000302844
Core_0_DTLB_rfo_access 0
Core_0_DTLB_rfo_hit 0
Core_0_DTLB_rfo_miss 0
Core_0_DTLB_rfo_MPKI 0
Core_0_DTLB_rfo_miss_rate 0
Core_0_DTLB_prefetch_access 0
Core_0_DTLB_prefetch_hit 0
Core_0_DTLB_prefetch_miss 0
Core_0_DTLB_prefetch_MPKI 0
Core_0_DTLB_prefetch_miss_rate 0
Core_0_DTLB_writeback_access 0
Core_0_DTLB_writeback_hit 0
Core_0_DTLB_writeback_miss 0
Core_0_DTLB_writeback_MPKI 0
Core_0_DTLB_writeback_miss_rate 0
Core_0_DTLB_prefetch_requested 0
Core_0_DTLB_prefetch_issued 0
Core_0_DTLB_prefetch_useful 0
Core_0_DTLB_prefetch_useless 0
Core_0_DTLB_prefetch_late 0
Core_0_DTLB_prefetch_accuracy 0
Core_0_DTLB_prefetch_coverage 0

Core_0_STLB_total_access 4374
Core_0_STLB_total_hit 4345
Core_0_STLB_total_miss 29
Core_0_STLB_total_MPKI 0.00058
Core_0_STLB_total_miss_rate 0.00663009
Core_0_STLB_demand_access 4374
Core_0_STLB_demand_hit 4345
Core_0_STLB_demand_miss 29
Core_0_STLB_demand_MPKI 0.00058
Core_0_STLB_demand_miss_rate 0.00663009
Core_0_STLB_load_access 4374
Core_0_STLB_load_hit 4345
Core_0_STLB_load_miss 29
Core_0_STLB_load_MPKI 0.00058
Core_0_STLB_load_miss_rate 0.00663009
Core_0_STLB_rfo_access 0
Core_0_STLB_rfo_hit 0
Core_0_STLB_rfo_miss 0
Core_0_STLB_rfo_MPKI 0
Core_0_STLB_rfo_miss_rate 0
Core_0_STLB_prefetch_access 0
Core_0_STLB_prefetch_hit 0
Core_0_STLB_prefetch_miss 0
Core_0_STLB_prefetch_MPKI 0
Core_0_STLB_prefetch_miss_rate 0
Core_0_STLB_writeback_access 0
Core_0_STLB_writeback_hit 0
Core_0_STLB_writeback_miss 0
Core_0_STLB_writeback_MPKI 0
Core_0_STLB_writeback_miss_rate 0
Core_0_STLB_prefetch_requested 0
Core_0_STLB_prefetch_issued 0
Core_0_STLB_prefetch_useful 0
Core_0_STLB_prefetch_useless 0
Core_0_STLB_prefetch_late 0
Core_0_STLB_prefetch_accuracy 0
Core_0_STLB_prefetch_coverage 0

Core_0_L1I_total_access 1329921
Core_0_L1I_total_hit 1329685
Core_0_L1I_total_miss 236
Core_0_L1I_total_MPKI 0.00472
Core_0_L1I_total_miss_rate 0.000177454
Core_0_L1I_demand_access 1329921
Core_0_L1I_demand_hit 1329685
Core_0_L1I_demand_miss 236
Core_0_L1I_demand_MPKI 0.00472
Core_0_L1I_demand_miss_rate 0.000177454
Core_0_L1I_load_access 1329921
Core_0_L1I_load_hit 1329685
Core_0_L1I_load_miss 236
Core_0_L1I_load_MPKI 0.00472
Core_0_L1I_load_miss_rate 0.000177454
Core_0_L1I_rfo_access 0
Core_0_L1I_rfo_hit 0
Core_0_L1I_rfo_miss 0
Core_0_L1I_rfo_MPKI 0
Core_0_L1I_rfo_miss_rate 0
Core_0_L1I_prefetch_access 0
Core_0_L1I_prefetch_hit 0
Core_0_L1I_prefetch_miss 0
Core_0_L1I_prefetch_MPKI 0
Core_0_L1I_prefetch_miss_rate 0
Core_0_L1I_writeback_access 0
Core_0_L1I_writeback_hit 0
Core_0_L1I_writeback_miss 0
Core_0_L1I_writeback_MPKI 0
Core_0_L1I_writeback_miss_rate 0
Core_0_L1I_prefetch_requested 0
Core_0_L1I_prefetch_issued 0
Core_0_L1I_prefetch_useful 0
Core_0_L1I_prefetch_useless 0
Core_0_L1I_prefetch_late 0
Core_0_L1I_prefetch_accuracy 0
Core_0_L1I_prefetch_coverage 0

Core_0_L1D_total_access 18996223
Core_0_L1D_total_hit 18908138
Core_0_L1D_total_miss 88085
Core_0_L1D_total_MPKI 1.7617
Core_0_L1D_total_miss_rate 0.00463697
Core_0_L1D_demand_access 12945592
Core_0_L1D_demand_hit 12879646
Core_0_L1D_demand_miss 65946
Core_0_L1D_demand_MPKI 1.31892
Core_0_L1D_demand_miss_rate 0.00509409
Core_0_L1D_load_access 12945592
Core_0_L1D_load_hit 12879646
Core_0_L1D_load_miss 65946
Core_0_L1D_load_MPKI 1.31892
Core_0_L1D_load_miss_rate 0.00509409
Core_0_L1D_rfo_access 0
Core_0_L1D_rfo_hit 0
Core_0_L1D_rfo_miss 0
Core_0_L1D_rfo_MPKI 0
Core_0_L1D_rfo_miss_rate 0
Core_0_L1D_prefetch_access 0
Core_0_L1D_prefetch_hit 0
Core_0_L1D_prefetch_miss 0
Core_0_L1D_prefetch_MPKI 0
Core_0_L1D_prefetch_miss_rate 0
Core_0_L1D_writeback_access 6050631
Core_0_L1D_writeback_hit 6028492
Core_0_L1D_writeback_miss 22139
Core_0_L1D_writeback_MPKI 0.44278
Core_0_L1D_writeback_miss_rate 0.00365896
Core_0_L1D_prefetch_requested 0
Core_0_L1D_prefetch_issued 0
Core_0_L1D_prefetch_useful 0
Core_0_L1D_prefetch_useless 0
Core_0_L1D_prefetch_late 0
Core_0_L1D_prefetch_accuracy 0
Core_0_L1D_prefetch_coverage 0

Core_0_L2C_total_access 69180
Core_0_L2C_total_hit 67712
Core_0_L2C_total_miss 1468
Core_0_L2C_total_MPKI 0.02936
Core_0_L2C_total_miss_rate 0.02122
Core_0_L2C_demand_access 60513
Core_0_L2C_demand_hit 59045
Core_0_L2C_demand_miss 1468
Core_0_L2C_demand_MPKI 0.02936
Core_0_L2C_demand_miss_rate 0.0242593
Core_0_L2C_load_access 55564
Core_0_L2C_load_hit 54110
Core_0_L2C_load_miss 1454
Core_0_L2C_load_MPKI 0.02908
Core_0_L2C_load_miss_rate 0.026168
Core_0_L2C_rfo_access 4949
Core_0_L2C_rfo_hit 4935
Core_0_L2C_rfo_miss 14
Core_0_L2C_rfo_MPKI 0.00028
Core_0_L2C_rfo_miss_rate 0.00282885
Core_0_L2C_prefetch_access 0
Core_0_L2C_prefetch_hit 0
Core_0_L2C_prefetch_miss 0
Core_0_L2C_prefetch_MPKI 0
Core_0_L2C_prefetch_miss_rate 0
Core_0_L2C_writeback_access 8667
Core_0_L2C_writeback_hit 8667
Core_0_L2C_writeback_miss 0
Core_0_L2C_writeback_MPKI 0
Core_0_L2C_writeback_miss_rate 0
Core_0_L2C_prefetch_requested 0
Core_0_L2C_prefetch_issued 0
Core_0_L2C_prefetch_useful 0
Core_0_L2C_prefetch_useless 0
Core_0_L2C_prefetch_late 0
Core_0_L2C_prefetch_accuracy 0
Core_0_L2C_prefetch_coverage 0

Core_0_LLC_total_access 1497
Core_0_LLC_total_hit 109
Core_0_LLC_total_miss 1388
Core_0_LLC_total_MPKI 0.02776
Core_0_LLC_total_miss_rate 0.927188
Core_0_LLC_demand_access 1468
Core_0_LLC_demand_hit 80
Core_0_LLC_demand_miss 1388
Core_0_LLC_demand_MPKI 0.02776
Core_0_LLC_demand_miss_rate 0.945504
Core_0_LLC_load_access 1454
Core_0_LLC_load_hit 67
Core_0_LLC_load_miss 1387
Core_0_LLC_load_MPKI 0.02774
Core_0_LLC_load_miss_rate 0.95392
Core_0_LLC_rfo_access 14
Core_0_LLC_rfo_hit 13
Core_0_LLC_rfo_miss 1
Core_0_LLC_rfo_MPKI 2e-05
Core_0_LLC_rfo_miss_rate 0.0714286
Core_0_LLC_prefetch_access 0
Core_0_LLC_prefetch_hit 0
Core_0_LLC_prefetch_miss 0
Core_0_LLC_prefetch_MPKI 0
Core_0_LLC_prefetch_miss_rate 0
Core_0_LLC_writeback_access 29
Core_0_LLC_writeback_hit 29
Core_0_LLC_writeback_miss 0
Core_0_LLC_writeback_MPKI 0
Core_0_LLC_writeback_miss_rate 0
Core_0_LLC_prefetch_requested 0
Core_0_LLC_prefetch_issued 0
Core_0_LLC_prefetch_useful 0
Core_0_LLC_prefetch_useless 0
Core_0_LLC_prefetch_late 0
Core_0_LLC_prefetch_accuracy 0
Core_0_LLC_prefetch_coverage 0

[DRAM Statistics]
Channel_0_RQ_row_buffer_hit 2
Channel_0_RQ_row_buffer_miss 1387
Channel_0_WQ_row_buffer_hit 0
Channel_0_WQ_row_buffer_miss 0
Channel_0_WQ_full 0
Channel_0_dbus_congested 290
DRAM_total_RQ_row_buffer_hit 2
DRAM_total_RQ_row_buffer_miss 1387
DRAM_total_WQ_row_buffer_hit 0
DRAM_total_WQ_row_buffer_miss 0
DRAM_total_WQ_full 0
DRAM_total_dbus_congested 290
DRAM_avg_congested_cycle 2.90345

======STLB miss causes ========
Core_0_STLB_miss_cause_breakdown
Core_0_STLB_cause_Demand_Data_miss 25
Core_0_STLB_cause_Demand_Data_miss_rate 0.00571559
Core_0_STLB_cause_Demand_Instruction_miss 4
Core_0_STLB_cause_Demand_Instruction_miss_rate 0.000914495
Core_0_STLB_cause_L1D_Prefetch_miss 0
Core_0_STLB_cause_L1D_Prefetch_miss_rate 0
Core_0_STLB_cause_L1I_Prefetch_miss 0
Core_0_STLB_cause_L1I_Prefetch_miss_rate 0
Core_0_STLB_cause_Other_miss 0
Core_0_STLB_cause_Other_miss_rate 0
Core_0_STLB_Demand_miss 29
Core_0_STLB_Demand_miss_rate 0.00663009
Core_0_STLB_L1D_Prefetch_miss 0
Core_0_STLB_L1D_Prefetch_miss_rate 0
Core_0_STLB_Other_miss 0
Core_0_STLB_Other_miss_rate 0
