[VMEM] WARNING: physical memory size is smaller than virtual memory size.

*** ChampSim Multicore Out-of-Order Simulator ***
Warmup Instructions: 20000000
Simulation Instructions: 50000000
Number of CPUs: 1
Page size: 4096
Core 0: /data0/tzh/champsim_traces/SPEC06/483.xalancbmk-716B.champsimtrace.xz
Off-chip DRAM Size: 4 GiB Channels: 1 Width: 64-bit Data Rate: 3205 MT/s
Warmup halting CPU 0 at instruction 20000005 cycle 4231011 for remainder of phase
Warmup finished CPU 0 instructions: 20000005 cycles: 4231011 cumulative IPC: 4.727 (Simulation time: 00 hr 00 min 44 sec)
Warmup complete CPU 0 instructions: 20000005 cycles: 4231011 cumulative IPC: 4.727 (Simulation time: 00 hr 00 min 44 sec)
Simulation finished CPU 0 instructions: 50000001 cycles: 33571824 cumulative IPC: 1.489 (Simulation time: 00 hr 04 min 44 sec)
Simulation complete CPU 0 instructions: 50000001 cycles: 33571824 cumulative IPC: 1.489 (Simulation time: 00 hr 04 min 44 sec)

ChampSim completed all CPUs

=== Simulation ===
CPU 0 runs /data0/tzh/champsim_traces/SPEC06/483.xalancbmk-716B.champsimtrace.xz

Region of Interest Statistics

CPU 0 cumulative IPC: 1.489 instructions: 50000001 cycles: 33571824
CPU 0 Branch Prediction Accuracy: 97.29% MPKI: 7.098 Average ROB Occupancy at Mispredict: 44.85
Branch type MPKI
BRANCH_DIRECT_JUMP: 0.0076
BRANCH_INDIRECT: 0.2231
BRANCH_CONDITIONAL: 5.045
BRANCH_DIRECT_CALL: 0.08324
BRANCH_INDIRECT_CALL: 0.3313
BRANCH_RETURN: 1.407

cpu0->cpu0_STLB TOTAL        ACCESS:     382346 HIT:     330658 MISS:      51688 MSHR_MERGE:          0
cpu0->cpu0_STLB LOAD         ACCESS:     382346 HIT:     330658 MISS:      51688 MSHR_MERGE:          0
cpu0->cpu0_STLB RFO          ACCESS:          0 HIT:          0 MISS:          0 MSHR_MERGE:          0
cpu0->cpu0_STLB PREFETCH     ACCESS:          0 HIT:          0 MISS:          0 MSHR_MERGE:          0
cpu0->cpu0_STLB WRITE        ACCESS:          0 HIT:          0 MISS:          0 MSHR_MERGE:          0
cpu0->cpu0_STLB TRANSLATION  ACCESS:          0 HIT:          0 MISS:          0 MSHR_MERGE:          0
cpu0->cpu0_STLB PREFETCH REQUESTED:          0 ISSUED:          0 USEFUL:          0 USELESS:          0 LATE:          0
cpu0->cpu0_STLB AVERAGE MISS LATENCY: 139.4 cycles
cpu0->cpu0_L2C TOTAL        ACCESS:     469145 HIT:     300931 MISS:     168214 MSHR_MERGE:          0
cpu0->cpu0_L2C LOAD         ACCESS:     253846 HIT:     165493 MISS:      88353 MSHR_MERGE:          0
cpu0->cpu0_L2C RFO          ACCESS:      52966 HIT:       4044 MISS:      48922 MSHR_MERGE:          0
cpu0->cpu0_L2C PREFETCH     ACCESS:          0 HIT:          0 MISS:          0 MSHR_MERGE:          0
cpu0->cpu0_L2C WRITE        ACCESS:     112637 HIT:     112437 MISS:        200 MSHR_MERGE:          0
cpu0->cpu0_L2C TRANSLATION  ACCESS:      49696 HIT:      18957 MISS:      30739 MSHR_MERGE:          0
cpu0->cpu0_L2C PREFETCH REQUESTED:          0 ISSUED:          0 USEFUL:          0 USELESS:          0 LATE:          0
cpu0->cpu0_L2C AVERAGE MISS LATENCY: 136 cycles
cpu0->cpu0_L1I TOTAL        ACCESS:    4778653 HIT:    4775867 MISS:       2786 MSHR_MERGE:        495
cpu0->cpu0_L1I LOAD         ACCESS:    4778653 HIT:    4775867 MISS:       2786 MSHR_MERGE:        495
cpu0->cpu0_L1I RFO          ACCESS:          0 HIT:          0 MISS:          0 MSHR_MERGE:          0
cpu0->cpu0_L1I PREFETCH     ACCESS:          0 HIT:          0 MISS:          0 MSHR_MERGE:          0
cpu0->cpu0_L1I WRITE        ACCESS:          0 HIT:          0 MISS:          0 MSHR_MERGE:          0
cpu0->cpu0_L1I TRANSLATION  ACCESS:          0 HIT:          0 MISS:          0 MSHR_MERGE:          0
cpu0->cpu0_L1I PREFETCH REQUESTED:          0 ISSUED:          0 USEFUL:          0 USELESS:          0 LATE:          0
cpu0->cpu0_L1I AVERAGE MISS LATENCY: 163.1 cycles
cpu0->cpu0_L1D TOTAL        ACCESS:   12272410 HIT:   11442983 MISS:     829427 MSHR_MERGE:     475210
cpu0->cpu0_L1D LOAD         ACCESS:    8670144 HIT:    8207709 MISS:     462435 MSHR_MERGE:     210880
cpu0->cpu0_L1D RFO          ACCESS:          0 HIT:          0 MISS:          0 MSHR_MERGE:          0
cpu0->cpu0_L1D PREFETCH     ACCESS:          0 HIT:          0 MISS:          0 MSHR_MERGE:          0
cpu0->cpu0_L1D WRITE        ACCESS:    3475595 HIT:    3159211 MISS:     316384 MSHR_MERGE:     263418
cpu0->cpu0_L1D TRANSLATION  ACCESS:     126671 HIT:      76063 MISS:      50608 MSHR_MERGE:        912
cpu0->cpu0_L1D PREFETCH REQUESTED:          0 ISSUED:          0 USEFUL:          0 USELESS:          0 LATE:          0
cpu0->cpu0_L1D AVERAGE MISS LATENCY: 72.15 cycles
cpu0->cpu0_ITLB TOTAL        ACCESS:    4580755 HIT:    4579909 MISS:        846 MSHR_MERGE:        333
cpu0->cpu0_ITLB LOAD         ACCESS:    4580755 HIT:    4579909 MISS:        846 MSHR_MERGE:        333
cpu0->cpu0_ITLB RFO          ACCESS:          0 HIT:          0 MISS:          0 MSHR_MERGE:          0
cpu0->cpu0_ITLB PREFETCH     ACCESS:          0 HIT:          0 MISS:          0 MSHR_MERGE:          0
cpu0->cpu0_ITLB WRITE        ACCESS:          0 HIT:          0 MISS:          0 MSHR_MERGE:          0
cpu0->cpu0_ITLB TRANSLATION  ACCESS:          0 HIT:          0 MISS:          0 MSHR_MERGE:          0
cpu0->cpu0_ITLB PREFETCH REQUESTED:          0 ISSUED:          0 USEFUL:          0 USELESS:          0 LATE:          0
cpu0->cpu0_ITLB AVERAGE MISS LATENCY: 99.3 cycles
cpu0->cpu0_DTLB TOTAL        ACCESS:   11733367 HIT:   11074380 MISS:     658987 MSHR_MERGE:     277154
cpu0->cpu0_DTLB LOAD         ACCESS:   11733367 HIT:   11074380 MISS:     658987 MSHR_MERGE:     277154
cpu0->cpu0_DTLB RFO          ACCESS:          0 HIT:          0 MISS:          0 MSHR_MERGE:          0
cpu0->cpu0_DTLB PREFETCH     ACCESS:          0 HIT:          0 MISS:          0 MSHR_MERGE:          0
cpu0->cpu0_DTLB WRITE        ACCESS:          0 HIT:          0 MISS:          0 MSHR_MERGE:          0
cpu0->cpu0_DTLB TRANSLATION  ACCESS:          0 HIT:          0 MISS:          0 MSHR_MERGE:          0
cpu0->cpu0_DTLB PREFETCH REQUESTED:          0 ISSUED:          0 USEFUL:          0 USELESS:          0 LATE:          0
cpu0->cpu0_DTLB AVERAGE MISS LATENCY: 23.88 cycles
cpu0->LLC TOTAL        ACCESS:     264500 HIT:     140566 MISS:     123934 MSHR_MERGE:          0
cpu0->LLC LOAD         ACCESS:      88353 HIT:      32724 MISS:      55629 MSHR_MERGE:          0
cpu0->LLC RFO          ACCESS:      48922 HIT:       8765 MISS:      40157 MSHR_MERGE:          0
cpu0->LLC PREFETCH     ACCESS:          0 HIT:          0 MISS:          0 MSHR_MERGE:          0
cpu0->LLC WRITE        ACCESS:      96486 HIT:      81923 MISS:      14563 MSHR_MERGE:          0
cpu0->LLC TRANSLATION  ACCESS:      30739 HIT:      17154 MISS:      13585 MSHR_MERGE:          0
cpu0->LLC PREFETCH REQUESTED:          0 ISSUED:          0 USEFUL:          0 USELESS:          0 LATE:          0
cpu0->LLC AVERAGE MISS LATENCY: 164.4 cycles

DRAM Statistics

Channel 0 RQ ROW_BUFFER_HIT:        838
  ROW_BUFFER_MISS:     108521
  AVG DBUS CONGESTED CYCLE: 14.52
Channel 0 WQ ROW_BUFFER_HIT:      10771
  ROW_BUFFER_MISS:      44872
  FULL:          0
Channel 0 REFRESHES ISSUED:       2798

[ROI Statistics]
[System Configuration]
num_cpus 1
cpu_freq 4000
fetch_width 6
decode_width 6
dispatch_width 6
execute_width 6
lq_width 2
sq_width 2
retire_width 6
scheduler_size 160
branch_mispredict_penalty 1
rob_size 352
lq_size 240
sq_size 112
ifetch_buffer_size 64
decode_buffer_size 32
dispatch_buffer_size 32
register_file_size 288
decode_latency 1
dispatch_latency 1
schedule_latency 0
execute_latency 0
page_size 4096
block_size 64
core_0_itlb_set 16
core_0_itlb_way 4
core_0_itlb_rq_size 16
core_0_itlb_wq_size 16
core_0_itlb_pq_size 0
core_0_itlb_mshr_size 8
core_0_itlb_hit_latency 1
core_0_itlb_fill_latency 1
core_0_itlb_max_tag_check 2
core_0_itlb_max_fill 2
core_0_dtlb_set 16
core_0_dtlb_way 4
core_0_dtlb_rq_size 16
core_0_dtlb_wq_size 16
core_0_dtlb_pq_size 0
core_0_dtlb_mshr_size 8
core_0_dtlb_hit_latency 1
core_0_dtlb_fill_latency 1
core_0_dtlb_max_tag_check 2
core_0_dtlb_max_fill 2
core_0_stlb_set 128
core_0_stlb_way 12
core_0_stlb_rq_size 32
core_0_stlb_wq_size 32
core_0_stlb_pq_size 0
core_0_stlb_mshr_size 16
core_0_stlb_hit_latency 4
core_0_stlb_fill_latency 4
core_0_stlb_max_tag_check 1
core_0_stlb_max_fill 1
core_0_l1i_set 64
core_0_l1i_way 8
core_0_l1i_rq_size 64
core_0_l1i_wq_size 64
core_0_l1i_pq_size 32
core_0_l1i_mshr_size 8
core_0_l1i_hit_latency 2
core_0_l1i_fill_latency 2
core_0_l1i_max_tag_check 2
core_0_l1i_max_fill 2
core_0_l1d_set 64
core_0_l1d_way 12
core_0_l1d_rq_size 64
core_0_l1d_wq_size 64
core_0_l1d_pq_size 8
core_0_l1d_mshr_size 16
core_0_l1d_hit_latency 2
core_0_l1d_fill_latency 3
core_0_l1d_max_tag_check 2
core_0_l1d_max_fill 2
core_0_l2c_set 1024
core_0_l2c_way 8
core_0_l2c_rq_size 32
core_0_l2c_wq_size 32
core_0_l2c_pq_size 16
core_0_l2c_mshr_size 32
core_0_l2c_hit_latency 5
core_0_l2c_fill_latency 5
core_0_l2c_max_tag_check 1
core_0_l2c_max_fill 1
llc_set 2048
llc_way 16
llc_rq_size 32
llc_wq_size 32
llc_pq_size 32
llc_mshr_size 64
llc_hit_latency 10
llc_fill_latency 10
llc_max_tag_check 1
llc_max_fill 1
dram_channels 1
dram_ranks 1
dram_bankgroups 8
dram_banks 4
dram_rows 16384
dram_columns 1024
dram_channel_width 8
dram_rq_size 64
dram_wq_size 64
dram_size 4294967296
core_0_itlb_prefetcher no
core_0_dtlb_prefetcher no
core_0_stlb_prefetcher no
core_0_l1i_prefetcher no
core_0_l1d_prefetcher no
core_0_l2c_prefetcher no
llc_prefetcher no
llc_replacement drrip

Core_0_instructions 50000001
Core_0_cycles 33571824
Core_0_IPC 1.48934
Core_0_branch_prediction_accuracy 97.294
Core_0_branch_MPKI 7.09792
Core_0_average_ROB_occupancy_at_mispredict 44.8463

Core_0_ITLB_total_access 4580755
Core_0_ITLB_total_hit 4579909
Core_0_ITLB_total_miss 846
Core_0_ITLB_total_MPKI 0.01692
Core_0_ITLB_total_miss_rate 0.000184686
Core_0_ITLB_demand_access 4580755
Core_0_ITLB_demand_hit 4579909
Core_0_ITLB_demand_miss 846
Core_0_ITLB_demand_MPKI 0.01692
Core_0_ITLB_demand_miss_rate 0.000184686
Core_0_ITLB_load_access 4580755
Core_0_ITLB_load_hit 4579909
Core_0_ITLB_load_miss 846
Core_0_ITLB_load_MPKI 0.01692
Core_0_ITLB_load_miss_rate 0.000184686
Core_0_ITLB_rfo_access 0
Core_0_ITLB_rfo_hit 0
Core_0_ITLB_rfo_miss 0
Core_0_ITLB_rfo_MPKI 0
Core_0_ITLB_rfo_miss_rate 0
Core_0_ITLB_prefetch_access 0
Core_0_ITLB_prefetch_hit 0
Core_0_ITLB_prefetch_miss 0
Core_0_ITLB_prefetch_MPKI 0
Core_0_ITLB_prefetch_miss_rate 0
Core_0_ITLB_writeback_access 0
Core_0_ITLB_writeback_hit 0
Core_0_ITLB_writeback_miss 0
Core_0_ITLB_writeback_MPKI 0
Core_0_ITLB_writeback_miss_rate 0
Core_0_ITLB_prefetch_requested 0
Core_0_ITLB_prefetch_issued 0
Core_0_ITLB_prefetch_useful 0
Core_0_ITLB_prefetch_useless 0
Core_0_ITLB_prefetch_late 0
Core_0_ITLB_prefetch_accuracy 0
Core_0_ITLB_prefetch_coverage 0

Core_0_DTLB_total_access 11733367
Core_0_DTLB_total_hit 11074380
Core_0_DTLB_total_miss 658987
Core_0_DTLB_total_MPKI 13.1797
Core_0_DTLB_total_miss_rate 0.0561635
Core_0_DTLB_demand_access 11733367
Core_0_DTLB_demand_hit 11074380
Core_0_DTLB_demand_miss 658987
Core_0_DTLB_demand_MPKI 13.1797
Core_0_DTLB_demand_miss_rate 0.0561635
Core_0_DTLB_load_access 11733367
Core_0_DTLB_load_hit 11074380
Core_0_DTLB_load_miss 658987
Core_0_DTLB_load_MPKI 13.1797
Core_0_DTLB_load_miss_rate 0.0561635
Core_0_DTLB_rfo_access 0
Core_0_DTLB_rfo_hit 0
Core_0_DTLB_rfo_miss 0
Core_0_DTLB_rfo_MPKI 0
Core_0_DTLB_rfo_miss_rate 0
Core_0_DTLB_prefetch_access 0
Core_0_DTLB_prefetch_hit 0
Core_0_DTLB_prefetch_miss 0
Core_0_DTLB_prefetch_MPKI 0
Core_0_DTLB_prefetch_miss_rate 0
Core_0_DTLB_writeback_access 0
Core_0_DTLB_writeback_hit 0
Core_0_DTLB_writeback_miss 0
Core_0_DTLB_writeback_MPKI 0
Core_0_DTLB_writeback_miss_rate 0
Core_0_DTLB_prefetch_requested 0
Core_0_DTLB_prefetch_issued 0
Core_0_DTLB_prefetch_useful 0
Core_0_DTLB_prefetch_useless 0
Core_0_DTLB_prefetch_late 0
Core_0_DTLB_prefetch_accuracy 0
Core_0_DTLB_prefetch_coverage 0

Core_0_STLB_total_access 382346
Core_0_STLB_total_hit 330658
Core_0_STLB_total_miss 51688
Core_0_STLB_total_MPKI 1.03376
Core_0_STLB_total_miss_rate 0.135186
Core_0_STLB_demand_access 382346
Core_0_STLB_demand_hit 330658
Core_0_STLB_demand_miss 51688
Core_0_STLB_demand_MPKI 1.03376
Core_0_STLB_demand_miss_rate 0.135186
Core_0_STLB_load_access 382346
Core_0_STLB_load_hit 330658
Core_0_STLB_load_miss 51688
Core_0_STLB_load_MPKI 1.03376
Core_0_STLB_load_miss_rate 0.135186
Core_0_STLB_rfo_access 0
Core_0_STLB_rfo_hit 0
Core_0_STLB_rfo_miss 0
Core_0_STLB_rfo_MPKI 0
Core_0_STLB_rfo_miss_rate 0
Core_0_STLB_prefetch_access 0
Core_0_STLB_prefetch_hit 0
Core_0_STLB_prefetch_miss 0
Core_0_STLB_prefetch_MPKI 0
Core_0_STLB_prefetch_miss_rate 0
Core_0_STLB_writeback_access 0
Core_0_STLB_writeback_hit 0
Core_0_STLB_writeback_miss 0
Core_0_STLB_writeback_MPKI 0
Core_0_STLB_writeback_miss_rate 0
Core_0_STLB_prefetch_requested 0
Core_0_STLB_prefetch_issued 0
Core_0_STLB_prefetch_useful 0
Core_0_STLB_prefetch_useless 0
Core_0_STLB_prefetch_late 0
Core_0_STLB_prefetch_accuracy 0
Core_0_STLB_prefetch_coverage 0

Core_0_L1I_total_access 4778653
Core_0_L1I_total_hit 4775867
Core_0_L1I_total_miss 2786
Core_0_L1I_total_MPKI 0.05572
Core_0_L1I_total_miss_rate 0.000583009
Core_0_L1I_demand_access 4778653
Core_0_L1I_demand_hit 4775867
Core_0_L1I_demand_miss 2786
Core_0_L1I_demand_MPKI 0.05572
Core_0_L1I_demand_miss_rate 0.000583009
Core_0_L1I_load_access 4778653
Core_0_L1I_load_hit 4775867
Core_0_L1I_load_miss 2786
Core_0_L1I_load_MPKI 0.05572
Core_0_L1I_load_miss_rate 0.000583009
Core_0_L1I_rfo_access 0
Core_0_L1I_rfo_hit 0
Core_0_L1I_rfo_miss 0
Core_0_L1I_rfo_MPKI 0
Core_0_L1I_rfo_miss_rate 0
Core_0_L1I_prefetch_access 0
Core_0_L1I_prefetch_hit 0
Core_0_L1I_prefetch_miss 0
Core_0_L1I_prefetch_MPKI 0
Core_0_L1I_prefetch_miss_rate 0
Core_0_L1I_writeback_access 0
Core_0_L1I_writeback_hit 0
Core_0_L1I_writeback_miss 0
Core_0_L1I_writeback_MPKI 0
Core_0_L1I_writeback_miss_rate 0
Core_0_L1I_prefetch_requested 0
Core_0_L1I_prefetch_issued 0
Core_0_L1I_prefetch_useful 0
Core_0_L1I_prefetch_useless 0
Core_0_L1I_prefetch_late 0
Core_0_L1I_prefetch_accuracy 0
Core_0_L1I_prefetch_coverage 0

Core_0_L1D_total_access 12145739
Core_0_L1D_total_hit 11366920
Core_0_L1D_total_miss 778819
Core_0_L1D_total_MPKI 15.5764
Core_0_L1D_total_miss_rate 0.0641228
Core_0_L1D_demand_access 8670144
Core_0_L1D_demand_hit 8207709
Core_0_L1D_demand_miss 462435
Core_0_L1D_demand_MPKI 9.2487
Core_0_L1D_demand_miss_rate 0.0533365
Core_0_L1D_load_access 8670144
Core_0_L1D_load_hit 8207709
Core_0_L1D_load_miss 462435
Core_0_L1D_load_MPKI 9.2487
Core_0_L1D_load_miss_rate 0.0533365
Core_0_L1D_rfo_access 0
Core_0_L1D_rfo_hit 0
Core_0_L1D_rfo_miss 0
Core_0_L1D_rfo_MPKI 0
Core_0_L1D_rfo_miss_rate 0
Core_0_L1D_prefetch_access 0
Core_0_L1D_prefetch_hit 0
Core_0_L1D_prefetch_miss 0
Core_0_L1D_prefetch_MPKI 0
Core_0_L1D_prefetch_miss_rate 0
Core_0_L1D_writeback_access 3475595
Core_0_L1D_writeback_hit 3159211
Core_0_L1D_writeback_miss 316384
Core_0_L1D_writeback_MPKI 6.32768
Core_0_L1D_writeback_miss_rate 0.0910302
Core_0_L1D_prefetch_requested 0
Core_0_L1D_prefetch_issued 0
Core_0_L1D_prefetch_useful 0
Core_0_L1D_prefetch_useless 0
Core_0_L1D_prefetch_late 0
Core_0_L1D_prefetch_accuracy 0
Core_0_L1D_prefetch_coverage 0

Core_0_L2C_total_access 419449
Core_0_L2C_total_hit 281974
Core_0_L2C_total_miss 137475
Core_0_L2C_total_MPKI 2.7495
Core_0_L2C_total_miss_rate 0.327751
Core_0_L2C_demand_access 306812
Core_0_L2C_demand_hit 169537
Core_0_L2C_demand_miss 137275
Core_0_L2C_demand_MPKI 2.7455
Core_0_L2C_demand_miss_rate 0.447424
Core_0_L2C_load_access 253846
Core_0_L2C_load_hit 165493
Core_0_L2C_load_miss 88353
Core_0_L2C_load_MPKI 1.76706
Core_0_L2C_load_miss_rate 0.348057
Core_0_L2C_rfo_access 52966
Core_0_L2C_rfo_hit 4044
Core_0_L2C_rfo_miss 48922
Core_0_L2C_rfo_MPKI 0.97844
Core_0_L2C_rfo_miss_rate 0.923649
Core_0_L2C_prefetch_access 0
Core_0_L2C_prefetch_hit 0
Core_0_L2C_prefetch_miss 0
Core_0_L2C_prefetch_MPKI 0
Core_0_L2C_prefetch_miss_rate 0
Core_0_L2C_writeback_access 112637
Core_0_L2C_writeback_hit 112437
Core_0_L2C_writeback_miss 200
Core_0_L2C_writeback_MPKI 0.004
Core_0_L2C_writeback_miss_rate 0.00177562
Core_0_L2C_prefetch_requested 0
Core_0_L2C_prefetch_issued 0
Core_0_L2C_prefetch_useful 0
Core_0_L2C_prefetch_useless 0
Core_0_L2C_prefetch_late 0
Core_0_L2C_prefetch_accuracy 0
Core_0_L2C_prefetch_coverage 0

Core_0_LLC_total_access 233761
Core_0_LLC_total_hit 123412
Core_0_LLC_total_miss 110349
Core_0_LLC_total_MPKI 2.20698
Core_0_LLC_total_miss_rate 0.472059
Core_0_LLC_demand_access 137275
Core_0_LLC_demand_hit 41489
Core_0_LLC_demand_miss 95786
Core_0_LLC_demand_MPKI 1.91572
Core_0_LLC_demand_miss_rate 0.697767
Core_0_LLC_load_access 88353
Core_0_LLC_load_hit 32724
Core_0_LLC_load_miss 55629
Core_0_LLC_load_MPKI 1.11258
Core_0_LLC_load_miss_rate 0.629622
Core_0_LLC_rfo_access 48922
Core_0_LLC_rfo_hit 8765
Core_0_LLC_rfo_miss 40157
Core_0_LLC_rfo_MPKI 0.80314
Core_0_LLC_rfo_miss_rate 0.820837
Core_0_LLC_prefetch_access 0
Core_0_LLC_prefetch_hit 0
Core_0_LLC_prefetch_miss 0
Core_0_LLC_prefetch_MPKI 0
Core_0_LLC_prefetch_miss_rate 0
Core_0_LLC_writeback_access 96486
Core_0_LLC_writeback_hit 81923
Core_0_LLC_writeback_miss 14563
Core_0_LLC_writeback_MPKI 0.29126
Core_0_LLC_writeback_miss_rate 0.150934
Core_0_LLC_prefetch_requested 0
Core_0_LLC_prefetch_issued 0
Core_0_LLC_prefetch_useful 0
Core_0_LLC_prefetch_useless 0
Core_0_LLC_prefetch_late 0
Core_0_LLC_prefetch_accuracy 0
Core_0_LLC_prefetch_coverage 0

[DRAM Statistics]
Channel_0_RQ_row_buffer_hit 838
Channel_0_RQ_row_buffer_miss 108521
Channel_0_WQ_row_buffer_hit 10771
Channel_0_WQ_row_buffer_miss 44872
Channel_0_WQ_full 0
Channel_0_dbus_congested 373653
DRAM_total_RQ_row_buffer_hit 838
DRAM_total_RQ_row_buffer_miss 108521
DRAM_total_WQ_row_buffer_hit 10771
DRAM_total_WQ_row_buffer_miss 44872
DRAM_total_WQ_full 0
DRAM_total_dbus_congested 373653
DRAM_avg_congested_cycle 14.5169

======STLB miss causes ========
Core_0_STLB_miss_cause_breakdown
Core_0_STLB_cause_Demand_Data_miss 51268
Core_0_STLB_cause_Demand_Data_miss_rate 0.134088
Core_0_STLB_cause_Demand_Instruction_miss 420
Core_0_STLB_cause_Demand_Instruction_miss_rate 0.00109848
Core_0_STLB_cause_L1D_Prefetch_miss 0
Core_0_STLB_cause_L1D_Prefetch_miss_rate 0
Core_0_STLB_cause_L1I_Prefetch_miss 0
Core_0_STLB_cause_L1I_Prefetch_miss_rate 0
Core_0_STLB_cause_Other_miss 0
Core_0_STLB_cause_Other_miss_rate 0
Core_0_STLB_Demand_miss 51688
Core_0_STLB_Demand_miss_rate 0.135186
Core_0_STLB_L1D_Prefetch_miss 0
Core_0_STLB_L1D_Prefetch_miss_rate 0
Core_0_STLB_Other_miss 0
Core_0_STLB_Other_miss_rate 0
