[VMEM] WARNING: physical memory size is smaller than virtual memory size.

*** ChampSim Multicore Out-of-Order Simulator ***
Warmup Instructions: 20000000
Simulation Instructions: 50000000
Number of CPUs: 1
Page size: 4096
Core 0: /data0/tzh/champsim_traces/SPEC17/654.roms_s-1007B.champsimtrace.xz
Off-chip DRAM Size: 4 GiB Channels: 1 Width: 64-bit Data Rate: 3205 MT/s
Warmup halting CPU 0 at instruction 20000003 cycle 4118008 for remainder of phase
Warmup finished CPU 0 instructions: 20000003 cycles: 4118008 cumulative IPC: 4.857 (Simulation time: 00 hr 01 min 03 sec)
Warmup complete CPU 0 instructions: 20000003 cycles: 4118008 cumulative IPC: 4.857 (Simulation time: 00 hr 01 min 03 sec)
Simulation finished CPU 0 instructions: 50000000 cycles: 61035089 cumulative IPC: 0.8192 (Simulation time: 00 hr 08 min 10 sec)
Simulation complete CPU 0 instructions: 50000000 cycles: 61035089 cumulative IPC: 0.8192 (Simulation time: 00 hr 08 min 10 sec)

ChampSim completed all CPUs

=== Simulation ===
CPU 0 runs /data0/tzh/champsim_traces/SPEC17/654.roms_s-1007B.champsimtrace.xz

Region of Interest Statistics

CPU 0 cumulative IPC: 0.8192 instructions: 50000000 cycles: 61035089
CPU 0 Branch Prediction Accuracy: 87.16% MPKI: 13.1 Average ROB Occupancy at Mispredict: 40.19
Branch type MPKI
BRANCH_DIRECT_JUMP: 0.00014
BRANCH_INDIRECT: 0
BRANCH_CONDITIONAL: 6.569
BRANCH_DIRECT_CALL: 0.00014
BRANCH_INDIRECT_CALL: 0
BRANCH_RETURN: 6.535

cpu0->cpu0_STLB TOTAL        ACCESS:      11221 HIT:        284 MISS:      10937 MSHR_MERGE:          0
cpu0->cpu0_STLB LOAD         ACCESS:      11221 HIT:        284 MISS:      10937 MSHR_MERGE:          0
cpu0->cpu0_STLB RFO          ACCESS:          0 HIT:          0 MISS:          0 MSHR_MERGE:          0
cpu0->cpu0_STLB PREFETCH     ACCESS:          0 HIT:          0 MISS:          0 MSHR_MERGE:          0
cpu0->cpu0_STLB WRITE        ACCESS:          0 HIT:          0 MISS:          0 MSHR_MERGE:          0
cpu0->cpu0_STLB TRANSLATION  ACCESS:          0 HIT:          0 MISS:          0 MSHR_MERGE:          0
cpu0->cpu0_STLB PREFETCH REQUESTED:          0 ISSUED:          0 USEFUL:          0 USELESS:          0 LATE:          0
cpu0->cpu0_STLB AVERAGE MISS LATENCY: 250 cycles
cpu0->cpu0_L2C TOTAL        ACCESS:     607287 HIT:     153759 MISS:     453528 MSHR_MERGE:          0
cpu0->cpu0_L2C LOAD         ACCESS:     297239 HIT:         12 MISS:     297227 MSHR_MERGE:          0
cpu0->cpu0_L2C RFO          ACCESS:     153840 HIT:        108 MISS:     153732 MSHR_MERGE:          0
cpu0->cpu0_L2C PREFETCH     ACCESS:          0 HIT:          0 MISS:          0 MSHR_MERGE:          0
cpu0->cpu0_L2C WRITE        ACCESS:     153839 HIT:     153634 MISS:        205 MSHR_MERGE:          0
cpu0->cpu0_L2C TRANSLATION  ACCESS:       2369 HIT:          5 MISS:       2364 MSHR_MERGE:          0
cpu0->cpu0_L2C PREFETCH REQUESTED:          0 ISSUED:          0 USEFUL:          0 USELESS:          0 LATE:          0
cpu0->cpu0_L2C AVERAGE MISS LATENCY: 243.3 cycles
cpu0->cpu0_L1I TOTAL        ACCESS:    1989018 HIT:    1988940 MISS:         78 MSHR_MERGE:         15
cpu0->cpu0_L1I LOAD         ACCESS:    1989018 HIT:    1988940 MISS:         78 MSHR_MERGE:         15
cpu0->cpu0_L1I RFO          ACCESS:          0 HIT:          0 MISS:          0 MSHR_MERGE:          0
cpu0->cpu0_L1I PREFETCH     ACCESS:          0 HIT:          0 MISS:          0 MSHR_MERGE:          0
cpu0->cpu0_L1I WRITE        ACCESS:          0 HIT:          0 MISS:          0 MSHR_MERGE:          0
cpu0->cpu0_L1I TRANSLATION  ACCESS:          0 HIT:          0 MISS:          0 MSHR_MERGE:          0
cpu0->cpu0_L1I PREFETCH REQUESTED:          0 ISSUED:          0 USEFUL:          0 USELESS:          0 LATE:          0
cpu0->cpu0_L1I AVERAGE MISS LATENCY: 224.3 cycles
cpu0->cpu0_L1D TOTAL        ACCESS:   14548039 HIT:   12971542 MISS:    1576497 MSHR_MERGE:    1123112
cpu0->cpu0_L1D LOAD         ACCESS:    8734675 HIT:    7843804 MISS:     890871 MSHR_MERGE:     593695
cpu0->cpu0_L1D RFO          ACCESS:          0 HIT:          0 MISS:          0 MSHR_MERGE:          0
cpu0->cpu0_L1D PREFETCH     ACCESS:          0 HIT:          0 MISS:          0 MSHR_MERGE:          0
cpu0->cpu0_L1D WRITE        ACCESS:    5791471 HIT:    5108239 MISS:     683232 MSHR_MERGE:     529392
cpu0->cpu0_L1D TRANSLATION  ACCESS:      21893 HIT:      19499 MISS:       2394 MSHR_MERGE:         25
cpu0->cpu0_L1D PREFETCH REQUESTED:          0 ISSUED:          0 USEFUL:          0 USELESS:          0 LATE:          0
cpu0->cpu0_L1D AVERAGE MISS LATENCY: 252.4 cycles
cpu0->cpu0_ITLB TOTAL        ACCESS:    1926771 HIT:    1926759 MISS:         12 MSHR_MERGE:          6
cpu0->cpu0_ITLB LOAD         ACCESS:    1926771 HIT:    1926759 MISS:         12 MSHR_MERGE:          6
cpu0->cpu0_ITLB RFO          ACCESS:          0 HIT:          0 MISS:          0 MSHR_MERGE:          0
cpu0->cpu0_ITLB PREFETCH     ACCESS:          0 HIT:          0 MISS:          0 MSHR_MERGE:          0
cpu0->cpu0_ITLB WRITE        ACCESS:          0 HIT:          0 MISS:          0 MSHR_MERGE:          0
cpu0->cpu0_ITLB TRANSLATION  ACCESS:          0 HIT:          0 MISS:          0 MSHR_MERGE:          0
cpu0->cpu0_ITLB PREFETCH REQUESTED:          0 ISSUED:          0 USEFUL:          0 USELESS:          0 LATE:          0
cpu0->cpu0_ITLB AVERAGE MISS LATENCY: 385.5 cycles
cpu0->cpu0_DTLB TOTAL        ACCESS:   13957426 HIT:   13898542 MISS:      58884 MSHR_MERGE:      47669
cpu0->cpu0_DTLB LOAD         ACCESS:   13957426 HIT:   13898542 MISS:      58884 MSHR_MERGE:      47669
cpu0->cpu0_DTLB RFO          ACCESS:          0 HIT:          0 MISS:          0 MSHR_MERGE:          0
cpu0->cpu0_DTLB PREFETCH     ACCESS:          0 HIT:          0 MISS:          0 MSHR_MERGE:          0
cpu0->cpu0_DTLB WRITE        ACCESS:          0 HIT:          0 MISS:          0 MSHR_MERGE:          0
cpu0->cpu0_DTLB TRANSLATION  ACCESS:          0 HIT:          0 MISS:          0 MSHR_MERGE:          0
cpu0->cpu0_DTLB PREFETCH REQUESTED:          0 ISSUED:          0 USEFUL:          0 USELESS:          0 LATE:          0
cpu0->cpu0_DTLB AVERAGE MISS LATENCY: 249.6 cycles
cpu0->LLC TOTAL        ACCESS:     606956 HIT:      35613 MISS:     571343 MSHR_MERGE:          0
cpu0->LLC LOAD         ACCESS:     297227 HIT:       3154 MISS:     294073 MSHR_MERGE:          0
cpu0->LLC RFO          ACCESS:     153732 HIT:          0 MISS:     153732 MSHR_MERGE:          0
cpu0->LLC PREFETCH     ACCESS:          0 HIT:          0 MISS:          0 MSHR_MERGE:          0
cpu0->LLC WRITE        ACCESS:     153633 HIT:      32458 MISS:     121175 MSHR_MERGE:          0
cpu0->LLC TRANSLATION  ACCESS:       2364 HIT:          1 MISS:       2363 MSHR_MERGE:          0
cpu0->LLC PREFETCH REQUESTED:          0 ISSUED:          0 USEFUL:          0 USELESS:          0 LATE:          0
cpu0->LLC AVERAGE MISS LATENCY: 182.3 cycles

DRAM Statistics

Channel 0 RQ ROW_BUFFER_HIT:        980
  ROW_BUFFER_MISS:     449188
  AVG DBUS CONGESTED CYCLE: 5.819
Channel 0 WQ ROW_BUFFER_HIT:      32998
  ROW_BUFFER_MISS:     100257
  FULL:          0
Channel 0 REFRESHES ISSUED:       5086

[ROI Statistics]
[System Configuration]
num_cpus 1
cpu_freq 4000
fetch_width 6
decode_width 6
dispatch_width 6
execute_width 6
lq_width 2
sq_width 2
retire_width 6
scheduler_size 160
branch_mispredict_penalty 1
rob_size 352
lq_size 240
sq_size 112
ifetch_buffer_size 64
decode_buffer_size 32
dispatch_buffer_size 32
register_file_size 288
decode_latency 1
dispatch_latency 1
schedule_latency 0
execute_latency 0
page_size 4096
block_size 64
core_0_itlb_set 16
core_0_itlb_way 4
core_0_itlb_rq_size 16
core_0_itlb_wq_size 16
core_0_itlb_pq_size 0
core_0_itlb_mshr_size 8
core_0_itlb_hit_latency 1
core_0_itlb_fill_latency 1
core_0_itlb_max_tag_check 2
core_0_itlb_max_fill 2
core_0_dtlb_set 16
core_0_dtlb_way 4
core_0_dtlb_rq_size 16
core_0_dtlb_wq_size 16
core_0_dtlb_pq_size 0
core_0_dtlb_mshr_size 8
core_0_dtlb_hit_latency 1
core_0_dtlb_fill_latency 1
core_0_dtlb_max_tag_check 2
core_0_dtlb_max_fill 2
core_0_stlb_set 128
core_0_stlb_way 12
core_0_stlb_rq_size 32
core_0_stlb_wq_size 32
core_0_stlb_pq_size 0
core_0_stlb_mshr_size 16
core_0_stlb_hit_latency 4
core_0_stlb_fill_latency 4
core_0_stlb_max_tag_check 1
core_0_stlb_max_fill 1
core_0_l1i_set 64
core_0_l1i_way 8
core_0_l1i_rq_size 64
core_0_l1i_wq_size 64
core_0_l1i_pq_size 32
core_0_l1i_mshr_size 8
core_0_l1i_hit_latency 2
core_0_l1i_fill_latency 2
core_0_l1i_max_tag_check 2
core_0_l1i_max_fill 2
core_0_l1d_set 64
core_0_l1d_way 12
core_0_l1d_rq_size 64
core_0_l1d_wq_size 64
core_0_l1d_pq_size 8
core_0_l1d_mshr_size 16
core_0_l1d_hit_latency 2
core_0_l1d_fill_latency 3
core_0_l1d_max_tag_check 2
core_0_l1d_max_fill 2
core_0_l2c_set 1024
core_0_l2c_way 8
core_0_l2c_rq_size 32
core_0_l2c_wq_size 32
core_0_l2c_pq_size 16
core_0_l2c_mshr_size 32
core_0_l2c_hit_latency 5
core_0_l2c_fill_latency 5
core_0_l2c_max_tag_check 1
core_0_l2c_max_fill 1
llc_set 2048
llc_way 16
llc_rq_size 32
llc_wq_size 32
llc_pq_size 32
llc_mshr_size 64
llc_hit_latency 10
llc_fill_latency 10
llc_max_tag_check 1
llc_max_fill 1
dram_channels 1
dram_ranks 1
dram_bankgroups 8
dram_banks 4
dram_rows 16384
dram_columns 1024
dram_channel_width 8
dram_rq_size 64
dram_wq_size 64
dram_size 4294967296
core_0_itlb_prefetcher no
core_0_dtlb_prefetcher no
core_0_stlb_prefetcher no
core_0_l1i_prefetcher no
core_0_l1d_prefetcher no
core_0_l2c_prefetcher no
llc_prefetcher no
llc_replacement drrip

Core_0_instructions 50000000
Core_0_cycles 61035089
Core_0_IPC 0.819201
Core_0_branch_prediction_accuracy 87.1552
Core_0_branch_MPKI 13.1044
Core_0_average_ROB_occupancy_at_mispredict 40.187

Core_0_ITLB_total_access 1926771
Core_0_ITLB_total_hit 1926759
Core_0_ITLB_total_miss 12
Core_0_ITLB_total_MPKI 0.00024
Core_0_ITLB_total_miss_rate 6.22804e-06
Core_0_ITLB_demand_access 1926771
Core_0_ITLB_demand_hit 1926759
Core_0_ITLB_demand_miss 12
Core_0_ITLB_demand_MPKI 0.00024
Core_0_ITLB_demand_miss_rate 6.22804e-06
Core_0_ITLB_load_access 1926771
Core_0_ITLB_load_hit 1926759
Core_0_ITLB_load_miss 12
Core_0_ITLB_load_MPKI 0.00024
Core_0_ITLB_load_miss_rate 6.22804e-06
Core_0_ITLB_rfo_access 0
Core_0_ITLB_rfo_hit 0
Core_0_ITLB_rfo_miss 0
Core_0_ITLB_rfo_MPKI 0
Core_0_ITLB_rfo_miss_rate 0
Core_0_ITLB_prefetch_access 0
Core_0_ITLB_prefetch_hit 0
Core_0_ITLB_prefetch_miss 0
Core_0_ITLB_prefetch_MPKI 0
Core_0_ITLB_prefetch_miss_rate 0
Core_0_ITLB_writeback_access 0
Core_0_ITLB_writeback_hit 0
Core_0_ITLB_writeback_miss 0
Core_0_ITLB_writeback_MPKI 0
Core_0_ITLB_writeback_miss_rate 0
Core_0_ITLB_prefetch_requested 0
Core_0_ITLB_prefetch_issued 0
Core_0_ITLB_prefetch_useful 0
Core_0_ITLB_prefetch_useless 0
Core_0_ITLB_prefetch_late 0
Core_0_ITLB_prefetch_accuracy 0
Core_0_ITLB_prefetch_coverage 0

Core_0_DTLB_total_access 13957426
Core_0_DTLB_total_hit 13898542
Core_0_DTLB_total_miss 58884
Core_0_DTLB_total_MPKI 1.17768
Core_0_DTLB_total_miss_rate 0.00421883
Core_0_DTLB_demand_access 13957426
Core_0_DTLB_demand_hit 13898542
Core_0_DTLB_demand_miss 58884
Core_0_DTLB_demand_MPKI 1.17768
Core_0_DTLB_demand_miss_rate 0.00421883
Core_0_DTLB_load_access 13957426
Core_0_DTLB_load_hit 13898542
Core_0_DTLB_load_miss 58884
Core_0_DTLB_load_MPKI 1.17768
Core_0_DTLB_load_miss_rate 0.00421883
Core_0_DTLB_rfo_access 0
Core_0_DTLB_rfo_hit 0
Core_0_DTLB_rfo_miss 0
Core_0_DTLB_rfo_MPKI 0
Core_0_DTLB_rfo_miss_rate 0
Core_0_DTLB_prefetch_access 0
Core_0_DTLB_prefetch_hit 0
Core_0_DTLB_prefetch_miss 0
Core_0_DTLB_prefetch_MPKI 0
Core_0_DTLB_prefetch_miss_rate 0
Core_0_DTLB_writeback_access 0
Core_0_DTLB_writeback_hit 0
Core_0_DTLB_writeback_miss 0
Core_0_DTLB_writeback_MPKI 0
Core_0_DTLB_writeback_miss_rate 0
Core_0_DTLB_prefetch_requested 0
Core_0_DTLB_prefetch_issued 0
Core_0_DTLB_prefetch_useful 0
Core_0_DTLB_prefetch_useless 0
Core_0_DTLB_prefetch_late 0
Core_0_DTLB_prefetch_accuracy 0
Core_0_DTLB_prefetch_coverage 0

Core_0_STLB_total_access 11221
Core_0_STLB_total_hit 284
Core_0_STLB_total_miss 10937
Core_0_STLB_total_MPKI 0.21874
Core_0_STLB_total_miss_rate 0.97469
Core_0_STLB_demand_access 11221
Core_0_STLB_demand_hit 284
Core_0_STLB_demand_miss 10937
Core_0_STLB_demand_MPKI 0.21874
Core_0_STLB_demand_miss_rate 0.97469
Core_0_STLB_load_access 11221
Core_0_STLB_load_hit 284
Core_0_STLB_load_miss 10937
Core_0_STLB_load_MPKI 0.21874
Core_0_STLB_load_miss_rate 0.97469
Core_0_STLB_rfo_access 0
Core_0_STLB_rfo_hit 0
Core_0_STLB_rfo_miss 0
Core_0_STLB_rfo_MPKI 0
Core_0_STLB_rfo_miss_rate 0
Core_0_STLB_prefetch_access 0
Core_0_STLB_prefetch_hit 0
Core_0_STLB_prefetch_miss 0
Core_0_STLB_prefetch_MPKI 0
Core_0_STLB_prefetch_miss_rate 0
Core_0_STLB_writeback_access 0
Core_0_STLB_writeback_hit 0
Core_0_STLB_writeback_miss 0
Core_0_STLB_writeback_MPKI 0
Core_0_STLB_writeback_miss_rate 0
Core_0_STLB_prefetch_requested 0
Core_0_STLB_prefetch_issued 0
Core_0_STLB_prefetch_useful 0
Core_0_STLB_prefetch_useless 0
Core_0_STLB_prefetch_late 0
Core_0_STLB_prefetch_accuracy 0
Core_0_STLB_prefetch_coverage 0

Core_0_L1I_total_access 1989018
Core_0_L1I_total_hit 1988940
Core_0_L1I_total_miss 78
Core_0_L1I_total_MPKI 0.00156
Core_0_L1I_total_miss_rate 3.92153e-05
Core_0_L1I_demand_access 1989018
Core_0_L1I_demand_hit 1988940
Core_0_L1I_demand_miss 78
Core_0_L1I_demand_MPKI 0.00156
Core_0_L1I_demand_miss_rate 3.92153e-05
Core_0_L1I_load_access 1989018
Core_0_L1I_load_hit 1988940
Core_0_L1I_load_miss 78
Core_0_L1I_load_MPKI 0.00156
Core_0_L1I_load_miss_rate 3.92153e-05
Core_0_L1I_rfo_access 0
Core_0_L1I_rfo_hit 0
Core_0_L1I_rfo_miss 0
Core_0_L1I_rfo_MPKI 0
Core_0_L1I_rfo_miss_rate 0
Core_0_L1I_prefetch_access 0
Core_0_L1I_prefetch_hit 0
Core_0_L1I_prefetch_miss 0
Core_0_L1I_prefetch_MPKI 0
Core_0_L1I_prefetch_miss_rate 0
Core_0_L1I_writeback_access 0
Core_0_L1I_writeback_hit 0
Core_0_L1I_writeback_miss 0
Core_0_L1I_writeback_MPKI 0
Core_0_L1I_writeback_miss_rate 0
Core_0_L1I_prefetch_requested 0
Core_0_L1I_prefetch_issued 0
Core_0_L1I_prefetch_useful 0
Core_0_L1I_prefetch_useless 0
Core_0_L1I_prefetch_late 0
Core_0_L1I_prefetch_accuracy 0
Core_0_L1I_prefetch_coverage 0

Core_0_L1D_total_access 14526146
Core_0_L1D_total_hit 12952043
Core_0_L1D_total_miss 1574103
Core_0_L1D_total_MPKI 31.4821
Core_0_L1D_total_miss_rate 0.108363
Core_0_L1D_demand_access 8734675
Core_0_L1D_demand_hit 7843804
Core_0_L1D_demand_miss 890871
Core_0_L1D_demand_MPKI 17.8174
Core_0_L1D_demand_miss_rate 0.101992
Core_0_L1D_load_access 8734675
Core_0_L1D_load_hit 7843804
Core_0_L1D_load_miss 890871
Core_0_L1D_load_MPKI 17.8174
Core_0_L1D_load_miss_rate 0.101992
Core_0_L1D_rfo_access 0
Core_0_L1D_rfo_hit 0
Core_0_L1D_rfo_miss 0
Core_0_L1D_rfo_MPKI 0
Core_0_L1D_rfo_miss_rate 0
Core_0_L1D_prefetch_access 0
Core_0_L1D_prefetch_hit 0
Core_0_L1D_prefetch_miss 0
Core_0_L1D_prefetch_MPKI 0
Core_0_L1D_prefetch_miss_rate 0
Core_0_L1D_writeback_access 5791471
Core_0_L1D_writeback_hit 5108239
Core_0_L1D_writeback_miss 683232
Core_0_L1D_writeback_MPKI 13.6646
Core_0_L1D_writeback_miss_rate 0.117972
Core_0_L1D_prefetch_requested 0
Core_0_L1D_prefetch_issued 0
Core_0_L1D_prefetch_useful 0
Core_0_L1D_prefetch_useless 0
Core_0_L1D_prefetch_late 0
Core_0_L1D_prefetch_accuracy 0
Core_0_L1D_prefetch_coverage 0

Core_0_L2C_total_access 604918
Core_0_L2C_total_hit 153754
Core_0_L2C_total_miss 451164
Core_0_L2C_total_MPKI 9.02328
Core_0_L2C_total_miss_rate 0.745827
Core_0_L2C_demand_access 451079
Core_0_L2C_demand_hit 120
Core_0_L2C_demand_miss 450959
Core_0_L2C_demand_MPKI 9.01918
Core_0_L2C_demand_miss_rate 0.999734
Core_0_L2C_load_access 297239
Core_0_L2C_load_hit 12
Core_0_L2C_load_miss 297227
Core_0_L2C_load_MPKI 5.94454
Core_0_L2C_load_miss_rate 0.99996
Core_0_L2C_rfo_access 153840
Core_0_L2C_rfo_hit 108
Core_0_L2C_rfo_miss 153732
Core_0_L2C_rfo_MPKI 3.07464
Core_0_L2C_rfo_miss_rate 0.999298
Core_0_L2C_prefetch_access 0
Core_0_L2C_prefetch_hit 0
Core_0_L2C_prefetch_miss 0
Core_0_L2C_prefetch_MPKI 0
Core_0_L2C_prefetch_miss_rate 0
Core_0_L2C_writeback_access 153839
Core_0_L2C_writeback_hit 153634
Core_0_L2C_writeback_miss 205
Core_0_L2C_writeback_MPKI 0.0041
Core_0_L2C_writeback_miss_rate 0.00133256
Core_0_L2C_prefetch_requested 0
Core_0_L2C_prefetch_issued 0
Core_0_L2C_prefetch_useful 0
Core_0_L2C_prefetch_useless 0
Core_0_L2C_prefetch_late 0
Core_0_L2C_prefetch_accuracy 0
Core_0_L2C_prefetch_coverage 0

Core_0_LLC_total_access 604592
Core_0_LLC_total_hit 35612
Core_0_LLC_total_miss 568980
Core_0_LLC_total_MPKI 11.3796
Core_0_LLC_total_miss_rate 0.941097
Core_0_LLC_demand_access 450959
Core_0_LLC_demand_hit 3154
Core_0_LLC_demand_miss 447805
Core_0_LLC_demand_MPKI 8.9561
Core_0_LLC_demand_miss_rate 0.993006
Core_0_LLC_load_access 297227
Core_0_LLC_load_hit 3154
Core_0_LLC_load_miss 294073
Core_0_LLC_load_MPKI 5.88146
Core_0_LLC_load_miss_rate 0.989389
Core_0_LLC_rfo_access 153732
Core_0_LLC_rfo_hit 0
Core_0_LLC_rfo_miss 153732
Core_0_LLC_rfo_MPKI 3.07464
Core_0_LLC_rfo_miss_rate 1
Core_0_LLC_prefetch_access 0
Core_0_LLC_prefetch_hit 0
Core_0_LLC_prefetch_miss 0
Core_0_LLC_prefetch_MPKI 0
Core_0_LLC_prefetch_miss_rate 0
Core_0_LLC_writeback_access 153633
Core_0_LLC_writeback_hit 32458
Core_0_LLC_writeback_miss 121175
Core_0_LLC_writeback_MPKI 2.4235
Core_0_LLC_writeback_miss_rate 0.78873
Core_0_LLC_prefetch_requested 0
Core_0_LLC_prefetch_issued 0
Core_0_LLC_prefetch_useful 0
Core_0_LLC_prefetch_useless 0
Core_0_LLC_prefetch_late 0
Core_0_LLC_prefetch_accuracy 0
Core_0_LLC_prefetch_coverage 0

[DRAM Statistics]
Channel_0_RQ_row_buffer_hit 980
Channel_0_RQ_row_buffer_miss 449188
Channel_0_WQ_row_buffer_hit 32998
Channel_0_WQ_row_buffer_miss 100257
Channel_0_WQ_full 0
Channel_0_dbus_congested 1261846
DRAM_total_RQ_row_buffer_hit 980
DRAM_total_RQ_row_buffer_miss 449188
DRAM_total_WQ_row_buffer_hit 32998
DRAM_total_WQ_row_buffer_miss 100257
DRAM_total_WQ_full 0
DRAM_total_dbus_congested 1261846
DRAM_avg_congested_cycle 5.81881

======STLB miss causes ========
Core_0_STLB_miss_cause_breakdown
Core_0_STLB_cause_Demand_Data_miss 10931
Core_0_STLB_cause_Demand_Data_miss_rate 0.974156
Core_0_STLB_cause_Demand_Instruction_miss 6
Core_0_STLB_cause_Demand_Instruction_miss_rate 0.000534712
Core_0_STLB_cause_L1D_Prefetch_miss 0
Core_0_STLB_cause_L1D_Prefetch_miss_rate 0
Core_0_STLB_cause_L1I_Prefetch_miss 0
Core_0_STLB_cause_L1I_Prefetch_miss_rate 0
Core_0_STLB_cause_Other_miss 0
Core_0_STLB_cause_Other_miss_rate 0
Core_0_STLB_Demand_miss 10937
Core_0_STLB_Demand_miss_rate 0.97469
Core_0_STLB_L1D_Prefetch_miss 0
Core_0_STLB_L1D_Prefetch_miss_rate 0
Core_0_STLB_Other_miss 0
Core_0_STLB_Other_miss_rate 0
