[VMEM] WARNING: physical memory size is smaller than virtual memory size.

*** ChampSim Multicore Out-of-Order Simulator ***
Warmup Instructions: 20000000
Simulation Instructions: 50000000
Number of CPUs: 1
Page size: 4096
Core 0: /data0/tzh/champsim_traces/Ligra/ligra_PageRankDelta.com-lj.ungraph.gcc_6.3.0_O3.drop_24000M.length_250M.champsimtrace.xz
Off-chip DRAM Size: 4 GiB Channels: 1 Width: 64-bit Data Rate: 3205 MT/s
Warmup halting CPU 0 at instruction 20000001 cycle 4366852 for remainder of phase
Warmup finished CPU 0 instructions: 20000001 cycles: 4366852 cumulative IPC: 4.58 (Simulation time: 00 hr 00 min 37 sec)
Warmup complete CPU 0 instructions: 20000001 cycles: 4366852 cumulative IPC: 4.58 (Simulation time: 00 hr 00 min 37 sec)
Simulation finished CPU 0 instructions: 50000003 cycles: 53136750 cumulative IPC: 0.941 (Simulation time: 00 hr 06 min 56 sec)
Simulation complete CPU 0 instructions: 50000003 cycles: 53136750 cumulative IPC: 0.941 (Simulation time: 00 hr 06 min 56 sec)

ChampSim completed all CPUs

=== Simulation ===
CPU 0 runs /data0/tzh/champsim_traces/Ligra/ligra_PageRankDelta.com-lj.ungraph.gcc_6.3.0_O3.drop_24000M.length_250M.champsimtrace.xz

Region of Interest Statistics

CPU 0 cumulative IPC: 0.941 instructions: 50000003 cycles: 53136750
CPU 0 Branch Prediction Accuracy: 95.18% MPKI: 8.991 Average ROB Occupancy at Mispredict: 28.1
Branch type MPKI
BRANCH_DIRECT_JUMP: 0.0002
BRANCH_INDIRECT: 0
BRANCH_CONDITIONAL: 8.991
BRANCH_DIRECT_CALL: 0.00016
BRANCH_INDIRECT_CALL: 0
BRANCH_RETURN: 0.0002

cpu0->cpu0_STLB TOTAL        ACCESS:      15678 HIT:        188 MISS:      15490 MSHR_MERGE:          0
cpu0->cpu0_STLB LOAD         ACCESS:      15678 HIT:        188 MISS:      15490 MSHR_MERGE:          0
cpu0->cpu0_STLB RFO          ACCESS:          0 HIT:          0 MISS:          0 MSHR_MERGE:          0
cpu0->cpu0_STLB PREFETCH     ACCESS:          0 HIT:          0 MISS:          0 MSHR_MERGE:          0
cpu0->cpu0_STLB WRITE        ACCESS:          0 HIT:          0 MISS:          0 MSHR_MERGE:          0
cpu0->cpu0_STLB TRANSLATION  ACCESS:          0 HIT:          0 MISS:          0 MSHR_MERGE:          0
cpu0->cpu0_STLB PREFETCH REQUESTED:          0 ISSUED:          0 USEFUL:          0 USELESS:          0 LATE:          0
cpu0->cpu0_STLB AVERAGE MISS LATENCY: 248 cycles
cpu0->cpu0_L2C TOTAL        ACCESS:    1531197 HIT:     547322 MISS:     983875 MSHR_MERGE:          0
cpu0->cpu0_L2C LOAD         ACCESS:     435622 HIT:          9 MISS:     435613 MSHR_MERGE:          0
cpu0->cpu0_L2C RFO          ACCESS:     546273 HIT:          0 MISS:     546273 MSHR_MERGE:          0
cpu0->cpu0_L2C PREFETCH     ACCESS:          0 HIT:          0 MISS:          0 MSHR_MERGE:          0
cpu0->cpu0_L2C WRITE        ACCESS:     546046 HIT:     546044 MISS:          2 MSHR_MERGE:          0
cpu0->cpu0_L2C TRANSLATION  ACCESS:       3256 HIT:       1269 MISS:       1987 MSHR_MERGE:          0
cpu0->cpu0_L2C PREFETCH REQUESTED:          0 ISSUED:          0 USEFUL:          0 USELESS:          0 LATE:          0
cpu0->cpu0_L2C AVERAGE MISS LATENCY: 358.2 cycles
cpu0->cpu0_L1I TOTAL        ACCESS:    2875033 HIT:    2874995 MISS:         38 MSHR_MERGE:          3
cpu0->cpu0_L1I LOAD         ACCESS:    2875033 HIT:    2874995 MISS:         38 MSHR_MERGE:          3
cpu0->cpu0_L1I RFO          ACCESS:          0 HIT:          0 MISS:          0 MSHR_MERGE:          0
cpu0->cpu0_L1I PREFETCH     ACCESS:          0 HIT:          0 MISS:          0 MSHR_MERGE:          0
cpu0->cpu0_L1I WRITE        ACCESS:          0 HIT:          0 MISS:          0 MSHR_MERGE:          0
cpu0->cpu0_L1I TRANSLATION  ACCESS:          0 HIT:          0 MISS:          0 MSHR_MERGE:          0
cpu0->cpu0_L1I PREFETCH REQUESTED:          0 ISSUED:          0 USEFUL:          0 USELESS:          0 LATE:          0
cpu0->cpu0_L1I AVERAGE MISS LATENCY: 202.5 cycles
cpu0->cpu0_L1D TOTAL        ACCESS:   13044878 HIT:    4215256 MISS:    8829622 MSHR_MERGE:    7844506
cpu0->cpu0_L1D LOAD         ACCESS:    5758303 HIT:    3576190 MISS:    2182113 MSHR_MERGE:    1746526
cpu0->cpu0_L1D RFO          ACCESS:          0 HIT:          0 MISS:          0 MSHR_MERGE:          0
cpu0->cpu0_L1D PREFETCH     ACCESS:          0 HIT:          0 MISS:          0 MSHR_MERGE:          0
cpu0->cpu0_L1D WRITE        ACCESS:    7255575 HIT:     611326 MISS:    6644249 MSHR_MERGE:    6097976
cpu0->cpu0_L1D TRANSLATION  ACCESS:      31000 HIT:      27740 MISS:       3260 MSHR_MERGE:          4
cpu0->cpu0_L1D PREFETCH REQUESTED:          0 ISSUED:          0 USEFUL:          0 USELESS:          0 LATE:          0
cpu0->cpu0_L1D AVERAGE MISS LATENCY: 366.9 cycles
cpu0->cpu0_ITLB TOTAL        ACCESS:    2256367 HIT:    2256362 MISS:          5 MSHR_MERGE:          2
cpu0->cpu0_ITLB LOAD         ACCESS:    2256367 HIT:    2256362 MISS:          5 MSHR_MERGE:          2
cpu0->cpu0_ITLB RFO          ACCESS:          0 HIT:          0 MISS:          0 MSHR_MERGE:          0
cpu0->cpu0_ITLB PREFETCH     ACCESS:          0 HIT:          0 MISS:          0 MSHR_MERGE:          0
cpu0->cpu0_ITLB WRITE        ACCESS:          0 HIT:          0 MISS:          0 MSHR_MERGE:          0
cpu0->cpu0_ITLB TRANSLATION  ACCESS:          0 HIT:          0 MISS:          0 MSHR_MERGE:          0
cpu0->cpu0_ITLB PREFETCH REQUESTED:          0 ISSUED:          0 USEFUL:          0 USELESS:          0 LATE:          0
cpu0->cpu0_ITLB AVERAGE MISS LATENCY: 367.7 cycles
cpu0->cpu0_DTLB TOTAL        ACCESS:   12547203 HIT:   12359359 MISS:     187844 MSHR_MERGE:     172169
cpu0->cpu0_DTLB LOAD         ACCESS:   12547203 HIT:   12359359 MISS:     187844 MSHR_MERGE:     172169
cpu0->cpu0_DTLB RFO          ACCESS:          0 HIT:          0 MISS:          0 MSHR_MERGE:          0
cpu0->cpu0_DTLB PREFETCH     ACCESS:          0 HIT:          0 MISS:          0 MSHR_MERGE:          0
cpu0->cpu0_DTLB WRITE        ACCESS:          0 HIT:          0 MISS:          0 MSHR_MERGE:          0
cpu0->cpu0_DTLB TRANSLATION  ACCESS:          0 HIT:          0 MISS:          0 MSHR_MERGE:          0
cpu0->cpu0_DTLB PREFETCH REQUESTED:          0 ISSUED:          0 USEFUL:          0 USELESS:          0 LATE:          0
cpu0->cpu0_DTLB AVERAGE MISS LATENCY: 251 cycles
cpu0->LLC TOTAL        ACCESS:    1526165 HIT:     139298 MISS:    1386867 MSHR_MERGE:          0
cpu0->LLC LOAD         ACCESS:     435613 HIT:        453 MISS:     435160 MSHR_MERGE:          0
cpu0->LLC RFO          ACCESS:     546272 HIT:          6 MISS:     546266 MSHR_MERGE:          0
cpu0->LLC PREFETCH     ACCESS:          0 HIT:          0 MISS:          0 MSHR_MERGE:          0
cpu0->LLC WRITE        ACCESS:     542293 HIT:     138837 MISS:     403456 MSHR_MERGE:          0
cpu0->LLC TRANSLATION  ACCESS:       1987 HIT:          2 MISS:       1985 MSHR_MERGE:          0
cpu0->LLC PREFETCH REQUESTED:          0 ISSUED:          0 USEFUL:          0 USELESS:          0 LATE:          0
cpu0->LLC AVERAGE MISS LATENCY: 245.4 cycles

DRAM Statistics

Channel 0 RQ ROW_BUFFER_HIT:      38296
  ROW_BUFFER_MISS:     945101
  AVG DBUS CONGESTED CYCLE: 7.443
Channel 0 WQ ROW_BUFFER_HIT:     102971
  ROW_BUFFER_MISS:     438838
  FULL:          0
Channel 0 REFRESHES ISSUED:       4428

[ROI Statistics]
[System Configuration]
num_cpus 1
cpu_freq 4000
fetch_width 6
decode_width 6
dispatch_width 6
execute_width 6
lq_width 2
sq_width 2
retire_width 6
scheduler_size 160
branch_mispredict_penalty 1
rob_size 352
lq_size 240
sq_size 112
ifetch_buffer_size 64
decode_buffer_size 32
dispatch_buffer_size 32
register_file_size 288
decode_latency 1
dispatch_latency 1
schedule_latency 0
execute_latency 0
page_size 4096
block_size 64
core_0_itlb_set 16
core_0_itlb_way 4
core_0_itlb_rq_size 16
core_0_itlb_wq_size 16
core_0_itlb_pq_size 0
core_0_itlb_mshr_size 8
core_0_itlb_hit_latency 1
core_0_itlb_fill_latency 1
core_0_itlb_max_tag_check 2
core_0_itlb_max_fill 2
core_0_dtlb_set 16
core_0_dtlb_way 4
core_0_dtlb_rq_size 16
core_0_dtlb_wq_size 16
core_0_dtlb_pq_size 0
core_0_dtlb_mshr_size 8
core_0_dtlb_hit_latency 1
core_0_dtlb_fill_latency 1
core_0_dtlb_max_tag_check 2
core_0_dtlb_max_fill 2
core_0_stlb_set 128
core_0_stlb_way 12
core_0_stlb_rq_size 32
core_0_stlb_wq_size 32
core_0_stlb_pq_size 0
core_0_stlb_mshr_size 16
core_0_stlb_hit_latency 4
core_0_stlb_fill_latency 4
core_0_stlb_max_tag_check 1
core_0_stlb_max_fill 1
core_0_l1i_set 64
core_0_l1i_way 8
core_0_l1i_rq_size 64
core_0_l1i_wq_size 64
core_0_l1i_pq_size 32
core_0_l1i_mshr_size 8
core_0_l1i_hit_latency 2
core_0_l1i_fill_latency 2
core_0_l1i_max_tag_check 2
core_0_l1i_max_fill 2
core_0_l1d_set 64
core_0_l1d_way 12
core_0_l1d_rq_size 64
core_0_l1d_wq_size 64
core_0_l1d_pq_size 8
core_0_l1d_mshr_size 16
core_0_l1d_hit_latency 2
core_0_l1d_fill_latency 3
core_0_l1d_max_tag_check 2
core_0_l1d_max_fill 2
core_0_l2c_set 1024
core_0_l2c_way 8
core_0_l2c_rq_size 32
core_0_l2c_wq_size 32
core_0_l2c_pq_size 16
core_0_l2c_mshr_size 32
core_0_l2c_hit_latency 5
core_0_l2c_fill_latency 5
core_0_l2c_max_tag_check 1
core_0_l2c_max_fill 1
llc_set 2048
llc_way 16
llc_rq_size 32
llc_wq_size 32
llc_pq_size 32
llc_mshr_size 64
llc_hit_latency 10
llc_fill_latency 10
llc_max_tag_check 1
llc_max_fill 1
dram_channels 1
dram_ranks 1
dram_bankgroups 8
dram_banks 4
dram_rows 16384
dram_columns 1024
dram_channel_width 8
dram_rq_size 64
dram_wq_size 64
dram_size 4294967296
core_0_itlb_prefetcher no
core_0_dtlb_prefetcher no
core_0_stlb_prefetcher no
core_0_l1i_prefetcher no
core_0_l1d_prefetcher no
core_0_l2c_prefetcher no
llc_prefetcher no
llc_replacement drrip

Core_0_instructions 50000003
Core_0_cycles 53136750
Core_0_IPC 0.940968
Core_0_branch_prediction_accuracy 95.1763
Core_0_branch_MPKI 8.99116
Core_0_average_ROB_occupancy_at_mispredict 28.1014

Core_0_ITLB_total_access 2256367
Core_0_ITLB_total_hit 2256362
Core_0_ITLB_total_miss 5
Core_0_ITLB_total_MPKI 0.0001
Core_0_ITLB_total_miss_rate 2.21595e-06
Core_0_ITLB_demand_access 2256367
Core_0_ITLB_demand_hit 2256362
Core_0_ITLB_demand_miss 5
Core_0_ITLB_demand_MPKI 0.0001
Core_0_ITLB_demand_miss_rate 2.21595e-06
Core_0_ITLB_load_access 2256367
Core_0_ITLB_load_hit 2256362
Core_0_ITLB_load_miss 5
Core_0_ITLB_load_MPKI 0.0001
Core_0_ITLB_load_miss_rate 2.21595e-06
Core_0_ITLB_rfo_access 0
Core_0_ITLB_rfo_hit 0
Core_0_ITLB_rfo_miss 0
Core_0_ITLB_rfo_MPKI 0
Core_0_ITLB_rfo_miss_rate 0
Core_0_ITLB_prefetch_access 0
Core_0_ITLB_prefetch_hit 0
Core_0_ITLB_prefetch_miss 0
Core_0_ITLB_prefetch_MPKI 0
Core_0_ITLB_prefetch_miss_rate 0
Core_0_ITLB_writeback_access 0
Core_0_ITLB_writeback_hit 0
Core_0_ITLB_writeback_miss 0
Core_0_ITLB_writeback_MPKI 0
Core_0_ITLB_writeback_miss_rate 0
Core_0_ITLB_prefetch_requested 0
Core_0_ITLB_prefetch_issued 0
Core_0_ITLB_prefetch_useful 0
Core_0_ITLB_prefetch_useless 0
Core_0_ITLB_prefetch_late 0
Core_0_ITLB_prefetch_accuracy 0
Core_0_ITLB_prefetch_coverage 0

Core_0_DTLB_total_access 12547203
Core_0_DTLB_total_hit 12359359
Core_0_DTLB_total_miss 187844
Core_0_DTLB_total_MPKI 3.75688
Core_0_DTLB_total_miss_rate 0.014971
Core_0_DTLB_demand_access 12547203
Core_0_DTLB_demand_hit 12359359
Core_0_DTLB_demand_miss 187844
Core_0_DTLB_demand_MPKI 3.75688
Core_0_DTLB_demand_miss_rate 0.014971
Core_0_DTLB_load_access 12547203
Core_0_DTLB_load_hit 12359359
Core_0_DTLB_load_miss 187844
Core_0_DTLB_load_MPKI 3.75688
Core_0_DTLB_load_miss_rate 0.014971
Core_0_DTLB_rfo_access 0
Core_0_DTLB_rfo_hit 0
Core_0_DTLB_rfo_miss 0
Core_0_DTLB_rfo_MPKI 0
Core_0_DTLB_rfo_miss_rate 0
Core_0_DTLB_prefetch_access 0
Core_0_DTLB_prefetch_hit 0
Core_0_DTLB_prefetch_miss 0
Core_0_DTLB_prefetch_MPKI 0
Core_0_DTLB_prefetch_miss_rate 0
Core_0_DTLB_writeback_access 0
Core_0_DTLB_writeback_hit 0
Core_0_DTLB_writeback_miss 0
Core_0_DTLB_writeback_MPKI 0
Core_0_DTLB_writeback_miss_rate 0
Core_0_DTLB_prefetch_requested 0
Core_0_DTLB_prefetch_issued 0
Core_0_DTLB_prefetch_useful 0
Core_0_DTLB_prefetch_useless 0
Core_0_DTLB_prefetch_late 0
Core_0_DTLB_prefetch_accuracy 0
Core_0_DTLB_prefetch_coverage 0

Core_0_STLB_total_access 15678
Core_0_STLB_total_hit 188
Core_0_STLB_total_miss 15490
Core_0_STLB_total_MPKI 0.3098
Core_0_STLB_total_miss_rate 0.988009
Core_0_STLB_demand_access 15678
Core_0_STLB_demand_hit 188
Core_0_STLB_demand_miss 15490
Core_0_STLB_demand_MPKI 0.3098
Core_0_STLB_demand_miss_rate 0.988009
Core_0_STLB_load_access 15678
Core_0_STLB_load_hit 188
Core_0_STLB_load_miss 15490
Core_0_STLB_load_MPKI 0.3098
Core_0_STLB_load_miss_rate 0.988009
Core_0_STLB_rfo_access 0
Core_0_STLB_rfo_hit 0
Core_0_STLB_rfo_miss 0
Core_0_STLB_rfo_MPKI 0
Core_0_STLB_rfo_miss_rate 0
Core_0_STLB_prefetch_access 0
Core_0_STLB_prefetch_hit 0
Core_0_STLB_prefetch_miss 0
Core_0_STLB_prefetch_MPKI 0
Core_0_STLB_prefetch_miss_rate 0
Core_0_STLB_writeback_access 0
Core_0_STLB_writeback_hit 0
Core_0_STLB_writeback_miss 0
Core_0_STLB_writeback_MPKI 0
Core_0_STLB_writeback_miss_rate 0
Core_0_STLB_prefetch_requested 0
Core_0_STLB_prefetch_issued 0
Core_0_STLB_prefetch_useful 0
Core_0_STLB_prefetch_useless 0
Core_0_STLB_prefetch_late 0
Core_0_STLB_prefetch_accuracy 0
Core_0_STLB_prefetch_coverage 0

Core_0_L1I_total_access 2875033
Core_0_L1I_total_hit 2874995
Core_0_L1I_total_miss 38
Core_0_L1I_total_MPKI 0.00076
Core_0_L1I_total_miss_rate 1.32172e-05
Core_0_L1I_demand_access 2875033
Core_0_L1I_demand_hit 2874995
Core_0_L1I_demand_miss 38
Core_0_L1I_demand_MPKI 0.00076
Core_0_L1I_demand_miss_rate 1.32172e-05
Core_0_L1I_load_access 2875033
Core_0_L1I_load_hit 2874995
Core_0_L1I_load_miss 38
Core_0_L1I_load_MPKI 0.00076
Core_0_L1I_load_miss_rate 1.32172e-05
Core_0_L1I_rfo_access 0
Core_0_L1I_rfo_hit 0
Core_0_L1I_rfo_miss 0
Core_0_L1I_rfo_MPKI 0
Core_0_L1I_rfo_miss_rate 0
Core_0_L1I_prefetch_access 0
Core_0_L1I_prefetch_hit 0
Core_0_L1I_prefetch_miss 0
Core_0_L1I_prefetch_MPKI 0
Core_0_L1I_prefetch_miss_rate 0
Core_0_L1I_writeback_access 0
Core_0_L1I_writeback_hit 0
Core_0_L1I_writeback_miss 0
Core_0_L1I_writeback_MPKI 0
Core_0_L1I_writeback_miss_rate 0
Core_0_L1I_prefetch_requested 0
Core_0_L1I_prefetch_issued 0
Core_0_L1I_prefetch_useful 0
Core_0_L1I_prefetch_useless 0
Core_0_L1I_prefetch_late 0
Core_0_L1I_prefetch_accuracy 0
Core_0_L1I_prefetch_coverage 0

Core_0_L1D_total_access 13013878
Core_0_L1D_total_hit 4187516
Core_0_L1D_total_miss 8826362
Core_0_L1D_total_MPKI 176.527
Core_0_L1D_total_miss_rate 0.678227
Core_0_L1D_demand_access 5758303
Core_0_L1D_demand_hit 3576190
Core_0_L1D_demand_miss 2182113
Core_0_L1D_demand_MPKI 43.6423
Core_0_L1D_demand_miss_rate 0.378951
Core_0_L1D_load_access 5758303
Core_0_L1D_load_hit 3576190
Core_0_L1D_load_miss 2182113
Core_0_L1D_load_MPKI 43.6423
Core_0_L1D_load_miss_rate 0.378951
Core_0_L1D_rfo_access 0
Core_0_L1D_rfo_hit 0
Core_0_L1D_rfo_miss 0
Core_0_L1D_rfo_MPKI 0
Core_0_L1D_rfo_miss_rate 0
Core_0_L1D_prefetch_access 0
Core_0_L1D_prefetch_hit 0
Core_0_L1D_prefetch_miss 0
Core_0_L1D_prefetch_MPKI 0
Core_0_L1D_prefetch_miss_rate 0
Core_0_L1D_writeback_access 7255575
Core_0_L1D_writeback_hit 611326
Core_0_L1D_writeback_miss 6644249
Core_0_L1D_writeback_MPKI 132.885
Core_0_L1D_writeback_miss_rate 0.915744
Core_0_L1D_prefetch_requested 0
Core_0_L1D_prefetch_issued 0
Core_0_L1D_prefetch_useful 0
Core_0_L1D_prefetch_useless 0
Core_0_L1D_prefetch_late 0
Core_0_L1D_prefetch_accuracy 0
Core_0_L1D_prefetch_coverage 0

Core_0_L2C_total_access 1527941
Core_0_L2C_total_hit 546053
Core_0_L2C_total_miss 981888
Core_0_L2C_total_MPKI 19.6378
Core_0_L2C_total_miss_rate 0.642622
Core_0_L2C_demand_access 981895
Core_0_L2C_demand_hit 9
Core_0_L2C_demand_miss 981886
Core_0_L2C_demand_MPKI 19.6377
Core_0_L2C_demand_miss_rate 0.999991
Core_0_L2C_load_access 435622
Core_0_L2C_load_hit 9
Core_0_L2C_load_miss 435613
Core_0_L2C_load_MPKI 8.71226
Core_0_L2C_load_miss_rate 0.999979
Core_0_L2C_rfo_access 546273
Core_0_L2C_rfo_hit 0
Core_0_L2C_rfo_miss 546273
Core_0_L2C_rfo_MPKI 10.9255
Core_0_L2C_rfo_miss_rate 1
Core_0_L2C_prefetch_access 0
Core_0_L2C_prefetch_hit 0
Core_0_L2C_prefetch_miss 0
Core_0_L2C_prefetch_MPKI 0
Core_0_L2C_prefetch_miss_rate 0
Core_0_L2C_writeback_access 546046
Core_0_L2C_writeback_hit 546044
Core_0_L2C_writeback_miss 2
Core_0_L2C_writeback_MPKI 4e-05
Core_0_L2C_writeback_miss_rate 3.6627e-06
Core_0_L2C_prefetch_requested 0
Core_0_L2C_prefetch_issued 0
Core_0_L2C_prefetch_useful 0
Core_0_L2C_prefetch_useless 0
Core_0_L2C_prefetch_late 0
Core_0_L2C_prefetch_accuracy 0
Core_0_L2C_prefetch_coverage 0

Core_0_LLC_total_access 1524178
Core_0_LLC_total_hit 139296
Core_0_LLC_total_miss 1384882
Core_0_LLC_total_MPKI 27.6976
Core_0_LLC_total_miss_rate 0.908609
Core_0_LLC_demand_access 981885
Core_0_LLC_demand_hit 459
Core_0_LLC_demand_miss 981426
Core_0_LLC_demand_MPKI 19.6285
Core_0_LLC_demand_miss_rate 0.999533
Core_0_LLC_load_access 435613
Core_0_LLC_load_hit 453
Core_0_LLC_load_miss 435160
Core_0_LLC_load_MPKI 8.7032
Core_0_LLC_load_miss_rate 0.99896
Core_0_LLC_rfo_access 546272
Core_0_LLC_rfo_hit 6
Core_0_LLC_rfo_miss 546266
Core_0_LLC_rfo_MPKI 10.9253
Core_0_LLC_rfo_miss_rate 0.999989
Core_0_LLC_prefetch_access 0
Core_0_LLC_prefetch_hit 0
Core_0_LLC_prefetch_miss 0
Core_0_LLC_prefetch_MPKI 0
Core_0_LLC_prefetch_miss_rate 0
Core_0_LLC_writeback_access 542293
Core_0_LLC_writeback_hit 138837
Core_0_LLC_writeback_miss 403456
Core_0_LLC_writeback_MPKI 8.06912
Core_0_LLC_writeback_miss_rate 0.743982
Core_0_LLC_prefetch_requested 0
Core_0_LLC_prefetch_issued 0
Core_0_LLC_prefetch_useful 0
Core_0_LLC_prefetch_useless 0
Core_0_LLC_prefetch_late 0
Core_0_LLC_prefetch_accuracy 0
Core_0_LLC_prefetch_coverage 0

[DRAM Statistics]
Channel_0_RQ_row_buffer_hit 38296
Channel_0_RQ_row_buffer_miss 945101
Channel_0_WQ_row_buffer_hit 102971
Channel_0_WQ_row_buffer_miss 438838
Channel_0_WQ_full 0
Channel_0_dbus_congested 4959635
DRAM_total_RQ_row_buffer_hit 38296
DRAM_total_RQ_row_buffer_miss 945101
DRAM_total_WQ_row_buffer_hit 102971
DRAM_total_WQ_row_buffer_miss 438838
DRAM_total_WQ_full 0
DRAM_total_dbus_congested 4959635
DRAM_avg_congested_cycle 7.44322

======STLB miss causes ========
Core_0_STLB_miss_cause_breakdown
Core_0_STLB_cause_Demand_Data_miss 15487
Core_0_STLB_cause_Demand_Data_miss_rate 0.987817
Core_0_STLB_cause_Demand_Instruction_miss 3
Core_0_STLB_cause_Demand_Instruction_miss_rate 0.000191351
Core_0_STLB_cause_L1D_Prefetch_miss 0
Core_0_STLB_cause_L1D_Prefetch_miss_rate 0
Core_0_STLB_cause_L1I_Prefetch_miss 0
Core_0_STLB_cause_L1I_Prefetch_miss_rate 0
Core_0_STLB_cause_Other_miss 0
Core_0_STLB_cause_Other_miss_rate 0
Core_0_STLB_Demand_miss 15490
Core_0_STLB_Demand_miss_rate 0.988009
Core_0_STLB_L1D_Prefetch_miss 0
Core_0_STLB_L1D_Prefetch_miss_rate 0
Core_0_STLB_Other_miss 0
Core_0_STLB_Other_miss_rate 0
