[VMEM] WARNING: physical memory size is smaller than virtual memory size.

*** ChampSim Multicore Out-of-Order Simulator ***
Warmup Instructions: 20000000
Simulation Instructions: 50000000
Number of CPUs: 1
Page size: 4096
Core 0: /data0/tzh/champsim_traces/Ligra/ligra_BFS-Bitvector.com-lj.ungraph.gcc_6.3.0_O3.drop_23000M.length_250M.champsimtrace.xz
Off-chip DRAM Size: 4 GiB Channels: 1 Width: 64-bit Data Rate: 3205 MT/s
Warmup halting CPU 0 at instruction 20000004 cycle 4380266 for remainder of phase
Warmup finished CPU 0 instructions: 20000004 cycles: 4380266 cumulative IPC: 4.566 (Simulation time: 00 hr 00 min 50 sec)
Warmup complete CPU 0 instructions: 20000004 cycles: 4380266 cumulative IPC: 4.566 (Simulation time: 00 hr 00 min 50 sec)
Simulation finished CPU 0 instructions: 50000000 cycles: 68404263 cumulative IPC: 0.7309 (Simulation time: 00 hr 07 min 40 sec)
Simulation complete CPU 0 instructions: 50000000 cycles: 68404263 cumulative IPC: 0.7309 (Simulation time: 00 hr 07 min 40 sec)

ChampSim completed all CPUs

=== Simulation ===
CPU 0 runs /data0/tzh/champsim_traces/Ligra/ligra_BFS-Bitvector.com-lj.ungraph.gcc_6.3.0_O3.drop_23000M.length_250M.champsimtrace.xz

Region of Interest Statistics

CPU 0 cumulative IPC: 0.7309 instructions: 50000000 cycles: 68404263
CPU 0 Branch Prediction Accuracy: 95.8% MPKI: 9.858 Average ROB Occupancy at Mispredict: 146
Branch type MPKI
BRANCH_DIRECT_JUMP: 0
BRANCH_INDIRECT: 0
BRANCH_CONDITIONAL: 9.858
BRANCH_DIRECT_CALL: 0
BRANCH_INDIRECT_CALL: 0
BRANCH_RETURN: 0

cpu0->cpu0_STLB TOTAL        ACCESS:     926262 HIT:     919426 MISS:       6836 MSHR_MERGE:          0
cpu0->cpu0_STLB LOAD         ACCESS:     926262 HIT:     919426 MISS:       6836 MSHR_MERGE:          0
cpu0->cpu0_STLB RFO          ACCESS:          0 HIT:          0 MISS:          0 MSHR_MERGE:          0
cpu0->cpu0_STLB PREFETCH     ACCESS:          0 HIT:          0 MISS:          0 MSHR_MERGE:          0
cpu0->cpu0_STLB WRITE        ACCESS:          0 HIT:          0 MISS:          0 MSHR_MERGE:          0
cpu0->cpu0_STLB TRANSLATION  ACCESS:          0 HIT:          0 MISS:          0 MSHR_MERGE:          0
cpu0->cpu0_STLB PREFETCH REQUESTED:          0 ISSUED:          0 USEFUL:          0 USELESS:          0 LATE:          0
cpu0->cpu0_STLB AVERAGE MISS LATENCY: 242 cycles
cpu0->cpu0_L2C TOTAL        ACCESS:    1459476 HIT:     253297 MISS:    1206179 MSHR_MERGE:          0
cpu0->cpu0_L2C LOAD         ACCESS:    1408916 HIT:     227460 MISS:    1181456 MSHR_MERGE:          0
cpu0->cpu0_L2C RFO          ACCESS:      23671 HIT:          2 MISS:      23669 MSHR_MERGE:          0
cpu0->cpu0_L2C PREFETCH     ACCESS:          0 HIT:          0 MISS:          0 MSHR_MERGE:          0
cpu0->cpu0_L2C WRITE        ACCESS:      24607 HIT:      24606 MISS:          1 MSHR_MERGE:          0
cpu0->cpu0_L2C TRANSLATION  ACCESS:       2282 HIT:       1229 MISS:       1053 MSHR_MERGE:          0
cpu0->cpu0_L2C PREFETCH REQUESTED:          0 ISSUED:          0 USEFUL:          0 USELESS:          0 LATE:          0
cpu0->cpu0_L2C AVERAGE MISS LATENCY: 108.6 cycles
cpu0->cpu0_L1I TOTAL        ACCESS:    1055380 HIT:    1055380 MISS:          0 MSHR_MERGE:          0
cpu0->cpu0_L1I LOAD         ACCESS:    1055380 HIT:    1055380 MISS:          0 MSHR_MERGE:          0
cpu0->cpu0_L1I RFO          ACCESS:          0 HIT:          0 MISS:          0 MSHR_MERGE:          0
cpu0->cpu0_L1I PREFETCH     ACCESS:          0 HIT:          0 MISS:          0 MSHR_MERGE:          0
cpu0->cpu0_L1I WRITE        ACCESS:          0 HIT:          0 MISS:          0 MSHR_MERGE:          0
cpu0->cpu0_L1I TRANSLATION  ACCESS:          0 HIT:          0 MISS:          0 MSHR_MERGE:          0
cpu0->cpu0_L1I PREFETCH REQUESTED:          0 ISSUED:          0 USEFUL:          0 USELESS:          0 LATE:          0
cpu0->cpu0_L1I AVERAGE MISS LATENCY: - cycles
cpu0->cpu0_L1D TOTAL        ACCESS:   12308201 HIT:    8789528 MISS:    3518673 MSHR_MERGE:    2083805
cpu0->cpu0_L1D LOAD         ACCESS:   11071469 HIT:    7592052 MISS:    3479417 MSHR_MERGE:    2070502
cpu0->cpu0_L1D RFO          ACCESS:          0 HIT:          0 MISS:          0 MSHR_MERGE:          0
cpu0->cpu0_L1D PREFETCH     ACCESS:          0 HIT:          0 MISS:          0 MSHR_MERGE:          0
cpu0->cpu0_L1D WRITE        ACCESS:    1223049 HIT:    1186075 MISS:      36974 MSHR_MERGE:      13303
cpu0->cpu0_L1D TRANSLATION  ACCESS:      13683 HIT:      11401 MISS:       2282 MSHR_MERGE:          0
cpu0->cpu0_L1D PREFETCH REQUESTED:          0 ISSUED:          0 USEFUL:          0 USELESS:          0 LATE:          0
cpu0->cpu0_L1D AVERAGE MISS LATENCY: 100.1 cycles
cpu0->cpu0_ITLB TOTAL        ACCESS:    1039711 HIT:    1039711 MISS:          0 MSHR_MERGE:          0
cpu0->cpu0_ITLB LOAD         ACCESS:    1039711 HIT:    1039711 MISS:          0 MSHR_MERGE:          0
cpu0->cpu0_ITLB RFO          ACCESS:          0 HIT:          0 MISS:          0 MSHR_MERGE:          0
cpu0->cpu0_ITLB PREFETCH     ACCESS:          0 HIT:          0 MISS:          0 MSHR_MERGE:          0
cpu0->cpu0_ITLB WRITE        ACCESS:          0 HIT:          0 MISS:          0 MSHR_MERGE:          0
cpu0->cpu0_ITLB TRANSLATION  ACCESS:          0 HIT:          0 MISS:          0 MSHR_MERGE:          0
cpu0->cpu0_ITLB PREFETCH REQUESTED:          0 ISSUED:          0 USEFUL:          0 USELESS:          0 LATE:          0
cpu0->cpu0_ITLB AVERAGE MISS LATENCY: - cycles
cpu0->cpu0_DTLB TOTAL        ACCESS:   12174703 HIT:   11157101 MISS:    1017602 MSHR_MERGE:      91340
cpu0->cpu0_DTLB LOAD         ACCESS:   12174703 HIT:   11157101 MISS:    1017602 MSHR_MERGE:      91340
cpu0->cpu0_DTLB RFO          ACCESS:          0 HIT:          0 MISS:          0 MSHR_MERGE:          0
cpu0->cpu0_DTLB PREFETCH     ACCESS:          0 HIT:          0 MISS:          0 MSHR_MERGE:          0
cpu0->cpu0_DTLB WRITE        ACCESS:          0 HIT:          0 MISS:          0 MSHR_MERGE:          0
cpu0->cpu0_DTLB TRANSLATION  ACCESS:          0 HIT:          0 MISS:          0 MSHR_MERGE:          0
cpu0->cpu0_DTLB PREFETCH REQUESTED:          0 ISSUED:          0 USEFUL:          0 USELESS:          0 LATE:          0
cpu0->cpu0_DTLB AVERAGE MISS LATENCY: 6.798 cycles
cpu0->LLC TOTAL        ACCESS:    1230771 HIT:     619562 MISS:     611209 MSHR_MERGE:          0
cpu0->LLC LOAD         ACCESS:    1181456 HIT:     605968 MISS:     575488 MSHR_MERGE:          0
cpu0->LLC RFO          ACCESS:      23669 HIT:          0 MISS:      23669 MSHR_MERGE:          0
cpu0->LLC PREFETCH     ACCESS:          0 HIT:          0 MISS:          0 MSHR_MERGE:          0
cpu0->LLC WRITE        ACCESS:      24593 HIT:      13466 MISS:      11127 MSHR_MERGE:          0
cpu0->LLC TRANSLATION  ACCESS:       1053 HIT:        128 MISS:        925 MSHR_MERGE:          0
cpu0->LLC PREFETCH REQUESTED:          0 ISSUED:          0 USEFUL:          0 USELESS:          0 LATE:          0
cpu0->LLC AVERAGE MISS LATENCY: 183.8 cycles

DRAM Statistics

Channel 0 RQ ROW_BUFFER_HIT:       6239
  ROW_BUFFER_MISS:     593843
  AVG DBUS CONGESTED CYCLE: 19.08
Channel 0 WQ ROW_BUFFER_HIT:       9629
  ROW_BUFFER_MISS:      12315
  FULL:          0
Channel 0 REFRESHES ISSUED:       5700

[ROI Statistics]
[System Configuration]
num_cpus 1
cpu_freq 4000
fetch_width 6
decode_width 6
dispatch_width 6
execute_width 6
lq_width 2
sq_width 2
retire_width 6
scheduler_size 160
branch_mispredict_penalty 1
rob_size 352
lq_size 240
sq_size 112
ifetch_buffer_size 64
decode_buffer_size 32
dispatch_buffer_size 32
register_file_size 288
decode_latency 1
dispatch_latency 1
schedule_latency 0
execute_latency 0
page_size 4096
block_size 64
core_0_itlb_set 16
core_0_itlb_way 4
core_0_itlb_rq_size 16
core_0_itlb_wq_size 16
core_0_itlb_pq_size 0
core_0_itlb_mshr_size 8
core_0_itlb_hit_latency 1
core_0_itlb_fill_latency 1
core_0_itlb_max_tag_check 2
core_0_itlb_max_fill 2
core_0_dtlb_set 16
core_0_dtlb_way 4
core_0_dtlb_rq_size 16
core_0_dtlb_wq_size 16
core_0_dtlb_pq_size 0
core_0_dtlb_mshr_size 8
core_0_dtlb_hit_latency 1
core_0_dtlb_fill_latency 1
core_0_dtlb_max_tag_check 2
core_0_dtlb_max_fill 2
core_0_stlb_set 128
core_0_stlb_way 12
core_0_stlb_rq_size 32
core_0_stlb_wq_size 32
core_0_stlb_pq_size 0
core_0_stlb_mshr_size 16
core_0_stlb_hit_latency 4
core_0_stlb_fill_latency 4
core_0_stlb_max_tag_check 1
core_0_stlb_max_fill 1
core_0_l1i_set 64
core_0_l1i_way 8
core_0_l1i_rq_size 64
core_0_l1i_wq_size 64
core_0_l1i_pq_size 32
core_0_l1i_mshr_size 8
core_0_l1i_hit_latency 2
core_0_l1i_fill_latency 2
core_0_l1i_max_tag_check 2
core_0_l1i_max_fill 2
core_0_l1d_set 64
core_0_l1d_way 12
core_0_l1d_rq_size 64
core_0_l1d_wq_size 64
core_0_l1d_pq_size 8
core_0_l1d_mshr_size 16
core_0_l1d_hit_latency 2
core_0_l1d_fill_latency 3
core_0_l1d_max_tag_check 2
core_0_l1d_max_fill 2
core_0_l2c_set 1024
core_0_l2c_way 8
core_0_l2c_rq_size 32
core_0_l2c_wq_size 32
core_0_l2c_pq_size 16
core_0_l2c_mshr_size 32
core_0_l2c_hit_latency 5
core_0_l2c_fill_latency 5
core_0_l2c_max_tag_check 1
core_0_l2c_max_fill 1
llc_set 2048
llc_way 16
llc_rq_size 32
llc_wq_size 32
llc_pq_size 32
llc_mshr_size 64
llc_hit_latency 10
llc_fill_latency 10
llc_max_tag_check 1
llc_max_fill 1
dram_channels 1
dram_ranks 1
dram_bankgroups 8
dram_banks 4
dram_rows 16384
dram_columns 1024
dram_channel_width 8
dram_rq_size 64
dram_wq_size 64
dram_size 4294967296
core_0_itlb_prefetcher no
core_0_dtlb_prefetcher no
core_0_stlb_prefetcher no
core_0_l1i_prefetcher no
core_0_l1d_prefetcher no
core_0_l2c_prefetcher no
llc_prefetcher no
llc_replacement drrip

Core_0_instructions 50000000
Core_0_cycles 68404263
Core_0_IPC 0.730949
Core_0_branch_prediction_accuracy 95.7971
Core_0_branch_MPKI 9.8579
Core_0_average_ROB_occupancy_at_mispredict 146.013

Core_0_ITLB_total_access 1039711
Core_0_ITLB_total_hit 1039711
Core_0_ITLB_total_miss 0
Core_0_ITLB_total_MPKI 0
Core_0_ITLB_total_miss_rate 0
Core_0_ITLB_demand_access 1039711
Core_0_ITLB_demand_hit 1039711
Core_0_ITLB_demand_miss 0
Core_0_ITLB_demand_MPKI 0
Core_0_ITLB_demand_miss_rate 0
Core_0_ITLB_load_access 1039711
Core_0_ITLB_load_hit 1039711
Core_0_ITLB_load_miss 0
Core_0_ITLB_load_MPKI 0
Core_0_ITLB_load_miss_rate 0
Core_0_ITLB_rfo_access 0
Core_0_ITLB_rfo_hit 0
Core_0_ITLB_rfo_miss 0
Core_0_ITLB_rfo_MPKI 0
Core_0_ITLB_rfo_miss_rate 0
Core_0_ITLB_prefetch_access 0
Core_0_ITLB_prefetch_hit 0
Core_0_ITLB_prefetch_miss 0
Core_0_ITLB_prefetch_MPKI 0
Core_0_ITLB_prefetch_miss_rate 0
Core_0_ITLB_writeback_access 0
Core_0_ITLB_writeback_hit 0
Core_0_ITLB_writeback_miss 0
Core_0_ITLB_writeback_MPKI 0
Core_0_ITLB_writeback_miss_rate 0
Core_0_ITLB_prefetch_requested 0
Core_0_ITLB_prefetch_issued 0
Core_0_ITLB_prefetch_useful 0
Core_0_ITLB_prefetch_useless 0
Core_0_ITLB_prefetch_late 0
Core_0_ITLB_prefetch_accuracy 0
Core_0_ITLB_prefetch_coverage 0

Core_0_DTLB_total_access 12174703
Core_0_DTLB_total_hit 11157101
Core_0_DTLB_total_miss 1017602
Core_0_DTLB_total_MPKI 20.352
Core_0_DTLB_total_miss_rate 0.0835833
Core_0_DTLB_demand_access 12174703
Core_0_DTLB_demand_hit 11157101
Core_0_DTLB_demand_miss 1017602
Core_0_DTLB_demand_MPKI 20.352
Core_0_DTLB_demand_miss_rate 0.0835833
Core_0_DTLB_load_access 12174703
Core_0_DTLB_load_hit 11157101
Core_0_DTLB_load_miss 1017602
Core_0_DTLB_load_MPKI 20.352
Core_0_DTLB_load_miss_rate 0.0835833
Core_0_DTLB_rfo_access 0
Core_0_DTLB_rfo_hit 0
Core_0_DTLB_rfo_miss 0
Core_0_DTLB_rfo_MPKI 0
Core_0_DTLB_rfo_miss_rate 0
Core_0_DTLB_prefetch_access 0
Core_0_DTLB_prefetch_hit 0
Core_0_DTLB_prefetch_miss 0
Core_0_DTLB_prefetch_MPKI 0
Core_0_DTLB_prefetch_miss_rate 0
Core_0_DTLB_writeback_access 0
Core_0_DTLB_writeback_hit 0
Core_0_DTLB_writeback_miss 0
Core_0_DTLB_writeback_MPKI 0
Core_0_DTLB_writeback_miss_rate 0
Core_0_DTLB_prefetch_requested 0
Core_0_DTLB_prefetch_issued 0
Core_0_DTLB_prefetch_useful 0
Core_0_DTLB_prefetch_useless 0
Core_0_DTLB_prefetch_late 0
Core_0_DTLB_prefetch_accuracy 0
Core_0_DTLB_prefetch_coverage 0

Core_0_STLB_total_access 926262
Core_0_STLB_total_hit 919426
Core_0_STLB_total_miss 6836
Core_0_STLB_total_MPKI 0.13672
Core_0_STLB_total_miss_rate 0.0073802
Core_0_STLB_demand_access 926262
Core_0_STLB_demand_hit 919426
Core_0_STLB_demand_miss 6836
Core_0_STLB_demand_MPKI 0.13672
Core_0_STLB_demand_miss_rate 0.0073802
Core_0_STLB_load_access 926262
Core_0_STLB_load_hit 919426
Core_0_STLB_load_miss 6836
Core_0_STLB_load_MPKI 0.13672
Core_0_STLB_load_miss_rate 0.0073802
Core_0_STLB_rfo_access 0
Core_0_STLB_rfo_hit 0
Core_0_STLB_rfo_miss 0
Core_0_STLB_rfo_MPKI 0
Core_0_STLB_rfo_miss_rate 0
Core_0_STLB_prefetch_access 0
Core_0_STLB_prefetch_hit 0
Core_0_STLB_prefetch_miss 0
Core_0_STLB_prefetch_MPKI 0
Core_0_STLB_prefetch_miss_rate 0
Core_0_STLB_writeback_access 0
Core_0_STLB_writeback_hit 0
Core_0_STLB_writeback_miss 0
Core_0_STLB_writeback_MPKI 0
Core_0_STLB_writeback_miss_rate 0
Core_0_STLB_prefetch_requested 0
Core_0_STLB_prefetch_issued 0
Core_0_STLB_prefetch_useful 0
Core_0_STLB_prefetch_useless 0
Core_0_STLB_prefetch_late 0
Core_0_STLB_prefetch_accuracy 0
Core_0_STLB_prefetch_coverage 0

Core_0_L1I_total_access 1055380
Core_0_L1I_total_hit 1055380
Core_0_L1I_total_miss 0
Core_0_L1I_total_MPKI 0
Core_0_L1I_total_miss_rate 0
Core_0_L1I_demand_access 1055380
Core_0_L1I_demand_hit 1055380
Core_0_L1I_demand_miss 0
Core_0_L1I_demand_MPKI 0
Core_0_L1I_demand_miss_rate 0
Core_0_L1I_load_access 1055380
Core_0_L1I_load_hit 1055380
Core_0_L1I_load_miss 0
Core_0_L1I_load_MPKI 0
Core_0_L1I_load_miss_rate 0
Core_0_L1I_rfo_access 0
Core_0_L1I_rfo_hit 0
Core_0_L1I_rfo_miss 0
Core_0_L1I_rfo_MPKI 0
Core_0_L1I_rfo_miss_rate 0
Core_0_L1I_prefetch_access 0
Core_0_L1I_prefetch_hit 0
Core_0_L1I_prefetch_miss 0
Core_0_L1I_prefetch_MPKI 0
Core_0_L1I_prefetch_miss_rate 0
Core_0_L1I_writeback_access 0
Core_0_L1I_writeback_hit 0
Core_0_L1I_writeback_miss 0
Core_0_L1I_writeback_MPKI 0
Core_0_L1I_writeback_miss_rate 0
Core_0_L1I_prefetch_requested 0
Core_0_L1I_prefetch_issued 0
Core_0_L1I_prefetch_useful 0
Core_0_L1I_prefetch_useless 0
Core_0_L1I_prefetch_late 0
Core_0_L1I_prefetch_accuracy 0
Core_0_L1I_prefetch_coverage 0

Core_0_L1D_total_access 12294518
Core_0_L1D_total_hit 8778127
Core_0_L1D_total_miss 3516391
Core_0_L1D_total_MPKI 70.3278
Core_0_L1D_total_miss_rate 0.286013
Core_0_L1D_demand_access 11071469
Core_0_L1D_demand_hit 7592052
Core_0_L1D_demand_miss 3479417
Core_0_L1D_demand_MPKI 69.5883
Core_0_L1D_demand_miss_rate 0.314269
Core_0_L1D_load_access 11071469
Core_0_L1D_load_hit 7592052
Core_0_L1D_load_miss 3479417
Core_0_L1D_load_MPKI 69.5883
Core_0_L1D_load_miss_rate 0.314269
Core_0_L1D_rfo_access 0
Core_0_L1D_rfo_hit 0
Core_0_L1D_rfo_miss 0
Core_0_L1D_rfo_MPKI 0
Core_0_L1D_rfo_miss_rate 0
Core_0_L1D_prefetch_access 0
Core_0_L1D_prefetch_hit 0
Core_0_L1D_prefetch_miss 0
Core_0_L1D_prefetch_MPKI 0
Core_0_L1D_prefetch_miss_rate 0
Core_0_L1D_writeback_access 1223049
Core_0_L1D_writeback_hit 1186075
Core_0_L1D_writeback_miss 36974
Core_0_L1D_writeback_MPKI 0.73948
Core_0_L1D_writeback_miss_rate 0.030231
Core_0_L1D_prefetch_requested 0
Core_0_L1D_prefetch_issued 0
Core_0_L1D_prefetch_useful 0
Core_0_L1D_prefetch_useless 0
Core_0_L1D_prefetch_late 0
Core_0_L1D_prefetch_accuracy 0
Core_0_L1D_prefetch_coverage 0

Core_0_L2C_total_access 1457194
Core_0_L2C_total_hit 252068
Core_0_L2C_total_miss 1205126
Core_0_L2C_total_MPKI 24.1025
Core_0_L2C_total_miss_rate 0.827018
Core_0_L2C_demand_access 1432587
Core_0_L2C_demand_hit 227462
Core_0_L2C_demand_miss 1205125
Core_0_L2C_demand_MPKI 24.1025
Core_0_L2C_demand_miss_rate 0.841223
Core_0_L2C_load_access 1408916
Core_0_L2C_load_hit 227460
Core_0_L2C_load_miss 1181456
Core_0_L2C_load_MPKI 23.6291
Core_0_L2C_load_miss_rate 0.838557
Core_0_L2C_rfo_access 23671
Core_0_L2C_rfo_hit 2
Core_0_L2C_rfo_miss 23669
Core_0_L2C_rfo_MPKI 0.47338
Core_0_L2C_rfo_miss_rate 0.999916
Core_0_L2C_prefetch_access 0
Core_0_L2C_prefetch_hit 0
Core_0_L2C_prefetch_miss 0
Core_0_L2C_prefetch_MPKI 0
Core_0_L2C_prefetch_miss_rate 0
Core_0_L2C_writeback_access 24607
Core_0_L2C_writeback_hit 24606
Core_0_L2C_writeback_miss 1
Core_0_L2C_writeback_MPKI 2e-05
Core_0_L2C_writeback_miss_rate 4.06388e-05
Core_0_L2C_prefetch_requested 0
Core_0_L2C_prefetch_issued 0
Core_0_L2C_prefetch_useful 0
Core_0_L2C_prefetch_useless 0
Core_0_L2C_prefetch_late 0
Core_0_L2C_prefetch_accuracy 0
Core_0_L2C_prefetch_coverage 0

Core_0_LLC_total_access 1229718
Core_0_LLC_total_hit 619434
Core_0_LLC_total_miss 610284
Core_0_LLC_total_MPKI 12.2057
Core_0_LLC_total_miss_rate 0.49628
Core_0_LLC_demand_access 1205125
Core_0_LLC_demand_hit 605968
Core_0_LLC_demand_miss 599157
Core_0_LLC_demand_MPKI 11.9831
Core_0_LLC_demand_miss_rate 0.497174
Core_0_LLC_load_access 1181456
Core_0_LLC_load_hit 605968
Core_0_LLC_load_miss 575488
Core_0_LLC_load_MPKI 11.5098
Core_0_LLC_load_miss_rate 0.487101
Core_0_LLC_rfo_access 23669
Core_0_LLC_rfo_hit 0
Core_0_LLC_rfo_miss 23669
Core_0_LLC_rfo_MPKI 0.47338
Core_0_LLC_rfo_miss_rate 1
Core_0_LLC_prefetch_access 0
Core_0_LLC_prefetch_hit 0
Core_0_LLC_prefetch_miss 0
Core_0_LLC_prefetch_MPKI 0
Core_0_LLC_prefetch_miss_rate 0
Core_0_LLC_writeback_access 24593
Core_0_LLC_writeback_hit 13466
Core_0_LLC_writeback_miss 11127
Core_0_LLC_writeback_MPKI 0.22254
Core_0_LLC_writeback_miss_rate 0.452446
Core_0_LLC_prefetch_requested 0
Core_0_LLC_prefetch_issued 0
Core_0_LLC_prefetch_useful 0
Core_0_LLC_prefetch_useless 0
Core_0_LLC_prefetch_late 0
Core_0_LLC_prefetch_accuracy 0
Core_0_LLC_prefetch_coverage 0

[DRAM Statistics]
Channel_0_RQ_row_buffer_hit 6239
Channel_0_RQ_row_buffer_miss 593843
Channel_0_WQ_row_buffer_hit 9629
Channel_0_WQ_row_buffer_miss 12315
Channel_0_WQ_full 0
Channel_0_dbus_congested 904361
DRAM_total_RQ_row_buffer_hit 6239
DRAM_total_RQ_row_buffer_miss 593843
DRAM_total_WQ_row_buffer_hit 9629
DRAM_total_WQ_row_buffer_miss 12315
DRAM_total_WQ_full 0
DRAM_total_dbus_congested 904361
DRAM_avg_congested_cycle 19.081

======STLB miss causes ========
Core_0_STLB_miss_cause_breakdown
Core_0_STLB_cause_Demand_Data_miss 6836
Core_0_STLB_cause_Demand_Data_miss_rate 0.0073802
Core_0_STLB_cause_Demand_Instruction_miss 0
Core_0_STLB_cause_Demand_Instruction_miss_rate 0
Core_0_STLB_cause_L1D_Prefetch_miss 0
Core_0_STLB_cause_L1D_Prefetch_miss_rate 0
Core_0_STLB_cause_L1I_Prefetch_miss 0
Core_0_STLB_cause_L1I_Prefetch_miss_rate 0
Core_0_STLB_cause_Other_miss 0
Core_0_STLB_cause_Other_miss_rate 0
Core_0_STLB_Demand_miss 6836
Core_0_STLB_Demand_miss_rate 0.0073802
Core_0_STLB_L1D_Prefetch_miss 0
Core_0_STLB_L1D_Prefetch_miss_rate 0
Core_0_STLB_Other_miss 0
Core_0_STLB_Other_miss_rate 0
