[VMEM] WARNING: physical memory size is smaller than virtual memory size.

*** ChampSim Multicore Out-of-Order Simulator ***
Warmup Instructions: 100000000
Simulation Instructions: 200000000
Number of CPUs: 1
Page size: 4096
STLB ideal mode: off
Core 0: /data0/tzh/champsim_traces/Ligra/ligra_Components.com-lj.ungraph.gcc_6.3.0_O3.drop_6250M.length_250M.champsimtrace.xz
 L1D Berti prefetcher
Off-chip DRAM Size: 16 GiB Channels: 1 Width: 64-bit Data Rate: 3205 MT/s
Warmup halting CPU 0 at instruction 100000004 cycle 37392136 for remainder of phase
Warmup finished CPU 0 instructions: 100000004 cycles: 37392136 cumulative IPC: 2.674 (Simulation time: 00 hr 07 min 28 sec)
Warmup complete CPU 0 instructions: 100000004 cycles: 37392136 cumulative IPC: 2.674 (Simulation time: 00 hr 07 min 28 sec)
*** Reached end of trace: (0, "/data0/tzh/champsim_traces/Ligra/ligra_Components.com-lj.ungraph.gcc_6.3.0_O3.drop_6250M.length_250M.champsimtrace.xz")
Simulation finished CPU 0 instructions: 200000001 cycles: 175652083 cumulative IPC: 1.139 (Simulation time: 00 hr 33 min 21 sec)
Simulation complete CPU 0 instructions: 200000001 cycles: 175652083 cumulative IPC: 1.139 (Simulation time: 00 hr 33 min 21 sec)

ChampSim completed all CPUs

=== Simulation ===
CPU 0 runs /data0/tzh/champsim_traces/Ligra/ligra_Components.com-lj.ungraph.gcc_6.3.0_O3.drop_6250M.length_250M.champsimtrace.xz

Region of Interest Statistics

CPU 0 cumulative IPC: 1.139 instructions: 200000001 cycles: 175652083
CPU 0 Branch Prediction Accuracy: 99.15% MPKI: 2.254 Average ROB Occupancy at Mispredict: 155
Branch type MPKI
BRANCH_DIRECT_JUMP: 0
BRANCH_INDIRECT: 0
BRANCH_CONDITIONAL: 2.254
BRANCH_DIRECT_CALL: 0
BRANCH_INDIRECT_CALL: 0
BRANCH_RETURN: 0

cpu0->cpu0_STLB TOTAL        ACCESS:      58716 HIT:          0 MISS:      58716 MSHR_MERGE:          0
cpu0->cpu0_STLB LOAD         ACCESS:      58716 HIT:          0 MISS:      58716 MSHR_MERGE:          0
cpu0->cpu0_STLB RFO          ACCESS:          0 HIT:          0 MISS:          0 MSHR_MERGE:          0
cpu0->cpu0_STLB PREFETCH     ACCESS:          0 HIT:          0 MISS:          0 MSHR_MERGE:          0
cpu0->cpu0_STLB WRITE        ACCESS:          0 HIT:          0 MISS:          0 MSHR_MERGE:          0
cpu0->cpu0_STLB TRANSLATION  ACCESS:          0 HIT:          0 MISS:          0 MSHR_MERGE:          0
cpu0->cpu0_STLB PREFETCH REQUESTED:          0 ISSUED:          0 USEFUL:          0 USELESS:          0 LATE:          0
cpu0->cpu0_STLB AVERAGE MISS LATENCY: 110.4 cycles
cpu0->cpu0_L2C TOTAL        ACCESS:   12943022 HIT:    5398528 MISS:    7544494 MSHR_MERGE:    3779241
cpu0->cpu0_L2C LOAD         ACCESS:    1095553 HIT:     549510 MISS:     546043 MSHR_MERGE:     455048
cpu0->cpu0_L2C RFO          ACCESS:    1821772 HIT:          0 MISS:    1821772 MSHR_MERGE:          0
cpu0->cpu0_L2C PREFETCH     ACCESS:    8196722 HIT:    3027504 MISS:    5169218 MSHR_MERGE:    3324193
cpu0->cpu0_L2C WRITE        ACCESS:    1821516 HIT:    1821513 MISS:          3 MSHR_MERGE:          0
cpu0->cpu0_L2C TRANSLATION  ACCESS:       7459 HIT:          1 MISS:       7458 MSHR_MERGE:          0
cpu0->cpu0_L2C PREFETCH REQUESTED:    7701008 ISSUED:    7356262 USEFUL:    1384092 USELESS:     347851 LATE:     455048
cpu0->cpu0_L2C AVERAGE MISS LATENCY: 532.6 cycles
cpu0->cpu0_L1I TOTAL        ACCESS:    5702099 HIT:    5702099 MISS:          0 MSHR_MERGE:          0
cpu0->cpu0_L1I LOAD         ACCESS:    5702099 HIT:    5702099 MISS:          0 MSHR_MERGE:          0
cpu0->cpu0_L1I RFO          ACCESS:          0 HIT:          0 MISS:          0 MSHR_MERGE:          0
cpu0->cpu0_L1I PREFETCH     ACCESS:          0 HIT:          0 MISS:          0 MSHR_MERGE:          0
cpu0->cpu0_L1I WRITE        ACCESS:          0 HIT:          0 MISS:          0 MSHR_MERGE:          0
cpu0->cpu0_L1I TRANSLATION  ACCESS:          0 HIT:          0 MISS:          0 MSHR_MERGE:          0
cpu0->cpu0_L1I PREFETCH REQUESTED:          0 ISSUED:          0 USEFUL:          0 USELESS:          0 LATE:          0
cpu0->cpu0_L1I AVERAGE MISS LATENCY: - cycles
cpu0->cpu0_L1D TOTAL        ACCESS:   30852614 HIT:   20760005 MISS:   10092609 MSHR_MERGE:    6327361
cpu0->cpu0_L1D LOAD         ACCESS:   15388016 HIT:   13469928 MISS:    1918088 MSHR_MERGE:     822535
cpu0->cpu0_L1D RFO          ACCESS:          0 HIT:          0 MISS:          0 MSHR_MERGE:          0
cpu0->cpu0_L1D PREFETCH     ACCESS:    1279699 HIT:     284780 MISS:     994919 MSHR_MERGE:     154456
cpu0->cpu0_L1D WRITE        ACCESS:   14067348 HIT:    6895205 MISS:    7172143 MSHR_MERGE:    5350370
cpu0->cpu0_L1D TRANSLATION  ACCESS:     117551 HIT:     110092 MISS:       7459 MSHR_MERGE:          0
cpu0->cpu0_L1D PREFETCH REQUESTED:    1845203 ISSUED:    1279707 USEFUL:     840463 USELESS:          2 LATE:     249424
cpu0->cpu0_L1D AVERAGE MISS LATENCY: 434.9 cycles
cpu0->cpu0_ITLB TOTAL        ACCESS:    5698316 HIT:    5698316 MISS:          0 MSHR_MERGE:          0
cpu0->cpu0_ITLB LOAD         ACCESS:    5698316 HIT:    5698316 MISS:          0 MSHR_MERGE:          0
cpu0->cpu0_ITLB RFO          ACCESS:          0 HIT:          0 MISS:          0 MSHR_MERGE:          0
cpu0->cpu0_ITLB PREFETCH     ACCESS:          0 HIT:          0 MISS:          0 MSHR_MERGE:          0
cpu0->cpu0_ITLB WRITE        ACCESS:          0 HIT:          0 MISS:          0 MSHR_MERGE:          0
cpu0->cpu0_ITLB TRANSLATION  ACCESS:          0 HIT:          0 MISS:          0 MSHR_MERGE:          0
cpu0->cpu0_ITLB PREFETCH REQUESTED:          0 ISSUED:          0 USEFUL:          0 USELESS:          0 LATE:          0
cpu0->cpu0_ITLB AVERAGE MISS LATENCY: - cycles
cpu0->cpu0_DTLB TOTAL        ACCESS:   29122501 HIT:   28593732 MISS:     528769 MSHR_MERGE:     470053
cpu0->cpu0_DTLB LOAD         ACCESS:   29122501 HIT:   28593732 MISS:     528769 MSHR_MERGE:     470053
cpu0->cpu0_DTLB RFO          ACCESS:          0 HIT:          0 MISS:          0 MSHR_MERGE:          0
cpu0->cpu0_DTLB PREFETCH     ACCESS:          0 HIT:          0 MISS:          0 MSHR_MERGE:          0
cpu0->cpu0_DTLB WRITE        ACCESS:          0 HIT:          0 MISS:          0 MSHR_MERGE:          0
cpu0->cpu0_DTLB TRANSLATION  ACCESS:          0 HIT:          0 MISS:          0 MSHR_MERGE:          0
cpu0->cpu0_DTLB PREFETCH REQUESTED:          0 ISSUED:          0 USEFUL:          0 USELESS:          0 LATE:          0
cpu0->cpu0_DTLB AVERAGE MISS LATENCY: 116.4 cycles
cpu0->LLC TOTAL        ACCESS:    5584795 HIT:    1599163 MISS:    3985632 MSHR_MERGE:          0
cpu0->LLC LOAD         ACCESS:      90995 HIT:          0 MISS:      90995 MSHR_MERGE:          0
cpu0->LLC RFO          ACCESS:    1821772 HIT:          0 MISS:    1821772 MSHR_MERGE:          0
cpu0->LLC PREFETCH     ACCESS:    1845025 HIT:          0 MISS:    1845025 MSHR_MERGE:          0
cpu0->LLC WRITE        ACCESS:    1819545 HIT:    1599161 MISS:     220384 MSHR_MERGE:          0
cpu0->LLC TRANSLATION  ACCESS:       7458 HIT:          2 MISS:       7456 MSHR_MERGE:          0
cpu0->LLC PREFETCH REQUESTED:          0 ISSUED:          0 USEFUL:          0 USELESS:          0 LATE:          0
cpu0->LLC AVERAGE MISS LATENCY: 495.4 cycles

DRAM Statistics

Channel 0 RQ ROW_BUFFER_HIT:     199800
  ROW_BUFFER_MISS:    3565432
  AVG DBUS CONGESTED CYCLE: 5.793
Channel 0 WQ ROW_BUFFER_HIT:     160757
  ROW_BUFFER_MISS:    1658601
  FULL:          0
Channel 0 REFRESHES ISSUED:      14637

[ROI Statistics]
[System Configuration]
num_cpus 1
cpu_freq 4000
fetch_width 6
decode_width 6
dispatch_width 6
execute_width 6
lq_width 2
sq_width 2
retire_width 6
scheduler_size 128
branch_mispredict_penalty 15
rob_size 352
lq_size 128
sq_size 72
ifetch_buffer_size 64
decode_buffer_size 32
dispatch_buffer_size 32
register_file_size 288
decode_latency 1
dispatch_latency 1
schedule_latency 1
execute_latency 1
page_size 4096
block_size 64
core_0_itlb_set 16
core_0_itlb_way 4
core_0_itlb_rq_size 16
core_0_itlb_wq_size 16
core_0_itlb_pq_size 0
core_0_itlb_mshr_size 8
core_0_itlb_hit_latency 1
core_0_itlb_fill_latency 1
core_0_itlb_max_tag_check 2
core_0_itlb_max_fill 2
core_0_dtlb_set 16
core_0_dtlb_way 4
core_0_dtlb_rq_size 16
core_0_dtlb_wq_size 16
core_0_dtlb_pq_size 0
core_0_dtlb_mshr_size 8
core_0_dtlb_hit_latency 1
core_0_dtlb_fill_latency 1
core_0_dtlb_max_tag_check 2
core_0_dtlb_max_fill 2
core_0_stlb_set 128
core_0_stlb_way 12
core_0_stlb_rq_size 32
core_0_stlb_wq_size 32
core_0_stlb_pq_size 0
core_0_stlb_mshr_size 16
core_0_stlb_hit_latency 4
core_0_stlb_fill_latency 4
core_0_stlb_max_tag_check 1
core_0_stlb_max_fill 1
core_0_l1i_set 64
core_0_l1i_way 8
core_0_l1i_rq_size 64
core_0_l1i_wq_size 64
core_0_l1i_pq_size 32
core_0_l1i_mshr_size 8
core_0_l1i_hit_latency 2
core_0_l1i_fill_latency 2
core_0_l1i_max_tag_check 2
core_0_l1i_max_fill 2
core_0_l1d_set 64
core_0_l1d_way 12
core_0_l1d_rq_size 64
core_0_l1d_wq_size 64
core_0_l1d_pq_size 8
core_0_l1d_mshr_size 16
core_0_l1d_hit_latency 2
core_0_l1d_fill_latency 3
core_0_l1d_max_tag_check 2
core_0_l1d_max_fill 2
core_0_l2c_set 1024
core_0_l2c_way 8
core_0_l2c_rq_size 32
core_0_l2c_wq_size 32
core_0_l2c_pq_size 16
core_0_l2c_mshr_size 32
core_0_l2c_hit_latency 5
core_0_l2c_fill_latency 5
core_0_l2c_max_tag_check 1
core_0_l2c_max_fill 1
llc_set 2048
llc_way 16
llc_rq_size 32
llc_wq_size 32
llc_pq_size 32
llc_mshr_size 64
llc_hit_latency 10
llc_fill_latency 10
llc_max_tag_check 1
llc_max_fill 1
dram_channels 1
dram_ranks 1
dram_bankgroups 8
dram_banks 4
dram_rows 65536
dram_columns 1024
dram_channel_width 8
dram_rq_size 64
dram_wq_size 64
dram_size 17179869184
core_0_itlb_prefetcher no
core_0_dtlb_prefetcher no
core_0_stlb_prefetcher no
core_0_l1i_prefetcher next_line
core_0_l1d_prefetcher berti
core_0_l2c_prefetcher pythia
llc_prefetcher no
llc_replacement drrip

Core_0_instructions 200000001
Core_0_cycles 175652083
Core_0_IPC 1.13861
Core_0_branch_prediction_accuracy 99.151
Core_0_branch_MPKI 2.25379
Core_0_average_ROB_occupancy_at_mispredict 155.028

Core_0_ITLB_total_access 5698316
Core_0_ITLB_total_hit 5698316
Core_0_ITLB_total_miss 0
Core_0_ITLB_total_MPKI 0
Core_0_ITLB_total_miss_rate 0
Core_0_ITLB_demand_access 5698316
Core_0_ITLB_demand_hit 5698316
Core_0_ITLB_demand_miss 0
Core_0_ITLB_demand_MPKI 0
Core_0_ITLB_demand_miss_rate 0
Core_0_ITLB_load_access 5698316
Core_0_ITLB_load_hit 5698316
Core_0_ITLB_load_miss 0
Core_0_ITLB_load_MPKI 0
Core_0_ITLB_load_miss_rate 0
Core_0_ITLB_rfo_access 0
Core_0_ITLB_rfo_hit 0
Core_0_ITLB_rfo_miss 0
Core_0_ITLB_rfo_MPKI 0
Core_0_ITLB_rfo_miss_rate 0
Core_0_ITLB_prefetch_access 0
Core_0_ITLB_prefetch_hit 0
Core_0_ITLB_prefetch_miss 0
Core_0_ITLB_prefetch_MPKI 0
Core_0_ITLB_prefetch_miss_rate 0
Core_0_ITLB_writeback_access 0
Core_0_ITLB_writeback_hit 0
Core_0_ITLB_writeback_miss 0
Core_0_ITLB_writeback_MPKI 0
Core_0_ITLB_writeback_miss_rate 0
Core_0_ITLB_prefetch_requested 0
Core_0_ITLB_prefetch_issued 0
Core_0_ITLB_prefetch_useful 0
Core_0_ITLB_prefetch_useless 0
Core_0_ITLB_prefetch_late 0
Core_0_ITLB_prefetch_accuracy 0
Core_0_ITLB_prefetch_coverage 0

Core_0_DTLB_total_access 29122501
Core_0_DTLB_total_hit 28593732
Core_0_DTLB_total_miss 528769
Core_0_DTLB_total_MPKI 2.64384
Core_0_DTLB_total_miss_rate 0.0181567
Core_0_DTLB_demand_access 29122501
Core_0_DTLB_demand_hit 28593732
Core_0_DTLB_demand_miss 528769
Core_0_DTLB_demand_MPKI 2.64384
Core_0_DTLB_demand_miss_rate 0.0181567
Core_0_DTLB_load_access 29122501
Core_0_DTLB_load_hit 28593732
Core_0_DTLB_load_miss 528769
Core_0_DTLB_load_MPKI 2.64384
Core_0_DTLB_load_miss_rate 0.0181567
Core_0_DTLB_rfo_access 0
Core_0_DTLB_rfo_hit 0
Core_0_DTLB_rfo_miss 0
Core_0_DTLB_rfo_MPKI 0
Core_0_DTLB_rfo_miss_rate 0
Core_0_DTLB_prefetch_access 0
Core_0_DTLB_prefetch_hit 0
Core_0_DTLB_prefetch_miss 0
Core_0_DTLB_prefetch_MPKI 0
Core_0_DTLB_prefetch_miss_rate 0
Core_0_DTLB_writeback_access 0
Core_0_DTLB_writeback_hit 0
Core_0_DTLB_writeback_miss 0
Core_0_DTLB_writeback_MPKI 0
Core_0_DTLB_writeback_miss_rate 0
Core_0_DTLB_prefetch_requested 0
Core_0_DTLB_prefetch_issued 0
Core_0_DTLB_prefetch_useful 0
Core_0_DTLB_prefetch_useless 0
Core_0_DTLB_prefetch_late 0
Core_0_DTLB_prefetch_accuracy 0
Core_0_DTLB_prefetch_coverage 0

Core_0_STLB_total_access 58716
Core_0_STLB_total_hit 0
Core_0_STLB_total_miss 58716
Core_0_STLB_total_MPKI 0.29358
Core_0_STLB_total_miss_rate 1
Core_0_STLB_demand_access 58716
Core_0_STLB_demand_hit 0
Core_0_STLB_demand_miss 58716
Core_0_STLB_demand_MPKI 0.29358
Core_0_STLB_demand_miss_rate 1
Core_0_STLB_load_access 58716
Core_0_STLB_load_hit 0
Core_0_STLB_load_miss 58716
Core_0_STLB_load_MPKI 0.29358
Core_0_STLB_load_miss_rate 1
Core_0_STLB_rfo_access 0
Core_0_STLB_rfo_hit 0
Core_0_STLB_rfo_miss 0
Core_0_STLB_rfo_MPKI 0
Core_0_STLB_rfo_miss_rate 0
Core_0_STLB_prefetch_access 0
Core_0_STLB_prefetch_hit 0
Core_0_STLB_prefetch_miss 0
Core_0_STLB_prefetch_MPKI 0
Core_0_STLB_prefetch_miss_rate 0
Core_0_STLB_writeback_access 0
Core_0_STLB_writeback_hit 0
Core_0_STLB_writeback_miss 0
Core_0_STLB_writeback_MPKI 0
Core_0_STLB_writeback_miss_rate 0
Core_0_STLB_prefetch_requested 0
Core_0_STLB_prefetch_issued 0
Core_0_STLB_prefetch_useful 0
Core_0_STLB_prefetch_useless 0
Core_0_STLB_prefetch_late 0
Core_0_STLB_prefetch_accuracy 0
Core_0_STLB_prefetch_coverage 0

Core_0_L1I_total_access 5702099
Core_0_L1I_total_hit 5702099
Core_0_L1I_total_miss 0
Core_0_L1I_total_MPKI 0
Core_0_L1I_total_miss_rate 0
Core_0_L1I_demand_access 5702099
Core_0_L1I_demand_hit 5702099
Core_0_L1I_demand_miss 0
Core_0_L1I_demand_MPKI 0
Core_0_L1I_demand_miss_rate 0
Core_0_L1I_load_access 5702099
Core_0_L1I_load_hit 5702099
Core_0_L1I_load_miss 0
Core_0_L1I_load_MPKI 0
Core_0_L1I_load_miss_rate 0
Core_0_L1I_rfo_access 0
Core_0_L1I_rfo_hit 0
Core_0_L1I_rfo_miss 0
Core_0_L1I_rfo_MPKI 0
Core_0_L1I_rfo_miss_rate 0
Core_0_L1I_prefetch_access 0
Core_0_L1I_prefetch_hit 0
Core_0_L1I_prefetch_miss 0
Core_0_L1I_prefetch_MPKI 0
Core_0_L1I_prefetch_miss_rate 0
Core_0_L1I_writeback_access 0
Core_0_L1I_writeback_hit 0
Core_0_L1I_writeback_miss 0
Core_0_L1I_writeback_MPKI 0
Core_0_L1I_writeback_miss_rate 0
Core_0_L1I_prefetch_requested 0
Core_0_L1I_prefetch_issued 0
Core_0_L1I_prefetch_useful 0
Core_0_L1I_prefetch_useless 0
Core_0_L1I_prefetch_late 0
Core_0_L1I_prefetch_accuracy 0
Core_0_L1I_prefetch_coverage 0

Core_0_L1D_total_access 30735063
Core_0_L1D_total_hit 20649913
Core_0_L1D_total_miss 10085150
Core_0_L1D_total_MPKI 50.4257
Core_0_L1D_total_miss_rate 0.328132
Core_0_L1D_demand_access 15388016
Core_0_L1D_demand_hit 13469928
Core_0_L1D_demand_miss 1918088
Core_0_L1D_demand_MPKI 9.59044
Core_0_L1D_demand_miss_rate 0.124648
Core_0_L1D_load_access 15388016
Core_0_L1D_load_hit 13469928
Core_0_L1D_load_miss 1918088
Core_0_L1D_load_MPKI 9.59044
Core_0_L1D_load_miss_rate 0.124648
Core_0_L1D_rfo_access 0
Core_0_L1D_rfo_hit 0
Core_0_L1D_rfo_miss 0
Core_0_L1D_rfo_MPKI 0
Core_0_L1D_rfo_miss_rate 0
Core_0_L1D_prefetch_access 1279699
Core_0_L1D_prefetch_hit 284780
Core_0_L1D_prefetch_miss 994919
Core_0_L1D_prefetch_MPKI 4.97459
Core_0_L1D_prefetch_miss_rate 0.777463
Core_0_L1D_writeback_access 14067348
Core_0_L1D_writeback_hit 6895205
Core_0_L1D_writeback_miss 7172143
Core_0_L1D_writeback_MPKI 35.8607
Core_0_L1D_writeback_miss_rate 0.509843
Core_0_L1D_prefetch_requested 1845203
Core_0_L1D_prefetch_issued 1279707
Core_0_L1D_prefetch_useful 840463
Core_0_L1D_prefetch_useless 2
Core_0_L1D_prefetch_late 249424
Core_0_L1D_prefetch_accuracy 0.656762
Core_0_L1D_prefetch_coverage 0.304676

Core_0_L2C_total_access 12935563
Core_0_L2C_total_hit 5398527
Core_0_L2C_total_miss 7537036
Core_0_L2C_total_MPKI 37.6852
Core_0_L2C_total_miss_rate 0.58266
Core_0_L2C_demand_access 2917325
Core_0_L2C_demand_hit 549510
Core_0_L2C_demand_miss 2367815
Core_0_L2C_demand_MPKI 11.8391
Core_0_L2C_demand_miss_rate 0.811639
Core_0_L2C_load_access 1095553
Core_0_L2C_load_hit 549510
Core_0_L2C_load_miss 546043
Core_0_L2C_load_MPKI 2.73021
Core_0_L2C_load_miss_rate 0.498418
Core_0_L2C_rfo_access 1821772
Core_0_L2C_rfo_hit 0
Core_0_L2C_rfo_miss 1821772
Core_0_L2C_rfo_MPKI 9.10886
Core_0_L2C_rfo_miss_rate 1
Core_0_L2C_prefetch_access 8196722
Core_0_L2C_prefetch_hit 3027504
Core_0_L2C_prefetch_miss 5169218
Core_0_L2C_prefetch_MPKI 25.8461
Core_0_L2C_prefetch_miss_rate 0.630645
Core_0_L2C_writeback_access 1821516
Core_0_L2C_writeback_hit 1821513
Core_0_L2C_writeback_miss 3
Core_0_L2C_writeback_MPKI 1.5e-05
Core_0_L2C_writeback_miss_rate 1.64698e-06
Core_0_L2C_prefetch_requested 7701008
Core_0_L2C_prefetch_issued 7356262
Core_0_L2C_prefetch_useful 1384092
Core_0_L2C_prefetch_useless 347851
Core_0_L2C_prefetch_late 455048
Core_0_L2C_prefetch_accuracy 0.188152
Core_0_L2C_prefetch_coverage 0.368904

Core_0_LLC_total_access 5577337
Core_0_LLC_total_hit 1599161
Core_0_LLC_total_miss 3978176
Core_0_LLC_total_MPKI 19.8909
Core_0_LLC_total_miss_rate 0.713275
Core_0_LLC_demand_access 1912767
Core_0_LLC_demand_hit 0
Core_0_LLC_demand_miss 1912767
Core_0_LLC_demand_MPKI 9.56383
Core_0_LLC_demand_miss_rate 1
Core_0_LLC_load_access 90995
Core_0_LLC_load_hit 0
Core_0_LLC_load_miss 90995
Core_0_LLC_load_MPKI 0.454975
Core_0_LLC_load_miss_rate 1
Core_0_LLC_rfo_access 1821772
Core_0_LLC_rfo_hit 0
Core_0_LLC_rfo_miss 1821772
Core_0_LLC_rfo_MPKI 9.10886
Core_0_LLC_rfo_miss_rate 1
Core_0_LLC_prefetch_access 1845025
Core_0_LLC_prefetch_hit 0
Core_0_LLC_prefetch_miss 1845025
Core_0_LLC_prefetch_MPKI 9.22512
Core_0_LLC_prefetch_miss_rate 1
Core_0_LLC_writeback_access 1819545
Core_0_LLC_writeback_hit 1599161
Core_0_LLC_writeback_miss 220384
Core_0_LLC_writeback_MPKI 1.10192
Core_0_LLC_writeback_miss_rate 0.12112
Core_0_LLC_prefetch_requested 0
Core_0_LLC_prefetch_issued 0
Core_0_LLC_prefetch_useful 0
Core_0_LLC_prefetch_useless 0
Core_0_LLC_prefetch_late 0
Core_0_LLC_prefetch_accuracy 0
Core_0_LLC_prefetch_coverage 0

[DRAM Statistics]
Channel_0_RQ_row_buffer_hit 199800
Channel_0_RQ_row_buffer_miss 3565432
Channel_0_WQ_row_buffer_hit 160757
Channel_0_WQ_row_buffer_miss 1658601
Channel_0_WQ_full 0
Channel_0_dbus_congested 18502700
DRAM_total_RQ_row_buffer_hit 199800
DRAM_total_RQ_row_buffer_miss 3565432
DRAM_total_WQ_row_buffer_hit 160757
DRAM_total_WQ_row_buffer_miss 1658601
DRAM_total_WQ_full 0
DRAM_total_dbus_congested 18502700
DRAM_avg_congested_cycle 5.79253

======STLB miss causes ========
Core_0_STLB_miss_cause_breakdown
Core_0_STLB_cause_Demand_Data_miss 58715
Core_0_STLB_cause_Demand_Data_miss_rate 0.999983
Core_0_STLB_cause_Demand_Instruction_miss 0
Core_0_STLB_cause_Demand_Instruction_miss_rate 0
Core_0_STLB_cause_L1D_Prefetch_miss 1
Core_0_STLB_cause_L1D_Prefetch_miss_rate 1.70311e-05
Core_0_STLB_cause_L1I_Prefetch_miss 0
Core_0_STLB_cause_L1I_Prefetch_miss_rate 0
Core_0_STLB_cause_Other_miss 0
Core_0_STLB_cause_Other_miss_rate 0
Core_0_STLB_Demand_miss 58715
Core_0_STLB_Demand_miss_rate 0.999983
Core_0_STLB_L1D_Prefetch_miss 1
Core_0_STLB_L1D_Prefetch_miss_rate 1.70311e-05
Core_0_STLB_Other_miss 0
Core_0_STLB_Other_miss_rate 0
