[VMEM] WARNING: physical memory size is smaller than virtual memory size.

*** ChampSim Multicore Out-of-Order Simulator ***
Warmup Instructions: 20000000
Simulation Instructions: 50000000
Number of CPUs: 1
Page size: 4096
Core 0: /data0/tzh/champsim_traces/SPEC06/403.gcc-48B.champsimtrace.xz
Off-chip DRAM Size: 4 GiB Channels: 1 Width: 64-bit Data Rate: 3205 MT/s
Warmup halting CPU 0 at instruction 20000005 cycle 4536253 for remainder of phase
Warmup finished CPU 0 instructions: 20000005 cycles: 4536253 cumulative IPC: 4.409 (Simulation time: 00 hr 00 min 49 sec)
Warmup complete CPU 0 instructions: 20000005 cycles: 4536253 cumulative IPC: 4.409 (Simulation time: 00 hr 00 min 49 sec)
Simulation finished CPU 0 instructions: 50000000 cycles: 15909888 cumulative IPC: 3.143 (Simulation time: 00 hr 04 min 14 sec)
Simulation complete CPU 0 instructions: 50000000 cycles: 15909888 cumulative IPC: 3.143 (Simulation time: 00 hr 04 min 14 sec)

ChampSim completed all CPUs

=== Simulation ===
CPU 0 runs /data0/tzh/champsim_traces/SPEC06/403.gcc-48B.champsimtrace.xz

Region of Interest Statistics

CPU 0 cumulative IPC: 3.143 instructions: 50000000 cycles: 15909888
CPU 0 Branch Prediction Accuracy: 99.68% MPKI: 0.7076 Average ROB Occupancy at Mispredict: 97.16
Branch type MPKI
BRANCH_DIRECT_JUMP: 0.0004
BRANCH_INDIRECT: 2e-05
BRANCH_CONDITIONAL: 0.6999
BRANCH_DIRECT_CALL: 0.00362
BRANCH_INDIRECT_CALL: 4e-05
BRANCH_RETURN: 0.00356

cpu0->cpu0_STLB TOTAL        ACCESS:       9766 HIT:       8710 MISS:       1056 MSHR_MERGE:          0
cpu0->cpu0_STLB LOAD         ACCESS:       9766 HIT:       8710 MISS:       1056 MSHR_MERGE:          0
cpu0->cpu0_STLB RFO          ACCESS:          0 HIT:          0 MISS:          0 MSHR_MERGE:          0
cpu0->cpu0_STLB PREFETCH     ACCESS:          0 HIT:          0 MISS:          0 MSHR_MERGE:          0
cpu0->cpu0_STLB WRITE        ACCESS:          0 HIT:          0 MISS:          0 MSHR_MERGE:          0
cpu0->cpu0_STLB TRANSLATION  ACCESS:          0 HIT:          0 MISS:          0 MSHR_MERGE:          0
cpu0->cpu0_STLB PREFETCH REQUESTED:          0 ISSUED:          0 USEFUL:          0 USELESS:          0 LATE:          0
cpu0->cpu0_STLB AVERAGE MISS LATENCY: 221.1 cycles
cpu0->cpu0_L2C TOTAL        ACCESS:      48563 HIT:      36436 MISS:      12127 MSHR_MERGE:          0
cpu0->cpu0_L2C LOAD         ACCESS:      41578 HIT:      31155 MISS:      10423 MSHR_MERGE:          0
cpu0->cpu0_L2C RFO          ACCESS:       1650 HIT:        135 MISS:       1515 MSHR_MERGE:          0
cpu0->cpu0_L2C PREFETCH     ACCESS:          0 HIT:          0 MISS:          0 MSHR_MERGE:          0
cpu0->cpu0_L2C WRITE        ACCESS:       4410 HIT:       4406 MISS:          4 MSHR_MERGE:          0
cpu0->cpu0_L2C TRANSLATION  ACCESS:        925 HIT:        740 MISS:        185 MSHR_MERGE:          0
cpu0->cpu0_L2C PREFETCH REQUESTED:          0 ISSUED:          0 USEFUL:          0 USELESS:          0 LATE:          0
cpu0->cpu0_L2C AVERAGE MISS LATENCY: 165.2 cycles
cpu0->cpu0_L1I TOTAL        ACCESS:    9973594 HIT:    9973593 MISS:          1 MSHR_MERGE:          0
cpu0->cpu0_L1I LOAD         ACCESS:    9973594 HIT:    9973593 MISS:          1 MSHR_MERGE:          0
cpu0->cpu0_L1I RFO          ACCESS:          0 HIT:          0 MISS:          0 MSHR_MERGE:          0
cpu0->cpu0_L1I PREFETCH     ACCESS:          0 HIT:          0 MISS:          0 MSHR_MERGE:          0
cpu0->cpu0_L1I WRITE        ACCESS:          0 HIT:          0 MISS:          0 MSHR_MERGE:          0
cpu0->cpu0_L1I TRANSLATION  ACCESS:          0 HIT:          0 MISS:          0 MSHR_MERGE:          0
cpu0->cpu0_L1I PREFETCH REQUESTED:          0 ISSUED:          0 USEFUL:          0 USELESS:          0 LATE:          0
cpu0->cpu0_L1I AVERAGE MISS LATENCY: 165 cycles
cpu0->cpu0_L1D TOTAL        ACCESS:   13871378 HIT:   13814184 MISS:      57194 MSHR_MERGE:      13042
cpu0->cpu0_L1D LOAD         ACCESS:    4876494 HIT:    4827946 MISS:      48548 MSHR_MERGE:       6971
cpu0->cpu0_L1D RFO          ACCESS:          0 HIT:          0 MISS:          0 MSHR_MERGE:          0
cpu0->cpu0_L1D PREFETCH     ACCESS:          0 HIT:          0 MISS:          0 MSHR_MERGE:          0
cpu0->cpu0_L1D WRITE        ACCESS:    8992772 HIT:    8985051 MISS:       7721 MSHR_MERGE:       6071
cpu0->cpu0_L1D TRANSLATION  ACCESS:       2112 HIT:       1187 MISS:        925 MSHR_MERGE:          0
cpu0->cpu0_L1D PREFETCH REQUESTED:          0 ISSUED:          0 USEFUL:          0 USELESS:          0 LATE:          0
cpu0->cpu0_L1D AVERAGE MISS LATENCY: 53.64 cycles
cpu0->cpu0_ITLB TOTAL        ACCESS:    8510408 HIT:    8510408 MISS:          0 MSHR_MERGE:          0
cpu0->cpu0_ITLB LOAD         ACCESS:    8510408 HIT:    8510408 MISS:          0 MSHR_MERGE:          0
cpu0->cpu0_ITLB RFO          ACCESS:          0 HIT:          0 MISS:          0 MSHR_MERGE:          0
cpu0->cpu0_ITLB PREFETCH     ACCESS:          0 HIT:          0 MISS:          0 MSHR_MERGE:          0
cpu0->cpu0_ITLB WRITE        ACCESS:          0 HIT:          0 MISS:          0 MSHR_MERGE:          0
cpu0->cpu0_ITLB TRANSLATION  ACCESS:          0 HIT:          0 MISS:          0 MSHR_MERGE:          0
cpu0->cpu0_ITLB PREFETCH REQUESTED:          0 ISSUED:          0 USEFUL:          0 USELESS:          0 LATE:          0
cpu0->cpu0_ITLB AVERAGE MISS LATENCY: - cycles
cpu0->cpu0_DTLB TOTAL        ACCESS:   12259149 HIT:   12246729 MISS:      12420 MSHR_MERGE:       2654
cpu0->cpu0_DTLB LOAD         ACCESS:   12259149 HIT:   12246729 MISS:      12420 MSHR_MERGE:       2654
cpu0->cpu0_DTLB RFO          ACCESS:          0 HIT:          0 MISS:          0 MSHR_MERGE:          0
cpu0->cpu0_DTLB PREFETCH     ACCESS:          0 HIT:          0 MISS:          0 MSHR_MERGE:          0
cpu0->cpu0_DTLB WRITE        ACCESS:          0 HIT:          0 MISS:          0 MSHR_MERGE:          0
cpu0->cpu0_DTLB TRANSLATION  ACCESS:          0 HIT:          0 MISS:          0 MSHR_MERGE:          0
cpu0->cpu0_DTLB PREFETCH REQUESTED:          0 ISSUED:          0 USEFUL:          0 USELESS:          0 LATE:          0
cpu0->cpu0_DTLB AVERAGE MISS LATENCY: 29.01 cycles
cpu0->LLC TOTAL        ACCESS:      14806 HIT:       2922 MISS:      11884 MSHR_MERGE:          0
cpu0->LLC LOAD         ACCESS:      10423 HIT:        120 MISS:      10303 MSHR_MERGE:          0
cpu0->LLC RFO          ACCESS:       1515 HIT:          0 MISS:       1515 MSHR_MERGE:          0
cpu0->LLC PREFETCH     ACCESS:          0 HIT:          0 MISS:          0 MSHR_MERGE:          0
cpu0->LLC WRITE        ACCESS:       2683 HIT:       2683 MISS:          0 MSHR_MERGE:          0
cpu0->LLC TRANSLATION  ACCESS:        185 HIT:        119 MISS:         66 MSHR_MERGE:          0
cpu0->LLC PREFETCH REQUESTED:          0 ISSUED:          0 USEFUL:          0 USELESS:          0 LATE:          0
cpu0->LLC AVERAGE MISS LATENCY: 152.2 cycles

DRAM Statistics

Channel 0 RQ ROW_BUFFER_HIT:          0
  ROW_BUFFER_MISS:      11884
  AVG DBUS CONGESTED CYCLE: 2.676
Channel 0 WQ ROW_BUFFER_HIT:          0
  ROW_BUFFER_MISS:          0
  FULL:          0
Channel 0 REFRESHES ISSUED:       1325

[ROI Statistics]
[System Configuration]
num_cpus 1
cpu_freq 4000
fetch_width 6
decode_width 6
dispatch_width 6
execute_width 6
lq_width 2
sq_width 2
retire_width 6
scheduler_size 160
branch_mispredict_penalty 1
rob_size 352
lq_size 240
sq_size 112
ifetch_buffer_size 64
decode_buffer_size 32
dispatch_buffer_size 32
register_file_size 288
decode_latency 1
dispatch_latency 1
schedule_latency 0
execute_latency 0
page_size 4096
block_size 64
core_0_itlb_set 16
core_0_itlb_way 4
core_0_itlb_rq_size 16
core_0_itlb_wq_size 16
core_0_itlb_pq_size 0
core_0_itlb_mshr_size 8
core_0_itlb_hit_latency 1
core_0_itlb_fill_latency 1
core_0_itlb_max_tag_check 2
core_0_itlb_max_fill 2
core_0_dtlb_set 16
core_0_dtlb_way 4
core_0_dtlb_rq_size 16
core_0_dtlb_wq_size 16
core_0_dtlb_pq_size 0
core_0_dtlb_mshr_size 8
core_0_dtlb_hit_latency 1
core_0_dtlb_fill_latency 1
core_0_dtlb_max_tag_check 2
core_0_dtlb_max_fill 2
core_0_stlb_set 128
core_0_stlb_way 12
core_0_stlb_rq_size 32
core_0_stlb_wq_size 32
core_0_stlb_pq_size 0
core_0_stlb_mshr_size 16
core_0_stlb_hit_latency 4
core_0_stlb_fill_latency 4
core_0_stlb_max_tag_check 1
core_0_stlb_max_fill 1
core_0_l1i_set 64
core_0_l1i_way 8
core_0_l1i_rq_size 64
core_0_l1i_wq_size 64
core_0_l1i_pq_size 32
core_0_l1i_mshr_size 8
core_0_l1i_hit_latency 2
core_0_l1i_fill_latency 2
core_0_l1i_max_tag_check 2
core_0_l1i_max_fill 2
core_0_l1d_set 64
core_0_l1d_way 12
core_0_l1d_rq_size 64
core_0_l1d_wq_size 64
core_0_l1d_pq_size 8
core_0_l1d_mshr_size 16
core_0_l1d_hit_latency 2
core_0_l1d_fill_latency 3
core_0_l1d_max_tag_check 2
core_0_l1d_max_fill 2
core_0_l2c_set 1024
core_0_l2c_way 8
core_0_l2c_rq_size 32
core_0_l2c_wq_size 32
core_0_l2c_pq_size 16
core_0_l2c_mshr_size 32
core_0_l2c_hit_latency 5
core_0_l2c_fill_latency 5
core_0_l2c_max_tag_check 1
core_0_l2c_max_fill 1
llc_set 2048
llc_way 16
llc_rq_size 32
llc_wq_size 32
llc_pq_size 32
llc_mshr_size 64
llc_hit_latency 10
llc_fill_latency 10
llc_max_tag_check 1
llc_max_fill 1
dram_channels 1
dram_ranks 1
dram_bankgroups 8
dram_banks 4
dram_rows 16384
dram_columns 1024
dram_channel_width 8
dram_rq_size 64
dram_wq_size 64
dram_size 4294967296
core_0_itlb_prefetcher no
core_0_dtlb_prefetcher no
core_0_stlb_prefetcher no
core_0_l1i_prefetcher no
core_0_l1d_prefetcher no
core_0_l2c_prefetcher no
llc_prefetcher no
llc_replacement drrip

Core_0_instructions 50000000
Core_0_cycles 15909888
Core_0_IPC 3.1427
Core_0_branch_prediction_accuracy 99.6824
Core_0_branch_MPKI 0.70756
Core_0_average_ROB_occupancy_at_mispredict 97.1589

Core_0_ITLB_total_access 8510408
Core_0_ITLB_total_hit 8510408
Core_0_ITLB_total_miss 0
Core_0_ITLB_total_MPKI 0
Core_0_ITLB_total_miss_rate 0
Core_0_ITLB_demand_access 8510408
Core_0_ITLB_demand_hit 8510408
Core_0_ITLB_demand_miss 0
Core_0_ITLB_demand_MPKI 0
Core_0_ITLB_demand_miss_rate 0
Core_0_ITLB_load_access 8510408
Core_0_ITLB_load_hit 8510408
Core_0_ITLB_load_miss 0
Core_0_ITLB_load_MPKI 0
Core_0_ITLB_load_miss_rate 0
Core_0_ITLB_rfo_access 0
Core_0_ITLB_rfo_hit 0
Core_0_ITLB_rfo_miss 0
Core_0_ITLB_rfo_MPKI 0
Core_0_ITLB_rfo_miss_rate 0
Core_0_ITLB_prefetch_access 0
Core_0_ITLB_prefetch_hit 0
Core_0_ITLB_prefetch_miss 0
Core_0_ITLB_prefetch_MPKI 0
Core_0_ITLB_prefetch_miss_rate 0
Core_0_ITLB_writeback_access 0
Core_0_ITLB_writeback_hit 0
Core_0_ITLB_writeback_miss 0
Core_0_ITLB_writeback_MPKI 0
Core_0_ITLB_writeback_miss_rate 0
Core_0_ITLB_prefetch_requested 0
Core_0_ITLB_prefetch_issued 0
Core_0_ITLB_prefetch_useful 0
Core_0_ITLB_prefetch_useless 0
Core_0_ITLB_prefetch_late 0
Core_0_ITLB_prefetch_accuracy 0
Core_0_ITLB_prefetch_coverage 0

Core_0_DTLB_total_access 12259149
Core_0_DTLB_total_hit 12246729
Core_0_DTLB_total_miss 12420
Core_0_DTLB_total_MPKI 0.2484
Core_0_DTLB_total_miss_rate 0.00101312
Core_0_DTLB_demand_access 12259149
Core_0_DTLB_demand_hit 12246729
Core_0_DTLB_demand_miss 12420
Core_0_DTLB_demand_MPKI 0.2484
Core_0_DTLB_demand_miss_rate 0.00101312
Core_0_DTLB_load_access 12259149
Core_0_DTLB_load_hit 12246729
Core_0_DTLB_load_miss 12420
Core_0_DTLB_load_MPKI 0.2484
Core_0_DTLB_load_miss_rate 0.00101312
Core_0_DTLB_rfo_access 0
Core_0_DTLB_rfo_hit 0
Core_0_DTLB_rfo_miss 0
Core_0_DTLB_rfo_MPKI 0
Core_0_DTLB_rfo_miss_rate 0
Core_0_DTLB_prefetch_access 0
Core_0_DTLB_prefetch_hit 0
Core_0_DTLB_prefetch_miss 0
Core_0_DTLB_prefetch_MPKI 0
Core_0_DTLB_prefetch_miss_rate 0
Core_0_DTLB_writeback_access 0
Core_0_DTLB_writeback_hit 0
Core_0_DTLB_writeback_miss 0
Core_0_DTLB_writeback_MPKI 0
Core_0_DTLB_writeback_miss_rate 0
Core_0_DTLB_prefetch_requested 0
Core_0_DTLB_prefetch_issued 0
Core_0_DTLB_prefetch_useful 0
Core_0_DTLB_prefetch_useless 0
Core_0_DTLB_prefetch_late 0
Core_0_DTLB_prefetch_accuracy 0
Core_0_DTLB_prefetch_coverage 0

Core_0_STLB_total_access 9766
Core_0_STLB_total_hit 8710
Core_0_STLB_total_miss 1056
Core_0_STLB_total_MPKI 0.02112
Core_0_STLB_total_miss_rate 0.10813
Core_0_STLB_demand_access 9766
Core_0_STLB_demand_hit 8710
Core_0_STLB_demand_miss 1056
Core_0_STLB_demand_MPKI 0.02112
Core_0_STLB_demand_miss_rate 0.10813
Core_0_STLB_load_access 9766
Core_0_STLB_load_hit 8710
Core_0_STLB_load_miss 1056
Core_0_STLB_load_MPKI 0.02112
Core_0_STLB_load_miss_rate 0.10813
Core_0_STLB_rfo_access 0
Core_0_STLB_rfo_hit 0
Core_0_STLB_rfo_miss 0
Core_0_STLB_rfo_MPKI 0
Core_0_STLB_rfo_miss_rate 0
Core_0_STLB_prefetch_access 0
Core_0_STLB_prefetch_hit 0
Core_0_STLB_prefetch_miss 0
Core_0_STLB_prefetch_MPKI 0
Core_0_STLB_prefetch_miss_rate 0
Core_0_STLB_writeback_access 0
Core_0_STLB_writeback_hit 0
Core_0_STLB_writeback_miss 0
Core_0_STLB_writeback_MPKI 0
Core_0_STLB_writeback_miss_rate 0
Core_0_STLB_prefetch_requested 0
Core_0_STLB_prefetch_issued 0
Core_0_STLB_prefetch_useful 0
Core_0_STLB_prefetch_useless 0
Core_0_STLB_prefetch_late 0
Core_0_STLB_prefetch_accuracy 0
Core_0_STLB_prefetch_coverage 0

Core_0_L1I_total_access 9973594
Core_0_L1I_total_hit 9973593
Core_0_L1I_total_miss 1
Core_0_L1I_total_MPKI 2e-05
Core_0_L1I_total_miss_rate 1.00265e-07
Core_0_L1I_demand_access 9973594
Core_0_L1I_demand_hit 9973593
Core_0_L1I_demand_miss 1
Core_0_L1I_demand_MPKI 2e-05
Core_0_L1I_demand_miss_rate 1.00265e-07
Core_0_L1I_load_access 9973594
Core_0_L1I_load_hit 9973593
Core_0_L1I_load_miss 1
Core_0_L1I_load_MPKI 2e-05
Core_0_L1I_load_miss_rate 1.00265e-07
Core_0_L1I_rfo_access 0
Core_0_L1I_rfo_hit 0
Core_0_L1I_rfo_miss 0
Core_0_L1I_rfo_MPKI 0
Core_0_L1I_rfo_miss_rate 0
Core_0_L1I_prefetch_access 0
Core_0_L1I_prefetch_hit 0
Core_0_L1I_prefetch_miss 0
Core_0_L1I_prefetch_MPKI 0
Core_0_L1I_prefetch_miss_rate 0
Core_0_L1I_writeback_access 0
Core_0_L1I_writeback_hit 0
Core_0_L1I_writeback_miss 0
Core_0_L1I_writeback_MPKI 0
Core_0_L1I_writeback_miss_rate 0
Core_0_L1I_prefetch_requested 0
Core_0_L1I_prefetch_issued 0
Core_0_L1I_prefetch_useful 0
Core_0_L1I_prefetch_useless 0
Core_0_L1I_prefetch_late 0
Core_0_L1I_prefetch_accuracy 0
Core_0_L1I_prefetch_coverage 0

Core_0_L1D_total_access 13869266
Core_0_L1D_total_hit 13812997
Core_0_L1D_total_miss 56269
Core_0_L1D_total_MPKI 1.12538
Core_0_L1D_total_miss_rate 0.0040571
Core_0_L1D_demand_access 4876494
Core_0_L1D_demand_hit 4827946
Core_0_L1D_demand_miss 48548
Core_0_L1D_demand_MPKI 0.97096
Core_0_L1D_demand_miss_rate 0.00995551
Core_0_L1D_load_access 4876494
Core_0_L1D_load_hit 4827946
Core_0_L1D_load_miss 48548
Core_0_L1D_load_MPKI 0.97096
Core_0_L1D_load_miss_rate 0.00995551
Core_0_L1D_rfo_access 0
Core_0_L1D_rfo_hit 0
Core_0_L1D_rfo_miss 0
Core_0_L1D_rfo_MPKI 0
Core_0_L1D_rfo_miss_rate 0
Core_0_L1D_prefetch_access 0
Core_0_L1D_prefetch_hit 0
Core_0_L1D_prefetch_miss 0
Core_0_L1D_prefetch_MPKI 0
Core_0_L1D_prefetch_miss_rate 0
Core_0_L1D_writeback_access 8992772
Core_0_L1D_writeback_hit 8985051
Core_0_L1D_writeback_miss 7721
Core_0_L1D_writeback_MPKI 0.15442
Core_0_L1D_writeback_miss_rate 0.000858578
Core_0_L1D_prefetch_requested 0
Core_0_L1D_prefetch_issued 0
Core_0_L1D_prefetch_useful 0
Core_0_L1D_prefetch_useless 0
Core_0_L1D_prefetch_late 0
Core_0_L1D_prefetch_accuracy 0
Core_0_L1D_prefetch_coverage 0

Core_0_L2C_total_access 47638
Core_0_L2C_total_hit 35696
Core_0_L2C_total_miss 11942
Core_0_L2C_total_MPKI 0.23884
Core_0_L2C_total_miss_rate 0.250682
Core_0_L2C_demand_access 43228
Core_0_L2C_demand_hit 31290
Core_0_L2C_demand_miss 11938
Core_0_L2C_demand_MPKI 0.23876
Core_0_L2C_demand_miss_rate 0.276164
Core_0_L2C_load_access 41578
Core_0_L2C_load_hit 31155
Core_0_L2C_load_miss 10423
Core_0_L2C_load_MPKI 0.20846
Core_0_L2C_load_miss_rate 0.250685
Core_0_L2C_rfo_access 1650
Core_0_L2C_rfo_hit 135
Core_0_L2C_rfo_miss 1515
Core_0_L2C_rfo_MPKI 0.0303
Core_0_L2C_rfo_miss_rate 0.918182
Core_0_L2C_prefetch_access 0
Core_0_L2C_prefetch_hit 0
Core_0_L2C_prefetch_miss 0
Core_0_L2C_prefetch_MPKI 0
Core_0_L2C_prefetch_miss_rate 0
Core_0_L2C_writeback_access 4410
Core_0_L2C_writeback_hit 4406
Core_0_L2C_writeback_miss 4
Core_0_L2C_writeback_MPKI 8e-05
Core_0_L2C_writeback_miss_rate 0.000907029
Core_0_L2C_prefetch_requested 0
Core_0_L2C_prefetch_issued 0
Core_0_L2C_prefetch_useful 0
Core_0_L2C_prefetch_useless 0
Core_0_L2C_prefetch_late 0
Core_0_L2C_prefetch_accuracy 0
Core_0_L2C_prefetch_coverage 0

Core_0_LLC_total_access 14621
Core_0_LLC_total_hit 2803
Core_0_LLC_total_miss 11818
Core_0_LLC_total_MPKI 0.23636
Core_0_LLC_total_miss_rate 0.808289
Core_0_LLC_demand_access 11938
Core_0_LLC_demand_hit 120
Core_0_LLC_demand_miss 11818
Core_0_LLC_demand_MPKI 0.23636
Core_0_LLC_demand_miss_rate 0.989948
Core_0_LLC_load_access 10423
Core_0_LLC_load_hit 120
Core_0_LLC_load_miss 10303
Core_0_LLC_load_MPKI 0.20606
Core_0_LLC_load_miss_rate 0.988487
Core_0_LLC_rfo_access 1515
Core_0_LLC_rfo_hit 0
Core_0_LLC_rfo_miss 1515
Core_0_LLC_rfo_MPKI 0.0303
Core_0_LLC_rfo_miss_rate 1
Core_0_LLC_prefetch_access 0
Core_0_LLC_prefetch_hit 0
Core_0_LLC_prefetch_miss 0
Core_0_LLC_prefetch_MPKI 0
Core_0_LLC_prefetch_miss_rate 0
Core_0_LLC_writeback_access 2683
Core_0_LLC_writeback_hit 2683
Core_0_LLC_writeback_miss 0
Core_0_LLC_writeback_MPKI 0
Core_0_LLC_writeback_miss_rate 0
Core_0_LLC_prefetch_requested 0
Core_0_LLC_prefetch_issued 0
Core_0_LLC_prefetch_useful 0
Core_0_LLC_prefetch_useless 0
Core_0_LLC_prefetch_late 0
Core_0_LLC_prefetch_accuracy 0
Core_0_LLC_prefetch_coverage 0

[DRAM Statistics]
Channel_0_RQ_row_buffer_hit 0
Channel_0_RQ_row_buffer_miss 11884
Channel_0_WQ_row_buffer_hit 0
Channel_0_WQ_row_buffer_miss 0
Channel_0_WQ_full 0
Channel_0_dbus_congested 1344
DRAM_total_RQ_row_buffer_hit 0
DRAM_total_RQ_row_buffer_miss 11884
DRAM_total_WQ_row_buffer_hit 0
DRAM_total_WQ_row_buffer_miss 0
DRAM_total_WQ_full 0
DRAM_total_dbus_congested 1344
DRAM_avg_congested_cycle 2.6756

======STLB miss causes ========
Core_0_STLB_miss_cause_breakdown
Core_0_STLB_cause_Demand_Data_miss 1056
Core_0_STLB_cause_Demand_Data_miss_rate 0.10813
Core_0_STLB_cause_Demand_Instruction_miss 0
Core_0_STLB_cause_Demand_Instruction_miss_rate 0
Core_0_STLB_cause_L1D_Prefetch_miss 0
Core_0_STLB_cause_L1D_Prefetch_miss_rate 0
Core_0_STLB_cause_L1I_Prefetch_miss 0
Core_0_STLB_cause_L1I_Prefetch_miss_rate 0
Core_0_STLB_cause_Other_miss 0
Core_0_STLB_cause_Other_miss_rate 0
Core_0_STLB_Demand_miss 1056
Core_0_STLB_Demand_miss_rate 0.10813
Core_0_STLB_L1D_Prefetch_miss 0
Core_0_STLB_L1D_Prefetch_miss_rate 0
Core_0_STLB_Other_miss 0
Core_0_STLB_Other_miss_rate 0
