[VMEM] WARNING: physical memory size is smaller than virtual memory size.

*** ChampSim Multicore Out-of-Order Simulator ***
Warmup Instructions: 20000000
Simulation Instructions: 50000000
Number of CPUs: 1
Page size: 4096
Core 0: /data0/tzh/champsim_traces/SPEC06/482.sphinx3-1297B.champsimtrace.xz
Off-chip DRAM Size: 4 GiB Channels: 1 Width: 64-bit Data Rate: 3205 MT/s
Warmup halting CPU 0 at instruction 20000001 cycle 4420676 for remainder of phase
Warmup finished CPU 0 instructions: 20000001 cycles: 4420676 cumulative IPC: 4.524 (Simulation time: 00 hr 00 min 48 sec)
Warmup complete CPU 0 instructions: 20000001 cycles: 4420676 cumulative IPC: 4.524 (Simulation time: 00 hr 00 min 48 sec)
Simulation finished CPU 0 instructions: 50000004 cycles: 46070812 cumulative IPC: 1.085 (Simulation time: 00 hr 05 min 58 sec)
Simulation complete CPU 0 instructions: 50000004 cycles: 46070812 cumulative IPC: 1.085 (Simulation time: 00 hr 05 min 58 sec)

ChampSim completed all CPUs

=== Simulation ===
CPU 0 runs /data0/tzh/champsim_traces/SPEC06/482.sphinx3-1297B.champsimtrace.xz

Region of Interest Statistics

CPU 0 cumulative IPC: 1.085 instructions: 50000004 cycles: 46070812
CPU 0 Branch Prediction Accuracy: 95.62% MPKI: 4.149 Average ROB Occupancy at Mispredict: 184.2
Branch type MPKI
BRANCH_DIRECT_JUMP: 0.0001
BRANCH_INDIRECT: 0
BRANCH_CONDITIONAL: 4.148
BRANCH_DIRECT_CALL: 0
BRANCH_INDIRECT_CALL: 2e-05
BRANCH_RETURN: 0.001

cpu0->cpu0_STLB TOTAL        ACCESS:      84114 HIT:      54574 MISS:      29540 MSHR_MERGE:          0
cpu0->cpu0_STLB LOAD         ACCESS:      84114 HIT:      54574 MISS:      29540 MSHR_MERGE:          0
cpu0->cpu0_STLB RFO          ACCESS:          0 HIT:          0 MISS:          0 MSHR_MERGE:          0
cpu0->cpu0_STLB PREFETCH     ACCESS:          0 HIT:          0 MISS:          0 MSHR_MERGE:          0
cpu0->cpu0_STLB WRITE        ACCESS:          0 HIT:          0 MISS:          0 MSHR_MERGE:          0
cpu0->cpu0_STLB TRANSLATION  ACCESS:          0 HIT:          0 MISS:          0 MSHR_MERGE:          0
cpu0->cpu0_STLB PREFETCH REQUESTED:          0 ISSUED:          0 USEFUL:          0 USELESS:          0 LATE:          0
cpu0->cpu0_STLB AVERAGE MISS LATENCY: 49.93 cycles
cpu0->cpu0_L2C TOTAL        ACCESS:     949887 HIT:     267127 MISS:     682760 MSHR_MERGE:          0
cpu0->cpu0_L2C LOAD         ACCESS:     790396 HIT:     163153 MISS:     627243 MSHR_MERGE:          0
cpu0->cpu0_L2C RFO          ACCESS:      57116 HIT:       8300 MISS:      48816 MSHR_MERGE:          0
cpu0->cpu0_L2C PREFETCH     ACCESS:          0 HIT:          0 MISS:          0 MSHR_MERGE:          0
cpu0->cpu0_L2C WRITE        ACCESS:      93600 HIT:      93437 MISS:        163 MSHR_MERGE:          0
cpu0->cpu0_L2C TRANSLATION  ACCESS:       8775 HIT:       2237 MISS:       6538 MSHR_MERGE:          0
cpu0->cpu0_L2C PREFETCH REQUESTED:          0 ISSUED:          0 USEFUL:          0 USELESS:          0 LATE:          0
cpu0->cpu0_L2C AVERAGE MISS LATENCY: 106.9 cycles
cpu0->cpu0_L1I TOTAL        ACCESS:    1735561 HIT:    1735427 MISS:        134 MSHR_MERGE:        126
cpu0->cpu0_L1I LOAD         ACCESS:    1735561 HIT:    1735427 MISS:        134 MSHR_MERGE:        126
cpu0->cpu0_L1I RFO          ACCESS:          0 HIT:          0 MISS:          0 MSHR_MERGE:          0
cpu0->cpu0_L1I PREFETCH     ACCESS:          0 HIT:          0 MISS:          0 MSHR_MERGE:          0
cpu0->cpu0_L1I WRITE        ACCESS:          0 HIT:          0 MISS:          0 MSHR_MERGE:          0
cpu0->cpu0_L1I TRANSLATION  ACCESS:          0 HIT:          0 MISS:          0 MSHR_MERGE:          0
cpu0->cpu0_L1I PREFETCH REQUESTED:          0 ISSUED:          0 USEFUL:          0 USELESS:          0 LATE:          0
cpu0->cpu0_L1I AVERAGE MISS LATENCY: 214.8 cycles
cpu0->cpu0_L1D TOTAL        ACCESS:   10732372 HIT:    7459140 MISS:    3273232 MSHR_MERGE:    2416952
cpu0->cpu0_L1D LOAD         ACCESS:    9312496 HIT:    6364304 MISS:    2948192 MSHR_MERGE:    2157804
cpu0->cpu0_L1D RFO          ACCESS:          0 HIT:          0 MISS:          0 MSHR_MERGE:          0
cpu0->cpu0_L1D PREFETCH     ACCESS:          0 HIT:          0 MISS:          0 MSHR_MERGE:          0
cpu0->cpu0_L1D WRITE        ACCESS:    1360901 HIT:    1044695 MISS:     316206 MSHR_MERGE:     259089
cpu0->cpu0_L1D TRANSLATION  ACCESS:      58975 HIT:      50141 MISS:       8834 MSHR_MERGE:         59
cpu0->cpu0_L1D PREFETCH REQUESTED:          0 ISSUED:          0 USEFUL:          0 USELESS:          0 LATE:          0
cpu0->cpu0_L1D AVERAGE MISS LATENCY: 94.12 cycles
cpu0->cpu0_ITLB TOTAL        ACCESS:    1313583 HIT:    1313583 MISS:          0 MSHR_MERGE:          0
cpu0->cpu0_ITLB LOAD         ACCESS:    1313583 HIT:    1313583 MISS:          0 MSHR_MERGE:          0
cpu0->cpu0_ITLB RFO          ACCESS:          0 HIT:          0 MISS:          0 MSHR_MERGE:          0
cpu0->cpu0_ITLB PREFETCH     ACCESS:          0 HIT:          0 MISS:          0 MSHR_MERGE:          0
cpu0->cpu0_ITLB WRITE        ACCESS:          0 HIT:          0 MISS:          0 MSHR_MERGE:          0
cpu0->cpu0_ITLB TRANSLATION  ACCESS:          0 HIT:          0 MISS:          0 MSHR_MERGE:          0
cpu0->cpu0_ITLB PREFETCH REQUESTED:          0 ISSUED:          0 USEFUL:          0 USELESS:          0 LATE:          0
cpu0->cpu0_ITLB AVERAGE MISS LATENCY: - cycles
cpu0->cpu0_DTLB TOTAL        ACCESS:   10540303 HIT:   10278826 MISS:     261477 MSHR_MERGE:     177363
cpu0->cpu0_DTLB LOAD         ACCESS:   10540303 HIT:   10278826 MISS:     261477 MSHR_MERGE:     177363
cpu0->cpu0_DTLB RFO          ACCESS:          0 HIT:          0 MISS:          0 MSHR_MERGE:          0
cpu0->cpu0_DTLB PREFETCH     ACCESS:          0 HIT:          0 MISS:          0 MSHR_MERGE:          0
cpu0->cpu0_DTLB WRITE        ACCESS:          0 HIT:          0 MISS:          0 MSHR_MERGE:          0
cpu0->cpu0_DTLB TRANSLATION  ACCESS:          0 HIT:          0 MISS:          0 MSHR_MERGE:          0
cpu0->cpu0_DTLB PREFETCH REQUESTED:          0 ISSUED:          0 USEFUL:          0 USELESS:          0 LATE:          0
cpu0->cpu0_DTLB AVERAGE MISS LATENCY: 22.89 cycles
cpu0->LLC TOTAL        ACCESS:     760208 HIT:     408702 MISS:     351506 MSHR_MERGE:          0
cpu0->LLC LOAD         ACCESS:     627243 HIT:     307920 MISS:     319323 MSHR_MERGE:          0
cpu0->LLC RFO          ACCESS:      48816 HIT:      35314 MISS:      13502 MSHR_MERGE:          0
cpu0->LLC PREFETCH     ACCESS:          0 HIT:          0 MISS:          0 MSHR_MERGE:          0
cpu0->LLC WRITE        ACCESS:      77611 HIT:      63210 MISS:      14401 MSHR_MERGE:          0
cpu0->LLC TRANSLATION  ACCESS:       6538 HIT:       2258 MISS:       4280 MSHR_MERGE:          0
cpu0->LLC PREFETCH REQUESTED:          0 ISSUED:          0 USEFUL:          0 USELESS:          0 LATE:          0
cpu0->LLC AVERAGE MISS LATENCY: 178 cycles

DRAM Statistics

Channel 0 RQ ROW_BUFFER_HIT:      10076
  ROW_BUFFER_MISS:     326695
  AVG DBUS CONGESTED CYCLE: 17.69
Channel 0 WQ ROW_BUFFER_HIT:       8992
  ROW_BUFFER_MISS:      14848
  FULL:          0
Channel 0 REFRESHES ISSUED:       3839

[ROI Statistics]
[System Configuration]
num_cpus 1
cpu_freq 4000
fetch_width 6
decode_width 6
dispatch_width 6
execute_width 6
lq_width 2
sq_width 2
retire_width 6
scheduler_size 160
branch_mispredict_penalty 1
rob_size 352
lq_size 240
sq_size 112
ifetch_buffer_size 64
decode_buffer_size 32
dispatch_buffer_size 32
register_file_size 288
decode_latency 1
dispatch_latency 1
schedule_latency 0
execute_latency 0
page_size 4096
block_size 64
core_0_itlb_set 16
core_0_itlb_way 4
core_0_itlb_rq_size 16
core_0_itlb_wq_size 16
core_0_itlb_pq_size 0
core_0_itlb_mshr_size 8
core_0_itlb_hit_latency 1
core_0_itlb_fill_latency 1
core_0_itlb_max_tag_check 2
core_0_itlb_max_fill 2
core_0_dtlb_set 16
core_0_dtlb_way 4
core_0_dtlb_rq_size 16
core_0_dtlb_wq_size 16
core_0_dtlb_pq_size 0
core_0_dtlb_mshr_size 8
core_0_dtlb_hit_latency 1
core_0_dtlb_fill_latency 1
core_0_dtlb_max_tag_check 2
core_0_dtlb_max_fill 2
core_0_stlb_set 128
core_0_stlb_way 12
core_0_stlb_rq_size 32
core_0_stlb_wq_size 32
core_0_stlb_pq_size 0
core_0_stlb_mshr_size 16
core_0_stlb_hit_latency 4
core_0_stlb_fill_latency 4
core_0_stlb_max_tag_check 1
core_0_stlb_max_fill 1
core_0_l1i_set 64
core_0_l1i_way 8
core_0_l1i_rq_size 64
core_0_l1i_wq_size 64
core_0_l1i_pq_size 32
core_0_l1i_mshr_size 8
core_0_l1i_hit_latency 2
core_0_l1i_fill_latency 2
core_0_l1i_max_tag_check 2
core_0_l1i_max_fill 2
core_0_l1d_set 64
core_0_l1d_way 12
core_0_l1d_rq_size 64
core_0_l1d_wq_size 64
core_0_l1d_pq_size 8
core_0_l1d_mshr_size 16
core_0_l1d_hit_latency 2
core_0_l1d_fill_latency 3
core_0_l1d_max_tag_check 2
core_0_l1d_max_fill 2
core_0_l2c_set 1024
core_0_l2c_way 8
core_0_l2c_rq_size 32
core_0_l2c_wq_size 32
core_0_l2c_pq_size 16
core_0_l2c_mshr_size 32
core_0_l2c_hit_latency 5
core_0_l2c_fill_latency 5
core_0_l2c_max_tag_check 1
core_0_l2c_max_fill 1
llc_set 2048
llc_way 16
llc_rq_size 32
llc_wq_size 32
llc_pq_size 32
llc_mshr_size 64
llc_hit_latency 10
llc_fill_latency 10
llc_max_tag_check 1
llc_max_fill 1
dram_channels 1
dram_ranks 1
dram_bankgroups 8
dram_banks 4
dram_rows 16384
dram_columns 1024
dram_channel_width 8
dram_rq_size 64
dram_wq_size 64
dram_size 4294967296
core_0_itlb_prefetcher no
core_0_dtlb_prefetcher no
core_0_stlb_prefetcher no
core_0_l1i_prefetcher no
core_0_l1d_prefetcher no
core_0_l2c_prefetcher no
llc_prefetcher no
llc_replacement drrip

Core_0_instructions 50000004
Core_0_cycles 46070812
Core_0_IPC 1.08529
Core_0_branch_prediction_accuracy 95.6206
Core_0_branch_MPKI 4.14944
Core_0_average_ROB_occupancy_at_mispredict 184.232

Core_0_ITLB_total_access 1313583
Core_0_ITLB_total_hit 1313583
Core_0_ITLB_total_miss 0
Core_0_ITLB_total_MPKI 0
Core_0_ITLB_total_miss_rate 0
Core_0_ITLB_demand_access 1313583
Core_0_ITLB_demand_hit 1313583
Core_0_ITLB_demand_miss 0
Core_0_ITLB_demand_MPKI 0
Core_0_ITLB_demand_miss_rate 0
Core_0_ITLB_load_access 1313583
Core_0_ITLB_load_hit 1313583
Core_0_ITLB_load_miss 0
Core_0_ITLB_load_MPKI 0
Core_0_ITLB_load_miss_rate 0
Core_0_ITLB_rfo_access 0
Core_0_ITLB_rfo_hit 0
Core_0_ITLB_rfo_miss 0
Core_0_ITLB_rfo_MPKI 0
Core_0_ITLB_rfo_miss_rate 0
Core_0_ITLB_prefetch_access 0
Core_0_ITLB_prefetch_hit 0
Core_0_ITLB_prefetch_miss 0
Core_0_ITLB_prefetch_MPKI 0
Core_0_ITLB_prefetch_miss_rate 0
Core_0_ITLB_writeback_access 0
Core_0_ITLB_writeback_hit 0
Core_0_ITLB_writeback_miss 0
Core_0_ITLB_writeback_MPKI 0
Core_0_ITLB_writeback_miss_rate 0
Core_0_ITLB_prefetch_requested 0
Core_0_ITLB_prefetch_issued 0
Core_0_ITLB_prefetch_useful 0
Core_0_ITLB_prefetch_useless 0
Core_0_ITLB_prefetch_late 0
Core_0_ITLB_prefetch_accuracy 0
Core_0_ITLB_prefetch_coverage 0

Core_0_DTLB_total_access 10540303
Core_0_DTLB_total_hit 10278826
Core_0_DTLB_total_miss 261477
Core_0_DTLB_total_MPKI 5.22954
Core_0_DTLB_total_miss_rate 0.0248074
Core_0_DTLB_demand_access 10540303
Core_0_DTLB_demand_hit 10278826
Core_0_DTLB_demand_miss 261477
Core_0_DTLB_demand_MPKI 5.22954
Core_0_DTLB_demand_miss_rate 0.0248074
Core_0_DTLB_load_access 10540303
Core_0_DTLB_load_hit 10278826
Core_0_DTLB_load_miss 261477
Core_0_DTLB_load_MPKI 5.22954
Core_0_DTLB_load_miss_rate 0.0248074
Core_0_DTLB_rfo_access 0
Core_0_DTLB_rfo_hit 0
Core_0_DTLB_rfo_miss 0
Core_0_DTLB_rfo_MPKI 0
Core_0_DTLB_rfo_miss_rate 0
Core_0_DTLB_prefetch_access 0
Core_0_DTLB_prefetch_hit 0
Core_0_DTLB_prefetch_miss 0
Core_0_DTLB_prefetch_MPKI 0
Core_0_DTLB_prefetch_miss_rate 0
Core_0_DTLB_writeback_access 0
Core_0_DTLB_writeback_hit 0
Core_0_DTLB_writeback_miss 0
Core_0_DTLB_writeback_MPKI 0
Core_0_DTLB_writeback_miss_rate 0
Core_0_DTLB_prefetch_requested 0
Core_0_DTLB_prefetch_issued 0
Core_0_DTLB_prefetch_useful 0
Core_0_DTLB_prefetch_useless 0
Core_0_DTLB_prefetch_late 0
Core_0_DTLB_prefetch_accuracy 0
Core_0_DTLB_prefetch_coverage 0

Core_0_STLB_total_access 84114
Core_0_STLB_total_hit 54574
Core_0_STLB_total_miss 29540
Core_0_STLB_total_MPKI 0.5908
Core_0_STLB_total_miss_rate 0.35119
Core_0_STLB_demand_access 84114
Core_0_STLB_demand_hit 54574
Core_0_STLB_demand_miss 29540
Core_0_STLB_demand_MPKI 0.5908
Core_0_STLB_demand_miss_rate 0.35119
Core_0_STLB_load_access 84114
Core_0_STLB_load_hit 54574
Core_0_STLB_load_miss 29540
Core_0_STLB_load_MPKI 0.5908
Core_0_STLB_load_miss_rate 0.35119
Core_0_STLB_rfo_access 0
Core_0_STLB_rfo_hit 0
Core_0_STLB_rfo_miss 0
Core_0_STLB_rfo_MPKI 0
Core_0_STLB_rfo_miss_rate 0
Core_0_STLB_prefetch_access 0
Core_0_STLB_prefetch_hit 0
Core_0_STLB_prefetch_miss 0
Core_0_STLB_prefetch_MPKI 0
Core_0_STLB_prefetch_miss_rate 0
Core_0_STLB_writeback_access 0
Core_0_STLB_writeback_hit 0
Core_0_STLB_writeback_miss 0
Core_0_STLB_writeback_MPKI 0
Core_0_STLB_writeback_miss_rate 0
Core_0_STLB_prefetch_requested 0
Core_0_STLB_prefetch_issued 0
Core_0_STLB_prefetch_useful 0
Core_0_STLB_prefetch_useless 0
Core_0_STLB_prefetch_late 0
Core_0_STLB_prefetch_accuracy 0
Core_0_STLB_prefetch_coverage 0

Core_0_L1I_total_access 1735561
Core_0_L1I_total_hit 1735427
Core_0_L1I_total_miss 134
Core_0_L1I_total_MPKI 0.00268
Core_0_L1I_total_miss_rate 7.72085e-05
Core_0_L1I_demand_access 1735561
Core_0_L1I_demand_hit 1735427
Core_0_L1I_demand_miss 134
Core_0_L1I_demand_MPKI 0.00268
Core_0_L1I_demand_miss_rate 7.72085e-05
Core_0_L1I_load_access 1735561
Core_0_L1I_load_hit 1735427
Core_0_L1I_load_miss 134
Core_0_L1I_load_MPKI 0.00268
Core_0_L1I_load_miss_rate 7.72085e-05
Core_0_L1I_rfo_access 0
Core_0_L1I_rfo_hit 0
Core_0_L1I_rfo_miss 0
Core_0_L1I_rfo_MPKI 0
Core_0_L1I_rfo_miss_rate 0
Core_0_L1I_prefetch_access 0
Core_0_L1I_prefetch_hit 0
Core_0_L1I_prefetch_miss 0
Core_0_L1I_prefetch_MPKI 0
Core_0_L1I_prefetch_miss_rate 0
Core_0_L1I_writeback_access 0
Core_0_L1I_writeback_hit 0
Core_0_L1I_writeback_miss 0
Core_0_L1I_writeback_MPKI 0
Core_0_L1I_writeback_miss_rate 0
Core_0_L1I_prefetch_requested 0
Core_0_L1I_prefetch_issued 0
Core_0_L1I_prefetch_useful 0
Core_0_L1I_prefetch_useless 0
Core_0_L1I_prefetch_late 0
Core_0_L1I_prefetch_accuracy 0
Core_0_L1I_prefetch_coverage 0

Core_0_L1D_total_access 10673397
Core_0_L1D_total_hit 7408999
Core_0_L1D_total_miss 3264398
Core_0_L1D_total_MPKI 65.288
Core_0_L1D_total_miss_rate 0.305844
Core_0_L1D_demand_access 9312496
Core_0_L1D_demand_hit 6364304
Core_0_L1D_demand_miss 2948192
Core_0_L1D_demand_MPKI 58.9638
Core_0_L1D_demand_miss_rate 0.316585
Core_0_L1D_load_access 9312496
Core_0_L1D_load_hit 6364304
Core_0_L1D_load_miss 2948192
Core_0_L1D_load_MPKI 58.9638
Core_0_L1D_load_miss_rate 0.316585
Core_0_L1D_rfo_access 0
Core_0_L1D_rfo_hit 0
Core_0_L1D_rfo_miss 0
Core_0_L1D_rfo_MPKI 0
Core_0_L1D_rfo_miss_rate 0
Core_0_L1D_prefetch_access 0
Core_0_L1D_prefetch_hit 0
Core_0_L1D_prefetch_miss 0
Core_0_L1D_prefetch_MPKI 0
Core_0_L1D_prefetch_miss_rate 0
Core_0_L1D_writeback_access 1360901
Core_0_L1D_writeback_hit 1044695
Core_0_L1D_writeback_miss 316206
Core_0_L1D_writeback_MPKI 6.32412
Core_0_L1D_writeback_miss_rate 0.23235
Core_0_L1D_prefetch_requested 0
Core_0_L1D_prefetch_issued 0
Core_0_L1D_prefetch_useful 0
Core_0_L1D_prefetch_useless 0
Core_0_L1D_prefetch_late 0
Core_0_L1D_prefetch_accuracy 0
Core_0_L1D_prefetch_coverage 0

Core_0_L2C_total_access 941112
Core_0_L2C_total_hit 264890
Core_0_L2C_total_miss 676222
Core_0_L2C_total_MPKI 13.5244
Core_0_L2C_total_miss_rate 0.718535
Core_0_L2C_demand_access 847512
Core_0_L2C_demand_hit 171453
Core_0_L2C_demand_miss 676059
Core_0_L2C_demand_MPKI 13.5212
Core_0_L2C_demand_miss_rate 0.797698
Core_0_L2C_load_access 790396
Core_0_L2C_load_hit 163153
Core_0_L2C_load_miss 627243
Core_0_L2C_load_MPKI 12.5449
Core_0_L2C_load_miss_rate 0.793581
Core_0_L2C_rfo_access 57116
Core_0_L2C_rfo_hit 8300
Core_0_L2C_rfo_miss 48816
Core_0_L2C_rfo_MPKI 0.97632
Core_0_L2C_rfo_miss_rate 0.854682
Core_0_L2C_prefetch_access 0
Core_0_L2C_prefetch_hit 0
Core_0_L2C_prefetch_miss 0
Core_0_L2C_prefetch_MPKI 0
Core_0_L2C_prefetch_miss_rate 0
Core_0_L2C_writeback_access 93600
Core_0_L2C_writeback_hit 93437
Core_0_L2C_writeback_miss 163
Core_0_L2C_writeback_MPKI 0.00326
Core_0_L2C_writeback_miss_rate 0.00174145
Core_0_L2C_prefetch_requested 0
Core_0_L2C_prefetch_issued 0
Core_0_L2C_prefetch_useful 0
Core_0_L2C_prefetch_useless 0
Core_0_L2C_prefetch_late 0
Core_0_L2C_prefetch_accuracy 0
Core_0_L2C_prefetch_coverage 0

Core_0_LLC_total_access 753670
Core_0_LLC_total_hit 406444
Core_0_LLC_total_miss 347226
Core_0_LLC_total_MPKI 6.94452
Core_0_LLC_total_miss_rate 0.460714
Core_0_LLC_demand_access 676059
Core_0_LLC_demand_hit 343234
Core_0_LLC_demand_miss 332825
Core_0_LLC_demand_MPKI 6.6565
Core_0_LLC_demand_miss_rate 0.492302
Core_0_LLC_load_access 627243
Core_0_LLC_load_hit 307920
Core_0_LLC_load_miss 319323
Core_0_LLC_load_MPKI 6.38646
Core_0_LLC_load_miss_rate 0.50909
Core_0_LLC_rfo_access 48816
Core_0_LLC_rfo_hit 35314
Core_0_LLC_rfo_miss 13502
Core_0_LLC_rfo_MPKI 0.27004
Core_0_LLC_rfo_miss_rate 0.27659
Core_0_LLC_prefetch_access 0
Core_0_LLC_prefetch_hit 0
Core_0_LLC_prefetch_miss 0
Core_0_LLC_prefetch_MPKI 0
Core_0_LLC_prefetch_miss_rate 0
Core_0_LLC_writeback_access 77611
Core_0_LLC_writeback_hit 63210
Core_0_LLC_writeback_miss 14401
Core_0_LLC_writeback_MPKI 0.28802
Core_0_LLC_writeback_miss_rate 0.185554
Core_0_LLC_prefetch_requested 0
Core_0_LLC_prefetch_issued 0
Core_0_LLC_prefetch_useful 0
Core_0_LLC_prefetch_useless 0
Core_0_LLC_prefetch_late 0
Core_0_LLC_prefetch_accuracy 0
Core_0_LLC_prefetch_coverage 0

[DRAM Statistics]
Channel_0_RQ_row_buffer_hit 10076
Channel_0_RQ_row_buffer_miss 326695
Channel_0_WQ_row_buffer_hit 8992
Channel_0_WQ_row_buffer_miss 14848
Channel_0_WQ_full 0
Channel_0_dbus_congested 739624
DRAM_total_RQ_row_buffer_hit 10076
DRAM_total_RQ_row_buffer_miss 326695
DRAM_total_WQ_row_buffer_hit 8992
DRAM_total_WQ_row_buffer_miss 14848
DRAM_total_WQ_full 0
DRAM_total_dbus_congested 739624
DRAM_avg_congested_cycle 17.6866

======STLB miss causes ========
Core_0_STLB_miss_cause_breakdown
Core_0_STLB_cause_Demand_Data_miss 29540
Core_0_STLB_cause_Demand_Data_miss_rate 0.35119
Core_0_STLB_cause_Demand_Instruction_miss 0
Core_0_STLB_cause_Demand_Instruction_miss_rate 0
Core_0_STLB_cause_L1D_Prefetch_miss 0
Core_0_STLB_cause_L1D_Prefetch_miss_rate 0
Core_0_STLB_cause_L1I_Prefetch_miss 0
Core_0_STLB_cause_L1I_Prefetch_miss_rate 0
Core_0_STLB_cause_Other_miss 0
Core_0_STLB_cause_Other_miss_rate 0
Core_0_STLB_Demand_miss 29540
Core_0_STLB_Demand_miss_rate 0.35119
Core_0_STLB_L1D_Prefetch_miss 0
Core_0_STLB_L1D_Prefetch_miss_rate 0
Core_0_STLB_Other_miss 0
Core_0_STLB_Other_miss_rate 0
