[VMEM] WARNING: physical memory size is smaller than virtual memory size.

*** ChampSim Multicore Out-of-Order Simulator ***
Warmup Instructions: 20000000
Simulation Instructions: 50000000
Number of CPUs: 1
Page size: 4096
Core 0: /data0/tzh/champsim_traces/SPEC06/483.xalancbmk-736B.champsimtrace.xz
Off-chip DRAM Size: 4 GiB Channels: 1 Width: 64-bit Data Rate: 3205 MT/s
Warmup halting CPU 0 at instruction 20000004 cycle 4401928 for remainder of phase
Warmup finished CPU 0 instructions: 20000004 cycles: 4401928 cumulative IPC: 4.543 (Simulation time: 00 hr 00 min 45 sec)
Warmup complete CPU 0 instructions: 20000004 cycles: 4401928 cumulative IPC: 4.543 (Simulation time: 00 hr 00 min 45 sec)
Simulation finished CPU 0 instructions: 50000000 cycles: 18627055 cumulative IPC: 2.684 (Simulation time: 00 hr 03 min 58 sec)
Simulation complete CPU 0 instructions: 50000000 cycles: 18627055 cumulative IPC: 2.684 (Simulation time: 00 hr 03 min 58 sec)

ChampSim completed all CPUs

=== Simulation ===
CPU 0 runs /data0/tzh/champsim_traces/SPEC06/483.xalancbmk-736B.champsimtrace.xz

Region of Interest Statistics

CPU 0 cumulative IPC: 2.684 instructions: 50000000 cycles: 18627055
CPU 0 Branch Prediction Accuracy: 99.4% MPKI: 1.673 Average ROB Occupancy at Mispredict: 54.45
Branch type MPKI
BRANCH_DIRECT_JUMP: 0.0005
BRANCH_INDIRECT: 0.04048
BRANCH_CONDITIONAL: 1.3
BRANCH_DIRECT_CALL: 0.01542
BRANCH_INDIRECT_CALL: 0.05678
BRANCH_RETURN: 0.2595

cpu0->cpu0_STLB TOTAL        ACCESS:     358294 HIT:     354177 MISS:       4117 MSHR_MERGE:          0
cpu0->cpu0_STLB LOAD         ACCESS:     358294 HIT:     354177 MISS:       4117 MSHR_MERGE:          0
cpu0->cpu0_STLB RFO          ACCESS:          0 HIT:          0 MISS:          0 MSHR_MERGE:          0
cpu0->cpu0_STLB PREFETCH     ACCESS:          0 HIT:          0 MISS:          0 MSHR_MERGE:          0
cpu0->cpu0_STLB WRITE        ACCESS:          0 HIT:          0 MISS:          0 MSHR_MERGE:          0
cpu0->cpu0_STLB TRANSLATION  ACCESS:          0 HIT:          0 MISS:          0 MSHR_MERGE:          0
cpu0->cpu0_STLB PREFETCH REQUESTED:          0 ISSUED:          0 USEFUL:          0 USELESS:          0 LATE:          0
cpu0->cpu0_STLB AVERAGE MISS LATENCY: 192 cycles
cpu0->cpu0_L2C TOTAL        ACCESS:    1956755 HIT:    1910328 MISS:      46427 MSHR_MERGE:          0
cpu0->cpu0_L2C LOAD         ACCESS:    1827771 HIT:    1817190 MISS:      10581 MSHR_MERGE:          0
cpu0->cpu0_L2C RFO          ACCESS:      47293 HIT:      13955 MISS:      33338 MSHR_MERGE:          0
cpu0->cpu0_L2C PREFETCH     ACCESS:          0 HIT:          0 MISS:          0 MSHR_MERGE:          0
cpu0->cpu0_L2C WRITE        ACCESS:      76149 HIT:      76149 MISS:          0 MSHR_MERGE:          0
cpu0->cpu0_L2C TRANSLATION  ACCESS:       5542 HIT:       3034 MISS:       2508 MSHR_MERGE:          0
cpu0->cpu0_L2C PREFETCH REQUESTED:          0 ISSUED:          0 USEFUL:          0 USELESS:          0 LATE:          0
cpu0->cpu0_L2C AVERAGE MISS LATENCY: 299.5 cycles
cpu0->cpu0_L1I TOTAL        ACCESS:    7461246 HIT:    7461110 MISS:        136 MSHR_MERGE:          6
cpu0->cpu0_L1I LOAD         ACCESS:    7461246 HIT:    7461110 MISS:        136 MSHR_MERGE:          6
cpu0->cpu0_L1I RFO          ACCESS:          0 HIT:          0 MISS:          0 MSHR_MERGE:          0
cpu0->cpu0_L1I PREFETCH     ACCESS:          0 HIT:          0 MISS:          0 MSHR_MERGE:          0
cpu0->cpu0_L1I WRITE        ACCESS:          0 HIT:          0 MISS:          0 MSHR_MERGE:          0
cpu0->cpu0_L1I TRANSLATION  ACCESS:          0 HIT:          0 MISS:          0 MSHR_MERGE:          0
cpu0->cpu0_L1I PREFETCH REQUESTED:          0 ISSUED:          0 USEFUL:          0 USELESS:          0 LATE:          0
cpu0->cpu0_L1I AVERAGE MISS LATENCY: 220.7 cycles
cpu0->cpu0_L1D TOTAL        ACCESS:    9759851 HIT:    1872684 MISS:    7887167 MSHR_MERGE:    6006653
cpu0->cpu0_L1D LOAD         ACCESS:    8640660 HIT:    1048945 MISS:    7591715 MSHR_MERGE:    5764073
cpu0->cpu0_L1D RFO          ACCESS:          0 HIT:          0 MISS:          0 MSHR_MERGE:          0
cpu0->cpu0_L1D PREFETCH     ACCESS:          0 HIT:          0 MISS:          0 MSHR_MERGE:          0
cpu0->cpu0_L1D WRITE        ACCESS:    1109125 HIT:     819226 MISS:     289899 MSHR_MERGE:     242569
cpu0->cpu0_L1D TRANSLATION  ACCESS:      10066 HIT:       4513 MISS:       5553 MSHR_MERGE:         11
cpu0->cpu0_L1D PREFETCH REQUESTED:          0 ISSUED:          0 USEFUL:          0 USELESS:          0 LATE:          0
cpu0->cpu0_L1D AVERAGE MISS LATENCY: 15.52 cycles
cpu0->cpu0_ITLB TOTAL        ACCESS:    7414295 HIT:    7414270 MISS:         25 MSHR_MERGE:          5
cpu0->cpu0_ITLB LOAD         ACCESS:    7414295 HIT:    7414270 MISS:         25 MSHR_MERGE:          5
cpu0->cpu0_ITLB RFO          ACCESS:          0 HIT:          0 MISS:          0 MSHR_MERGE:          0
cpu0->cpu0_ITLB PREFETCH     ACCESS:          0 HIT:          0 MISS:          0 MSHR_MERGE:          0
cpu0->cpu0_ITLB WRITE        ACCESS:          0 HIT:          0 MISS:          0 MSHR_MERGE:          0
cpu0->cpu0_ITLB TRANSLATION  ACCESS:          0 HIT:          0 MISS:          0 MSHR_MERGE:          0
cpu0->cpu0_ITLB PREFETCH REQUESTED:          0 ISSUED:          0 USEFUL:          0 USELESS:          0 LATE:          0
cpu0->cpu0_ITLB AVERAGE MISS LATENCY: 329.6 cycles
cpu0->cpu0_DTLB TOTAL        ACCESS:    9621820 HIT:    9019898 MISS:     601922 MSHR_MERGE:     243648
cpu0->cpu0_DTLB LOAD         ACCESS:    9621820 HIT:    9019898 MISS:     601922 MSHR_MERGE:     243648
cpu0->cpu0_DTLB RFO          ACCESS:          0 HIT:          0 MISS:          0 MSHR_MERGE:          0
cpu0->cpu0_DTLB PREFETCH     ACCESS:          0 HIT:          0 MISS:          0 MSHR_MERGE:          0
cpu0->cpu0_DTLB WRITE        ACCESS:          0 HIT:          0 MISS:          0 MSHR_MERGE:          0
cpu0->cpu0_DTLB TRANSLATION  ACCESS:          0 HIT:          0 MISS:          0 MSHR_MERGE:          0
cpu0->cpu0_DTLB PREFETCH REQUESTED:          0 ISSUED:          0 USEFUL:          0 USELESS:          0 LATE:          0
cpu0->cpu0_DTLB AVERAGE MISS LATENCY: 7.208 cycles
cpu0->LLC TOTAL        ACCESS:      87533 HIT:      13396 MISS:      74137 MSHR_MERGE:          0
cpu0->LLC LOAD         ACCESS:      10581 HIT:       4327 MISS:       6254 MSHR_MERGE:          0
cpu0->LLC RFO          ACCESS:      33338 HIT:        366 MISS:      32972 MSHR_MERGE:          0
cpu0->LLC PREFETCH     ACCESS:          0 HIT:          0 MISS:          0 MSHR_MERGE:          0
cpu0->LLC WRITE        ACCESS:      41106 HIT:       8371 MISS:      32735 MSHR_MERGE:          0
cpu0->LLC TRANSLATION  ACCESS:       2508 HIT:        332 MISS:       2176 MSHR_MERGE:          0
cpu0->LLC PREFETCH REQUESTED:          0 ISSUED:          0 USEFUL:          0 USELESS:          0 LATE:          0
cpu0->LLC AVERAGE MISS LATENCY: 181.5 cycles

DRAM Statistics

Channel 0 RQ ROW_BUFFER_HIT:       4370
  ROW_BUFFER_MISS:      37031
  AVG DBUS CONGESTED CYCLE: 9.868
Channel 0 WQ ROW_BUFFER_HIT:       3833
  ROW_BUFFER_MISS:      35892
  FULL:          0
Channel 0 REFRESHES ISSUED:       1553

[ROI Statistics]
[System Configuration]
num_cpus 1
cpu_freq 4000
fetch_width 6
decode_width 6
dispatch_width 6
execute_width 6
lq_width 2
sq_width 2
retire_width 6
scheduler_size 160
branch_mispredict_penalty 1
rob_size 352
lq_size 240
sq_size 112
ifetch_buffer_size 64
decode_buffer_size 32
dispatch_buffer_size 32
register_file_size 288
decode_latency 1
dispatch_latency 1
schedule_latency 0
execute_latency 0
page_size 4096
block_size 64
core_0_itlb_set 16
core_0_itlb_way 4
core_0_itlb_rq_size 16
core_0_itlb_wq_size 16
core_0_itlb_pq_size 0
core_0_itlb_mshr_size 8
core_0_itlb_hit_latency 1
core_0_itlb_fill_latency 1
core_0_itlb_max_tag_check 2
core_0_itlb_max_fill 2
core_0_dtlb_set 16
core_0_dtlb_way 4
core_0_dtlb_rq_size 16
core_0_dtlb_wq_size 16
core_0_dtlb_pq_size 0
core_0_dtlb_mshr_size 8
core_0_dtlb_hit_latency 1
core_0_dtlb_fill_latency 1
core_0_dtlb_max_tag_check 2
core_0_dtlb_max_fill 2
core_0_stlb_set 128
core_0_stlb_way 12
core_0_stlb_rq_size 32
core_0_stlb_wq_size 32
core_0_stlb_pq_size 0
core_0_stlb_mshr_size 16
core_0_stlb_hit_latency 4
core_0_stlb_fill_latency 4
core_0_stlb_max_tag_check 1
core_0_stlb_max_fill 1
core_0_l1i_set 64
core_0_l1i_way 8
core_0_l1i_rq_size 64
core_0_l1i_wq_size 64
core_0_l1i_pq_size 32
core_0_l1i_mshr_size 8
core_0_l1i_hit_latency 2
core_0_l1i_fill_latency 2
core_0_l1i_max_tag_check 2
core_0_l1i_max_fill 2
core_0_l1d_set 64
core_0_l1d_way 12
core_0_l1d_rq_size 64
core_0_l1d_wq_size 64
core_0_l1d_pq_size 8
core_0_l1d_mshr_size 16
core_0_l1d_hit_latency 2
core_0_l1d_fill_latency 3
core_0_l1d_max_tag_check 2
core_0_l1d_max_fill 2
core_0_l2c_set 1024
core_0_l2c_way 8
core_0_l2c_rq_size 32
core_0_l2c_wq_size 32
core_0_l2c_pq_size 16
core_0_l2c_mshr_size 32
core_0_l2c_hit_latency 5
core_0_l2c_fill_latency 5
core_0_l2c_max_tag_check 1
core_0_l2c_max_fill 1
llc_set 2048
llc_way 16
llc_rq_size 32
llc_wq_size 32
llc_pq_size 32
llc_mshr_size 64
llc_hit_latency 10
llc_fill_latency 10
llc_max_tag_check 1
llc_max_fill 1
dram_channels 1
dram_ranks 1
dram_bankgroups 8
dram_banks 4
dram_rows 16384
dram_columns 1024
dram_channel_width 8
dram_rq_size 64
dram_wq_size 64
dram_size 4294967296
core_0_itlb_prefetcher no
core_0_dtlb_prefetcher no
core_0_stlb_prefetcher no
core_0_l1i_prefetcher no
core_0_l1d_prefetcher no
core_0_l2c_prefetcher no
llc_prefetcher no
llc_replacement drrip

Core_0_instructions 50000000
Core_0_cycles 18627055
Core_0_IPC 2.68427
Core_0_branch_prediction_accuracy 99.4037
Core_0_branch_MPKI 1.67272
Core_0_average_ROB_occupancy_at_mispredict 54.4474

Core_0_ITLB_total_access 7414295
Core_0_ITLB_total_hit 7414270
Core_0_ITLB_total_miss 25
Core_0_ITLB_total_MPKI 0.0005
Core_0_ITLB_total_miss_rate 3.37186e-06
Core_0_ITLB_demand_access 7414295
Core_0_ITLB_demand_hit 7414270
Core_0_ITLB_demand_miss 25
Core_0_ITLB_demand_MPKI 0.0005
Core_0_ITLB_demand_miss_rate 3.37186e-06
Core_0_ITLB_load_access 7414295
Core_0_ITLB_load_hit 7414270
Core_0_ITLB_load_miss 25
Core_0_ITLB_load_MPKI 0.0005
Core_0_ITLB_load_miss_rate 3.37186e-06
Core_0_ITLB_rfo_access 0
Core_0_ITLB_rfo_hit 0
Core_0_ITLB_rfo_miss 0
Core_0_ITLB_rfo_MPKI 0
Core_0_ITLB_rfo_miss_rate 0
Core_0_ITLB_prefetch_access 0
Core_0_ITLB_prefetch_hit 0
Core_0_ITLB_prefetch_miss 0
Core_0_ITLB_prefetch_MPKI 0
Core_0_ITLB_prefetch_miss_rate 0
Core_0_ITLB_writeback_access 0
Core_0_ITLB_writeback_hit 0
Core_0_ITLB_writeback_miss 0
Core_0_ITLB_writeback_MPKI 0
Core_0_ITLB_writeback_miss_rate 0
Core_0_ITLB_prefetch_requested 0
Core_0_ITLB_prefetch_issued 0
Core_0_ITLB_prefetch_useful 0
Core_0_ITLB_prefetch_useless 0
Core_0_ITLB_prefetch_late 0
Core_0_ITLB_prefetch_accuracy 0
Core_0_ITLB_prefetch_coverage 0

Core_0_DTLB_total_access 9621820
Core_0_DTLB_total_hit 9019898
Core_0_DTLB_total_miss 601922
Core_0_DTLB_total_MPKI 12.0384
Core_0_DTLB_total_miss_rate 0.062558
Core_0_DTLB_demand_access 9621820
Core_0_DTLB_demand_hit 9019898
Core_0_DTLB_demand_miss 601922
Core_0_DTLB_demand_MPKI 12.0384
Core_0_DTLB_demand_miss_rate 0.062558
Core_0_DTLB_load_access 9621820
Core_0_DTLB_load_hit 9019898
Core_0_DTLB_load_miss 601922
Core_0_DTLB_load_MPKI 12.0384
Core_0_DTLB_load_miss_rate 0.062558
Core_0_DTLB_rfo_access 0
Core_0_DTLB_rfo_hit 0
Core_0_DTLB_rfo_miss 0
Core_0_DTLB_rfo_MPKI 0
Core_0_DTLB_rfo_miss_rate 0
Core_0_DTLB_prefetch_access 0
Core_0_DTLB_prefetch_hit 0
Core_0_DTLB_prefetch_miss 0
Core_0_DTLB_prefetch_MPKI 0
Core_0_DTLB_prefetch_miss_rate 0
Core_0_DTLB_writeback_access 0
Core_0_DTLB_writeback_hit 0
Core_0_DTLB_writeback_miss 0
Core_0_DTLB_writeback_MPKI 0
Core_0_DTLB_writeback_miss_rate 0
Core_0_DTLB_prefetch_requested 0
Core_0_DTLB_prefetch_issued 0
Core_0_DTLB_prefetch_useful 0
Core_0_DTLB_prefetch_useless 0
Core_0_DTLB_prefetch_late 0
Core_0_DTLB_prefetch_accuracy 0
Core_0_DTLB_prefetch_coverage 0

Core_0_STLB_total_access 358294
Core_0_STLB_total_hit 354177
Core_0_STLB_total_miss 4117
Core_0_STLB_total_MPKI 0.08234
Core_0_STLB_total_miss_rate 0.0114906
Core_0_STLB_demand_access 358294
Core_0_STLB_demand_hit 354177
Core_0_STLB_demand_miss 4117
Core_0_STLB_demand_MPKI 0.08234
Core_0_STLB_demand_miss_rate 0.0114906
Core_0_STLB_load_access 358294
Core_0_STLB_load_hit 354177
Core_0_STLB_load_miss 4117
Core_0_STLB_load_MPKI 0.08234
Core_0_STLB_load_miss_rate 0.0114906
Core_0_STLB_rfo_access 0
Core_0_STLB_rfo_hit 0
Core_0_STLB_rfo_miss 0
Core_0_STLB_rfo_MPKI 0
Core_0_STLB_rfo_miss_rate 0
Core_0_STLB_prefetch_access 0
Core_0_STLB_prefetch_hit 0
Core_0_STLB_prefetch_miss 0
Core_0_STLB_prefetch_MPKI 0
Core_0_STLB_prefetch_miss_rate 0
Core_0_STLB_writeback_access 0
Core_0_STLB_writeback_hit 0
Core_0_STLB_writeback_miss 0
Core_0_STLB_writeback_MPKI 0
Core_0_STLB_writeback_miss_rate 0
Core_0_STLB_prefetch_requested 0
Core_0_STLB_prefetch_issued 0
Core_0_STLB_prefetch_useful 0
Core_0_STLB_prefetch_useless 0
Core_0_STLB_prefetch_late 0
Core_0_STLB_prefetch_accuracy 0
Core_0_STLB_prefetch_coverage 0

Core_0_L1I_total_access 7461246
Core_0_L1I_total_hit 7461110
Core_0_L1I_total_miss 136
Core_0_L1I_total_MPKI 0.00272
Core_0_L1I_total_miss_rate 1.82275e-05
Core_0_L1I_demand_access 7461246
Core_0_L1I_demand_hit 7461110
Core_0_L1I_demand_miss 136
Core_0_L1I_demand_MPKI 0.00272
Core_0_L1I_demand_miss_rate 1.82275e-05
Core_0_L1I_load_access 7461246
Core_0_L1I_load_hit 7461110
Core_0_L1I_load_miss 136
Core_0_L1I_load_MPKI 0.00272
Core_0_L1I_load_miss_rate 1.82275e-05
Core_0_L1I_rfo_access 0
Core_0_L1I_rfo_hit 0
Core_0_L1I_rfo_miss 0
Core_0_L1I_rfo_MPKI 0
Core_0_L1I_rfo_miss_rate 0
Core_0_L1I_prefetch_access 0
Core_0_L1I_prefetch_hit 0
Core_0_L1I_prefetch_miss 0
Core_0_L1I_prefetch_MPKI 0
Core_0_L1I_prefetch_miss_rate 0
Core_0_L1I_writeback_access 0
Core_0_L1I_writeback_hit 0
Core_0_L1I_writeback_miss 0
Core_0_L1I_writeback_MPKI 0
Core_0_L1I_writeback_miss_rate 0
Core_0_L1I_prefetch_requested 0
Core_0_L1I_prefetch_issued 0
Core_0_L1I_prefetch_useful 0
Core_0_L1I_prefetch_useless 0
Core_0_L1I_prefetch_late 0
Core_0_L1I_prefetch_accuracy 0
Core_0_L1I_prefetch_coverage 0

Core_0_L1D_total_access 9749785
Core_0_L1D_total_hit 1868171
Core_0_L1D_total_miss 7881614
Core_0_L1D_total_MPKI 157.632
Core_0_L1D_total_miss_rate 0.808388
Core_0_L1D_demand_access 8640660
Core_0_L1D_demand_hit 1048945
Core_0_L1D_demand_miss 7591715
Core_0_L1D_demand_MPKI 151.834
Core_0_L1D_demand_miss_rate 0.878604
Core_0_L1D_load_access 8640660
Core_0_L1D_load_hit 1048945
Core_0_L1D_load_miss 7591715
Core_0_L1D_load_MPKI 151.834
Core_0_L1D_load_miss_rate 0.878604
Core_0_L1D_rfo_access 0
Core_0_L1D_rfo_hit 0
Core_0_L1D_rfo_miss 0
Core_0_L1D_rfo_MPKI 0
Core_0_L1D_rfo_miss_rate 0
Core_0_L1D_prefetch_access 0
Core_0_L1D_prefetch_hit 0
Core_0_L1D_prefetch_miss 0
Core_0_L1D_prefetch_MPKI 0
Core_0_L1D_prefetch_miss_rate 0
Core_0_L1D_writeback_access 1109125
Core_0_L1D_writeback_hit 819226
Core_0_L1D_writeback_miss 289899
Core_0_L1D_writeback_MPKI 5.79798
Core_0_L1D_writeback_miss_rate 0.261376
Core_0_L1D_prefetch_requested 0
Core_0_L1D_prefetch_issued 0
Core_0_L1D_prefetch_useful 0
Core_0_L1D_prefetch_useless 0
Core_0_L1D_prefetch_late 0
Core_0_L1D_prefetch_accuracy 0
Core_0_L1D_prefetch_coverage 0

Core_0_L2C_total_access 1951213
Core_0_L2C_total_hit 1907294
Core_0_L2C_total_miss 43919
Core_0_L2C_total_MPKI 0.87838
Core_0_L2C_total_miss_rate 0.0225086
Core_0_L2C_demand_access 1875064
Core_0_L2C_demand_hit 1831145
Core_0_L2C_demand_miss 43919
Core_0_L2C_demand_MPKI 0.87838
Core_0_L2C_demand_miss_rate 0.0234227
Core_0_L2C_load_access 1827771
Core_0_L2C_load_hit 1817190
Core_0_L2C_load_miss 10581
Core_0_L2C_load_MPKI 0.21162
Core_0_L2C_load_miss_rate 0.00578902
Core_0_L2C_rfo_access 47293
Core_0_L2C_rfo_hit 13955
Core_0_L2C_rfo_miss 33338
Core_0_L2C_rfo_MPKI 0.66676
Core_0_L2C_rfo_miss_rate 0.704925
Core_0_L2C_prefetch_access 0
Core_0_L2C_prefetch_hit 0
Core_0_L2C_prefetch_miss 0
Core_0_L2C_prefetch_MPKI 0
Core_0_L2C_prefetch_miss_rate 0
Core_0_L2C_writeback_access 76149
Core_0_L2C_writeback_hit 76149
Core_0_L2C_writeback_miss 0
Core_0_L2C_writeback_MPKI 0
Core_0_L2C_writeback_miss_rate 0
Core_0_L2C_prefetch_requested 0
Core_0_L2C_prefetch_issued 0
Core_0_L2C_prefetch_useful 0
Core_0_L2C_prefetch_useless 0
Core_0_L2C_prefetch_late 0
Core_0_L2C_prefetch_accuracy 0
Core_0_L2C_prefetch_coverage 0

Core_0_LLC_total_access 85025
Core_0_LLC_total_hit 13064
Core_0_LLC_total_miss 71961
Core_0_LLC_total_MPKI 1.43922
Core_0_LLC_total_miss_rate 0.846351
Core_0_LLC_demand_access 43919
Core_0_LLC_demand_hit 4693
Core_0_LLC_demand_miss 39226
Core_0_LLC_demand_MPKI 0.78452
Core_0_LLC_demand_miss_rate 0.893144
Core_0_LLC_load_access 10581
Core_0_LLC_load_hit 4327
Core_0_LLC_load_miss 6254
Core_0_LLC_load_MPKI 0.12508
Core_0_LLC_load_miss_rate 0.591059
Core_0_LLC_rfo_access 33338
Core_0_LLC_rfo_hit 366
Core_0_LLC_rfo_miss 32972
Core_0_LLC_rfo_MPKI 0.65944
Core_0_LLC_rfo_miss_rate 0.989022
Core_0_LLC_prefetch_access 0
Core_0_LLC_prefetch_hit 0
Core_0_LLC_prefetch_miss 0
Core_0_LLC_prefetch_MPKI 0
Core_0_LLC_prefetch_miss_rate 0
Core_0_LLC_writeback_access 41106
Core_0_LLC_writeback_hit 8371
Core_0_LLC_writeback_miss 32735
Core_0_LLC_writeback_MPKI 0.6547
Core_0_LLC_writeback_miss_rate 0.796356
Core_0_LLC_prefetch_requested 0
Core_0_LLC_prefetch_issued 0
Core_0_LLC_prefetch_useful 0
Core_0_LLC_prefetch_useless 0
Core_0_LLC_prefetch_late 0
Core_0_LLC_prefetch_accuracy 0
Core_0_LLC_prefetch_coverage 0

[DRAM Statistics]
Channel_0_RQ_row_buffer_hit 4370
Channel_0_RQ_row_buffer_miss 37031
Channel_0_WQ_row_buffer_hit 3833
Channel_0_WQ_row_buffer_miss 35892
Channel_0_WQ_full 0
Channel_0_dbus_congested 252912
DRAM_total_RQ_row_buffer_hit 4370
DRAM_total_RQ_row_buffer_miss 37031
DRAM_total_WQ_row_buffer_hit 3833
DRAM_total_WQ_row_buffer_miss 35892
DRAM_total_WQ_full 0
DRAM_total_dbus_congested 252912
DRAM_avg_congested_cycle 9.86763

======STLB miss causes ========
Core_0_STLB_miss_cause_breakdown
Core_0_STLB_cause_Demand_Data_miss 4097
Core_0_STLB_cause_Demand_Data_miss_rate 0.0114347
Core_0_STLB_cause_Demand_Instruction_miss 20
Core_0_STLB_cause_Demand_Instruction_miss_rate 5.58201e-05
Core_0_STLB_cause_L1D_Prefetch_miss 0
Core_0_STLB_cause_L1D_Prefetch_miss_rate 0
Core_0_STLB_cause_L1I_Prefetch_miss 0
Core_0_STLB_cause_L1I_Prefetch_miss_rate 0
Core_0_STLB_cause_Other_miss 0
Core_0_STLB_cause_Other_miss_rate 0
Core_0_STLB_Demand_miss 4117
Core_0_STLB_Demand_miss_rate 0.0114906
Core_0_STLB_L1D_Prefetch_miss 0
Core_0_STLB_L1D_Prefetch_miss_rate 0
Core_0_STLB_Other_miss 0
Core_0_STLB_Other_miss_rate 0
