[VMEM] WARNING: physical memory size is smaller than virtual memory size.

*** ChampSim Multicore Out-of-Order Simulator ***
Warmup Instructions: 20000000
Simulation Instructions: 50000000
Number of CPUs: 1
Page size: 4096
Core 0: /data0/tzh/champsim_traces/SPEC17/619.lbm_s-4268B.champsimtrace.xz
Off-chip DRAM Size: 4 GiB Channels: 1 Width: 64-bit Data Rate: 3205 MT/s
Warmup halting CPU 0 at instruction 20000005 cycle 5340978 for remainder of phase
Warmup finished CPU 0 instructions: 20000005 cycles: 5340978 cumulative IPC: 3.745 (Simulation time: 00 hr 01 min 18 sec)
Warmup complete CPU 0 instructions: 20000005 cycles: 5340978 cumulative IPC: 3.745 (Simulation time: 00 hr 01 min 18 sec)
Simulation finished CPU 0 instructions: 50000005 cycles: 103096660 cumulative IPC: 0.485 (Simulation time: 00 hr 18 min 09 sec)
Simulation complete CPU 0 instructions: 50000005 cycles: 103096660 cumulative IPC: 0.485 (Simulation time: 00 hr 18 min 09 sec)

ChampSim completed all CPUs

=== Simulation ===
CPU 0 runs /data0/tzh/champsim_traces/SPEC17/619.lbm_s-4268B.champsimtrace.xz

Region of Interest Statistics

CPU 0 cumulative IPC: 0.485 instructions: 50000005 cycles: 103096660
CPU 0 Branch Prediction Accuracy: 97.09% MPKI: 0.5221 Average ROB Occupancy at Mispredict: 276.3
Branch type MPKI
BRANCH_DIRECT_JUMP: 0
BRANCH_INDIRECT: 0
BRANCH_CONDITIONAL: 0.5221
BRANCH_DIRECT_CALL: 0
BRANCH_INDIRECT_CALL: 0
BRANCH_RETURN: 0

cpu0->cpu0_STLB TOTAL        ACCESS:      68372 HIT:      31276 MISS:      37096 MSHR_MERGE:          0
cpu0->cpu0_STLB LOAD         ACCESS:      68372 HIT:      31276 MISS:      37096 MSHR_MERGE:          0
cpu0->cpu0_STLB RFO          ACCESS:          0 HIT:          0 MISS:          0 MSHR_MERGE:          0
cpu0->cpu0_STLB PREFETCH     ACCESS:          0 HIT:          0 MISS:          0 MSHR_MERGE:          0
cpu0->cpu0_STLB WRITE        ACCESS:          0 HIT:          0 MISS:          0 MSHR_MERGE:          0
cpu0->cpu0_STLB TRANSLATION  ACCESS:          0 HIT:          0 MISS:          0 MSHR_MERGE:          0
cpu0->cpu0_STLB PREFETCH REQUESTED:          0 ISSUED:          0 USEFUL:          0 USELESS:          0 LATE:          0
cpu0->cpu0_STLB AVERAGE MISS LATENCY: 252.4 cycles
cpu0->cpu0_L2C TOTAL        ACCESS:    7302233 HIT:    4871449 MISS:    2430784 MSHR_MERGE:          0
cpu0->cpu0_L2C LOAD         ACCESS:     593424 HIT:         31 MISS:     593393 MSHR_MERGE:          0
cpu0->cpu0_L2C RFO          ACCESS:    3352002 HIT:    1519295 MISS:    1832707 MSHR_MERGE:          0
cpu0->cpu0_L2C PREFETCH     ACCESS:          0 HIT:          0 MISS:          0 MSHR_MERGE:          0
cpu0->cpu0_L2C WRITE        ACCESS:    3352123 HIT:    3352123 MISS:          0 MSHR_MERGE:          0
cpu0->cpu0_L2C TRANSLATION  ACCESS:       4684 HIT:          0 MISS:       4684 MSHR_MERGE:          0
cpu0->cpu0_L2C PREFETCH REQUESTED:          0 ISSUED:          0 USEFUL:          0 USELESS:          0 LATE:          0
cpu0->cpu0_L2C AVERAGE MISS LATENCY: 502.3 cycles
cpu0->cpu0_L1I TOTAL        ACCESS:    7912024 HIT:    7912024 MISS:          0 MSHR_MERGE:          0
cpu0->cpu0_L1I LOAD         ACCESS:    7912024 HIT:    7912024 MISS:          0 MSHR_MERGE:          0
cpu0->cpu0_L1I RFO          ACCESS:          0 HIT:          0 MISS:          0 MSHR_MERGE:          0
cpu0->cpu0_L1I PREFETCH     ACCESS:          0 HIT:          0 MISS:          0 MSHR_MERGE:          0
cpu0->cpu0_L1I WRITE        ACCESS:          0 HIT:          0 MISS:          0 MSHR_MERGE:          0
cpu0->cpu0_L1I TRANSLATION  ACCESS:          0 HIT:          0 MISS:          0 MSHR_MERGE:          0
cpu0->cpu0_L1I PREFETCH REQUESTED:          0 ISSUED:          0 USEFUL:          0 USELESS:          0 LATE:          0
cpu0->cpu0_L1I AVERAGE MISS LATENCY: - cycles
cpu0->cpu0_L1D TOTAL        ACCESS:   11802335 HIT:    7466265 MISS:    4336070 MSHR_MERGE:     385840
cpu0->cpu0_L1D LOAD         ACCESS:    2684691 HIT:    1866839 MISS:     817852 MSHR_MERGE:     224428
cpu0->cpu0_L1D RFO          ACCESS:          0 HIT:          0 MISS:          0 MSHR_MERGE:          0
cpu0->cpu0_L1D PREFETCH     ACCESS:          0 HIT:          0 MISS:          0 MSHR_MERGE:          0
cpu0->cpu0_L1D WRITE        ACCESS:    9043416 HIT:    5529882 MISS:    3513534 MSHR_MERGE:     161412
cpu0->cpu0_L1D TRANSLATION  ACCESS:      74228 HIT:      69544 MISS:       4684 MSHR_MERGE:          0
cpu0->cpu0_L1D PREFETCH REQUESTED:          0 ISSUED:          0 USEFUL:          0 USELESS:          0 LATE:          0
cpu0->cpu0_L1D AVERAGE MISS LATENCY: 319 cycles
cpu0->cpu0_ITLB TOTAL        ACCESS:    5908400 HIT:    5908400 MISS:          0 MSHR_MERGE:          0
cpu0->cpu0_ITLB LOAD         ACCESS:    5908400 HIT:    5908400 MISS:          0 MSHR_MERGE:          0
cpu0->cpu0_ITLB RFO          ACCESS:          0 HIT:          0 MISS:          0 MSHR_MERGE:          0
cpu0->cpu0_ITLB PREFETCH     ACCESS:          0 HIT:          0 MISS:          0 MSHR_MERGE:          0
cpu0->cpu0_ITLB WRITE        ACCESS:          0 HIT:          0 MISS:          0 MSHR_MERGE:          0
cpu0->cpu0_ITLB TRANSLATION  ACCESS:          0 HIT:          0 MISS:          0 MSHR_MERGE:          0
cpu0->cpu0_ITLB PREFETCH REQUESTED:          0 ISSUED:          0 USEFUL:          0 USELESS:          0 LATE:          0
cpu0->cpu0_ITLB AVERAGE MISS LATENCY: - cycles
cpu0->cpu0_DTLB TOTAL        ACCESS:   11032761 HIT:   10903337 MISS:     129424 MSHR_MERGE:      61052
cpu0->cpu0_DTLB LOAD         ACCESS:   11032761 HIT:   10903337 MISS:     129424 MSHR_MERGE:      61052
cpu0->cpu0_DTLB RFO          ACCESS:          0 HIT:          0 MISS:          0 MSHR_MERGE:          0
cpu0->cpu0_DTLB PREFETCH     ACCESS:          0 HIT:          0 MISS:          0 MSHR_MERGE:          0
cpu0->cpu0_DTLB WRITE        ACCESS:          0 HIT:          0 MISS:          0 MSHR_MERGE:          0
cpu0->cpu0_DTLB TRANSLATION  ACCESS:          0 HIT:          0 MISS:          0 MSHR_MERGE:          0
cpu0->cpu0_DTLB PREFETCH REQUESTED:          0 ISSUED:          0 USEFUL:          0 USELESS:          0 LATE:          0
cpu0->cpu0_DTLB AVERAGE MISS LATENCY: 142.5 cycles
cpu0->LLC TOTAL        ACCESS:    4263512 HIT:     605754 MISS:    3657758 MSHR_MERGE:          0
cpu0->LLC LOAD         ACCESS:     593393 HIT:          3 MISS:     593390 MSHR_MERGE:          0
cpu0->LLC RFO          ACCESS:    1832702 HIT:      52635 MISS:    1780067 MSHR_MERGE:          0
cpu0->LLC PREFETCH     ACCESS:          0 HIT:          0 MISS:          0 MSHR_MERGE:          0
cpu0->LLC WRITE        ACCESS:    1832733 HIT:     553116 MISS:    1279617 MSHR_MERGE:          0
cpu0->LLC TRANSLATION  ACCESS:       4684 HIT:          0 MISS:       4684 MSHR_MERGE:          0
cpu0->LLC PREFETCH REQUESTED:          0 ISSUED:          0 USEFUL:          0 USELESS:          0 LATE:          0
cpu0->LLC AVERAGE MISS LATENCY: 326.2 cycles

DRAM Statistics

Channel 0 RQ ROW_BUFFER_HIT:     163964
  ROW_BUFFER_MISS:    2214173
  AVG DBUS CONGESTED CYCLE: 7.541
Channel 0 WQ ROW_BUFFER_HIT:     244705
  ROW_BUFFER_MISS:    1533195
  FULL:         31
Channel 0 REFRESHES ISSUED:       8591

[ROI Statistics]
[System Configuration]
num_cpus 1
cpu_freq 4000
fetch_width 6
decode_width 6
dispatch_width 6
execute_width 6
lq_width 2
sq_width 2
retire_width 6
scheduler_size 160
branch_mispredict_penalty 1
rob_size 352
lq_size 240
sq_size 112
ifetch_buffer_size 64
decode_buffer_size 32
dispatch_buffer_size 32
register_file_size 288
decode_latency 1
dispatch_latency 1
schedule_latency 0
execute_latency 0
page_size 4096
block_size 64
core_0_itlb_set 16
core_0_itlb_way 4
core_0_itlb_rq_size 16
core_0_itlb_wq_size 16
core_0_itlb_pq_size 0
core_0_itlb_mshr_size 8
core_0_itlb_hit_latency 1
core_0_itlb_fill_latency 1
core_0_itlb_max_tag_check 2
core_0_itlb_max_fill 2
core_0_dtlb_set 16
core_0_dtlb_way 4
core_0_dtlb_rq_size 16
core_0_dtlb_wq_size 16
core_0_dtlb_pq_size 0
core_0_dtlb_mshr_size 8
core_0_dtlb_hit_latency 1
core_0_dtlb_fill_latency 1
core_0_dtlb_max_tag_check 2
core_0_dtlb_max_fill 2
core_0_stlb_set 128
core_0_stlb_way 12
core_0_stlb_rq_size 32
core_0_stlb_wq_size 32
core_0_stlb_pq_size 0
core_0_stlb_mshr_size 16
core_0_stlb_hit_latency 4
core_0_stlb_fill_latency 4
core_0_stlb_max_tag_check 1
core_0_stlb_max_fill 1
core_0_l1i_set 64
core_0_l1i_way 8
core_0_l1i_rq_size 64
core_0_l1i_wq_size 64
core_0_l1i_pq_size 32
core_0_l1i_mshr_size 8
core_0_l1i_hit_latency 2
core_0_l1i_fill_latency 2
core_0_l1i_max_tag_check 2
core_0_l1i_max_fill 2
core_0_l1d_set 64
core_0_l1d_way 12
core_0_l1d_rq_size 64
core_0_l1d_wq_size 64
core_0_l1d_pq_size 8
core_0_l1d_mshr_size 16
core_0_l1d_hit_latency 2
core_0_l1d_fill_latency 3
core_0_l1d_max_tag_check 2
core_0_l1d_max_fill 2
core_0_l2c_set 1024
core_0_l2c_way 8
core_0_l2c_rq_size 32
core_0_l2c_wq_size 32
core_0_l2c_pq_size 16
core_0_l2c_mshr_size 32
core_0_l2c_hit_latency 5
core_0_l2c_fill_latency 5
core_0_l2c_max_tag_check 1
core_0_l2c_max_fill 1
llc_set 2048
llc_way 16
llc_rq_size 32
llc_wq_size 32
llc_pq_size 32
llc_mshr_size 64
llc_hit_latency 10
llc_fill_latency 10
llc_max_tag_check 1
llc_max_fill 1
dram_channels 1
dram_ranks 1
dram_bankgroups 8
dram_banks 4
dram_rows 16384
dram_columns 1024
dram_channel_width 8
dram_rq_size 64
dram_wq_size 64
dram_size 4294967296
core_0_itlb_prefetcher no
core_0_dtlb_prefetcher no
core_0_stlb_prefetcher no
core_0_l1i_prefetcher no
core_0_l1d_prefetcher no
core_0_l2c_prefetcher no
llc_prefetcher no
llc_replacement drrip

Core_0_instructions 50000005
Core_0_cycles 103096660
Core_0_IPC 0.484982
Core_0_branch_prediction_accuracy 97.0869
Core_0_branch_MPKI 0.52214
Core_0_average_ROB_occupancy_at_mispredict 276.33

Core_0_ITLB_total_access 5908400
Core_0_ITLB_total_hit 5908400
Core_0_ITLB_total_miss 0
Core_0_ITLB_total_MPKI 0
Core_0_ITLB_total_miss_rate 0
Core_0_ITLB_demand_access 5908400
Core_0_ITLB_demand_hit 5908400
Core_0_ITLB_demand_miss 0
Core_0_ITLB_demand_MPKI 0
Core_0_ITLB_demand_miss_rate 0
Core_0_ITLB_load_access 5908400
Core_0_ITLB_load_hit 5908400
Core_0_ITLB_load_miss 0
Core_0_ITLB_load_MPKI 0
Core_0_ITLB_load_miss_rate 0
Core_0_ITLB_rfo_access 0
Core_0_ITLB_rfo_hit 0
Core_0_ITLB_rfo_miss 0
Core_0_ITLB_rfo_MPKI 0
Core_0_ITLB_rfo_miss_rate 0
Core_0_ITLB_prefetch_access 0
Core_0_ITLB_prefetch_hit 0
Core_0_ITLB_prefetch_miss 0
Core_0_ITLB_prefetch_MPKI 0
Core_0_ITLB_prefetch_miss_rate 0
Core_0_ITLB_writeback_access 0
Core_0_ITLB_writeback_hit 0
Core_0_ITLB_writeback_miss 0
Core_0_ITLB_writeback_MPKI 0
Core_0_ITLB_writeback_miss_rate 0
Core_0_ITLB_prefetch_requested 0
Core_0_ITLB_prefetch_issued 0
Core_0_ITLB_prefetch_useful 0
Core_0_ITLB_prefetch_useless 0
Core_0_ITLB_prefetch_late 0
Core_0_ITLB_prefetch_accuracy 0
Core_0_ITLB_prefetch_coverage 0

Core_0_DTLB_total_access 11032761
Core_0_DTLB_total_hit 10903337
Core_0_DTLB_total_miss 129424
Core_0_DTLB_total_MPKI 2.58848
Core_0_DTLB_total_miss_rate 0.0117309
Core_0_DTLB_demand_access 11032761
Core_0_DTLB_demand_hit 10903337
Core_0_DTLB_demand_miss 129424
Core_0_DTLB_demand_MPKI 2.58848
Core_0_DTLB_demand_miss_rate 0.0117309
Core_0_DTLB_load_access 11032761
Core_0_DTLB_load_hit 10903337
Core_0_DTLB_load_miss 129424
Core_0_DTLB_load_MPKI 2.58848
Core_0_DTLB_load_miss_rate 0.0117309
Core_0_DTLB_rfo_access 0
Core_0_DTLB_rfo_hit 0
Core_0_DTLB_rfo_miss 0
Core_0_DTLB_rfo_MPKI 0
Core_0_DTLB_rfo_miss_rate 0
Core_0_DTLB_prefetch_access 0
Core_0_DTLB_prefetch_hit 0
Core_0_DTLB_prefetch_miss 0
Core_0_DTLB_prefetch_MPKI 0
Core_0_DTLB_prefetch_miss_rate 0
Core_0_DTLB_writeback_access 0
Core_0_DTLB_writeback_hit 0
Core_0_DTLB_writeback_miss 0
Core_0_DTLB_writeback_MPKI 0
Core_0_DTLB_writeback_miss_rate 0
Core_0_DTLB_prefetch_requested 0
Core_0_DTLB_prefetch_issued 0
Core_0_DTLB_prefetch_useful 0
Core_0_DTLB_prefetch_useless 0
Core_0_DTLB_prefetch_late 0
Core_0_DTLB_prefetch_accuracy 0
Core_0_DTLB_prefetch_coverage 0

Core_0_STLB_total_access 68372
Core_0_STLB_total_hit 31276
Core_0_STLB_total_miss 37096
Core_0_STLB_total_MPKI 0.74192
Core_0_STLB_total_miss_rate 0.542561
Core_0_STLB_demand_access 68372
Core_0_STLB_demand_hit 31276
Core_0_STLB_demand_miss 37096
Core_0_STLB_demand_MPKI 0.74192
Core_0_STLB_demand_miss_rate 0.542561
Core_0_STLB_load_access 68372
Core_0_STLB_load_hit 31276
Core_0_STLB_load_miss 37096
Core_0_STLB_load_MPKI 0.74192
Core_0_STLB_load_miss_rate 0.542561
Core_0_STLB_rfo_access 0
Core_0_STLB_rfo_hit 0
Core_0_STLB_rfo_miss 0
Core_0_STLB_rfo_MPKI 0
Core_0_STLB_rfo_miss_rate 0
Core_0_STLB_prefetch_access 0
Core_0_STLB_prefetch_hit 0
Core_0_STLB_prefetch_miss 0
Core_0_STLB_prefetch_MPKI 0
Core_0_STLB_prefetch_miss_rate 0
Core_0_STLB_writeback_access 0
Core_0_STLB_writeback_hit 0
Core_0_STLB_writeback_miss 0
Core_0_STLB_writeback_MPKI 0
Core_0_STLB_writeback_miss_rate 0
Core_0_STLB_prefetch_requested 0
Core_0_STLB_prefetch_issued 0
Core_0_STLB_prefetch_useful 0
Core_0_STLB_prefetch_useless 0
Core_0_STLB_prefetch_late 0
Core_0_STLB_prefetch_accuracy 0
Core_0_STLB_prefetch_coverage 0

Core_0_L1I_total_access 7912024
Core_0_L1I_total_hit 7912024
Core_0_L1I_total_miss 0
Core_0_L1I_total_MPKI 0
Core_0_L1I_total_miss_rate 0
Core_0_L1I_demand_access 7912024
Core_0_L1I_demand_hit 7912024
Core_0_L1I_demand_miss 0
Core_0_L1I_demand_MPKI 0
Core_0_L1I_demand_miss_rate 0
Core_0_L1I_load_access 7912024
Core_0_L1I_load_hit 7912024
Core_0_L1I_load_miss 0
Core_0_L1I_load_MPKI 0
Core_0_L1I_load_miss_rate 0
Core_0_L1I_rfo_access 0
Core_0_L1I_rfo_hit 0
Core_0_L1I_rfo_miss 0
Core_0_L1I_rfo_MPKI 0
Core_0_L1I_rfo_miss_rate 0
Core_0_L1I_prefetch_access 0
Core_0_L1I_prefetch_hit 0
Core_0_L1I_prefetch_miss 0
Core_0_L1I_prefetch_MPKI 0
Core_0_L1I_prefetch_miss_rate 0
Core_0_L1I_writeback_access 0
Core_0_L1I_writeback_hit 0
Core_0_L1I_writeback_miss 0
Core_0_L1I_writeback_MPKI 0
Core_0_L1I_writeback_miss_rate 0
Core_0_L1I_prefetch_requested 0
Core_0_L1I_prefetch_issued 0
Core_0_L1I_prefetch_useful 0
Core_0_L1I_prefetch_useless 0
Core_0_L1I_prefetch_late 0
Core_0_L1I_prefetch_accuracy 0
Core_0_L1I_prefetch_coverage 0

Core_0_L1D_total_access 11728107
Core_0_L1D_total_hit 7396721
Core_0_L1D_total_miss 4331386
Core_0_L1D_total_MPKI 86.6277
Core_0_L1D_total_miss_rate 0.369317
Core_0_L1D_demand_access 2684691
Core_0_L1D_demand_hit 1866839
Core_0_L1D_demand_miss 817852
Core_0_L1D_demand_MPKI 16.357
Core_0_L1D_demand_miss_rate 0.304635
Core_0_L1D_load_access 2684691
Core_0_L1D_load_hit 1866839
Core_0_L1D_load_miss 817852
Core_0_L1D_load_MPKI 16.357
Core_0_L1D_load_miss_rate 0.304635
Core_0_L1D_rfo_access 0
Core_0_L1D_rfo_hit 0
Core_0_L1D_rfo_miss 0
Core_0_L1D_rfo_MPKI 0
Core_0_L1D_rfo_miss_rate 0
Core_0_L1D_prefetch_access 0
Core_0_L1D_prefetch_hit 0
Core_0_L1D_prefetch_miss 0
Core_0_L1D_prefetch_MPKI 0
Core_0_L1D_prefetch_miss_rate 0
Core_0_L1D_writeback_access 9043416
Core_0_L1D_writeback_hit 5529882
Core_0_L1D_writeback_miss 3513534
Core_0_L1D_writeback_MPKI 70.2707
Core_0_L1D_writeback_miss_rate 0.388518
Core_0_L1D_prefetch_requested 0
Core_0_L1D_prefetch_issued 0
Core_0_L1D_prefetch_useful 0
Core_0_L1D_prefetch_useless 0
Core_0_L1D_prefetch_late 0
Core_0_L1D_prefetch_accuracy 0
Core_0_L1D_prefetch_coverage 0

Core_0_L2C_total_access 7297549
Core_0_L2C_total_hit 4871449
Core_0_L2C_total_miss 2426100
Core_0_L2C_total_MPKI 48.522
Core_0_L2C_total_miss_rate 0.332454
Core_0_L2C_demand_access 3945426
Core_0_L2C_demand_hit 1519326
Core_0_L2C_demand_miss 2426100
Core_0_L2C_demand_MPKI 48.522
Core_0_L2C_demand_miss_rate 0.614915
Core_0_L2C_load_access 593424
Core_0_L2C_load_hit 31
Core_0_L2C_load_miss 593393
Core_0_L2C_load_MPKI 11.8679
Core_0_L2C_load_miss_rate 0.999948
Core_0_L2C_rfo_access 3352002
Core_0_L2C_rfo_hit 1519295
Core_0_L2C_rfo_miss 1832707
Core_0_L2C_rfo_MPKI 36.6541
Core_0_L2C_rfo_miss_rate 0.54675
Core_0_L2C_prefetch_access 0
Core_0_L2C_prefetch_hit 0
Core_0_L2C_prefetch_miss 0
Core_0_L2C_prefetch_MPKI 0
Core_0_L2C_prefetch_miss_rate 0
Core_0_L2C_writeback_access 3352123
Core_0_L2C_writeback_hit 3352123
Core_0_L2C_writeback_miss 0
Core_0_L2C_writeback_MPKI 0
Core_0_L2C_writeback_miss_rate 0
Core_0_L2C_prefetch_requested 0
Core_0_L2C_prefetch_issued 0
Core_0_L2C_prefetch_useful 0
Core_0_L2C_prefetch_useless 0
Core_0_L2C_prefetch_late 0
Core_0_L2C_prefetch_accuracy 0
Core_0_L2C_prefetch_coverage 0

Core_0_LLC_total_access 4258828
Core_0_LLC_total_hit 605754
Core_0_LLC_total_miss 3653074
Core_0_LLC_total_MPKI 73.0615
Core_0_LLC_total_miss_rate 0.857765
Core_0_LLC_demand_access 2426095
Core_0_LLC_demand_hit 52638
Core_0_LLC_demand_miss 2373457
Core_0_LLC_demand_MPKI 47.4691
Core_0_LLC_demand_miss_rate 0.978303
Core_0_LLC_load_access 593393
Core_0_LLC_load_hit 3
Core_0_LLC_load_miss 593390
Core_0_LLC_load_MPKI 11.8678
Core_0_LLC_load_miss_rate 0.999995
Core_0_LLC_rfo_access 1832702
Core_0_LLC_rfo_hit 52635
Core_0_LLC_rfo_miss 1780067
Core_0_LLC_rfo_MPKI 35.6013
Core_0_LLC_rfo_miss_rate 0.97128
Core_0_LLC_prefetch_access 0
Core_0_LLC_prefetch_hit 0
Core_0_LLC_prefetch_miss 0
Core_0_LLC_prefetch_MPKI 0
Core_0_LLC_prefetch_miss_rate 0
Core_0_LLC_writeback_access 1832733
Core_0_LLC_writeback_hit 553116
Core_0_LLC_writeback_miss 1279617
Core_0_LLC_writeback_MPKI 25.5923
Core_0_LLC_writeback_miss_rate 0.698202
Core_0_LLC_prefetch_requested 0
Core_0_LLC_prefetch_issued 0
Core_0_LLC_prefetch_useful 0
Core_0_LLC_prefetch_useless 0
Core_0_LLC_prefetch_late 0
Core_0_LLC_prefetch_accuracy 0
Core_0_LLC_prefetch_coverage 0

[DRAM Statistics]
Channel_0_RQ_row_buffer_hit 163964
Channel_0_RQ_row_buffer_miss 2214173
Channel_0_WQ_row_buffer_hit 244705
Channel_0_WQ_row_buffer_miss 1533195
Channel_0_WQ_full 31
Channel_0_dbus_congested 15720908
DRAM_total_RQ_row_buffer_hit 163964
DRAM_total_RQ_row_buffer_miss 2214173
DRAM_total_WQ_row_buffer_hit 244705
DRAM_total_WQ_row_buffer_miss 1533195
DRAM_total_WQ_full 31
DRAM_total_dbus_congested 15720908
DRAM_avg_congested_cycle 7.54063

======STLB miss causes ========
Core_0_STLB_miss_cause_breakdown
Core_0_STLB_cause_Demand_Data_miss 37096
Core_0_STLB_cause_Demand_Data_miss_rate 0.542561
Core_0_STLB_cause_Demand_Instruction_miss 0
Core_0_STLB_cause_Demand_Instruction_miss_rate 0
Core_0_STLB_cause_L1D_Prefetch_miss 0
Core_0_STLB_cause_L1D_Prefetch_miss_rate 0
Core_0_STLB_cause_L1I_Prefetch_miss 0
Core_0_STLB_cause_L1I_Prefetch_miss_rate 0
Core_0_STLB_cause_Other_miss 0
Core_0_STLB_cause_Other_miss_rate 0
Core_0_STLB_Demand_miss 37096
Core_0_STLB_Demand_miss_rate 0.542561
Core_0_STLB_L1D_Prefetch_miss 0
Core_0_STLB_L1D_Prefetch_miss_rate 0
Core_0_STLB_Other_miss 0
Core_0_STLB_Other_miss_rate 0
