[VMEM] WARNING: physical memory size is smaller than virtual memory size.

*** ChampSim Multicore Out-of-Order Simulator ***
Warmup Instructions: 20000000
Simulation Instructions: 50000000
Number of CPUs: 1
Page size: 4096
Core 0: /data0/tzh/champsim_traces/Ligra/ligra_PageRankDelta.com-lj.ungraph.gcc_6.3.0_O3.drop_17000M.length_250M.champsimtrace.xz
Off-chip DRAM Size: 4 GiB Channels: 1 Width: 64-bit Data Rate: 3205 MT/s
Warmup halting CPU 0 at instruction 20000003 cycle 6271231 for remainder of phase
Warmup finished CPU 0 instructions: 20000003 cycles: 6271231 cumulative IPC: 3.189 (Simulation time: 00 hr 01 min 04 sec)
Warmup complete CPU 0 instructions: 20000003 cycles: 6271231 cumulative IPC: 3.189 (Simulation time: 00 hr 01 min 04 sec)
Simulation finished CPU 0 instructions: 50000004 cycles: 45335034 cumulative IPC: 1.103 (Simulation time: 00 hr 07 min 22 sec)
Simulation complete CPU 0 instructions: 50000004 cycles: 45335034 cumulative IPC: 1.103 (Simulation time: 00 hr 07 min 22 sec)

ChampSim completed all CPUs

=== Simulation ===
CPU 0 runs /data0/tzh/champsim_traces/Ligra/ligra_PageRankDelta.com-lj.ungraph.gcc_6.3.0_O3.drop_17000M.length_250M.champsimtrace.xz

Region of Interest Statistics

CPU 0 cumulative IPC: 1.103 instructions: 50000004 cycles: 45335034
CPU 0 Branch Prediction Accuracy: 99.3% MPKI: 0.695 Average ROB Occupancy at Mispredict: 244.5
Branch type MPKI
BRANCH_DIRECT_JUMP: 2e-05
BRANCH_INDIRECT: 0
BRANCH_CONDITIONAL: 0.6949
BRANCH_DIRECT_CALL: 4e-05
BRANCH_INDIRECT_CALL: 0
BRANCH_RETURN: 0.00012

cpu0->cpu0_STLB TOTAL        ACCESS:      21783 HIT:      11218 MISS:      10565 MSHR_MERGE:          0
cpu0->cpu0_STLB LOAD         ACCESS:      21783 HIT:      11218 MISS:      10565 MSHR_MERGE:          0
cpu0->cpu0_STLB RFO          ACCESS:          0 HIT:          0 MISS:          0 MSHR_MERGE:          0
cpu0->cpu0_STLB PREFETCH     ACCESS:          0 HIT:          0 MISS:          0 MSHR_MERGE:          0
cpu0->cpu0_STLB WRITE        ACCESS:          0 HIT:          0 MISS:          0 MSHR_MERGE:          0
cpu0->cpu0_STLB TRANSLATION  ACCESS:          0 HIT:          0 MISS:          0 MSHR_MERGE:          0
cpu0->cpu0_STLB PREFETCH REQUESTED:          0 ISSUED:          0 USEFUL:          0 USELESS:          0 LATE:          0
cpu0->cpu0_STLB AVERAGE MISS LATENCY: 169 cycles
cpu0->cpu0_L2C TOTAL        ACCESS:    1614445 HIT:     732766 MISS:     881679 MSHR_MERGE:          0
cpu0->cpu0_L2C LOAD         ACCESS:     600729 HIT:     172961 MISS:     427768 MSHR_MERGE:          0
cpu0->cpu0_L2C RFO          ACCESS:     485439 HIT:      33594 MISS:     451845 MSHR_MERGE:          0
cpu0->cpu0_L2C PREFETCH     ACCESS:          0 HIT:          0 MISS:          0 MSHR_MERGE:          0
cpu0->cpu0_L2C WRITE        ACCESS:     524283 HIT:     524236 MISS:         47 MSHR_MERGE:          0
cpu0->cpu0_L2C TRANSLATION  ACCESS:       3994 HIT:       1975 MISS:       2019 MSHR_MERGE:          0
cpu0->cpu0_L2C PREFETCH REQUESTED:          0 ISSUED:          0 USEFUL:          0 USELESS:          0 LATE:          0
cpu0->cpu0_L2C AVERAGE MISS LATENCY: 366.3 cycles
cpu0->cpu0_L1I TOTAL        ACCESS:    6292665 HIT:    6292660 MISS:          5 MSHR_MERGE:          2
cpu0->cpu0_L1I LOAD         ACCESS:    6292665 HIT:    6292660 MISS:          5 MSHR_MERGE:          2
cpu0->cpu0_L1I RFO          ACCESS:          0 HIT:          0 MISS:          0 MSHR_MERGE:          0
cpu0->cpu0_L1I PREFETCH     ACCESS:          0 HIT:          0 MISS:          0 MSHR_MERGE:          0
cpu0->cpu0_L1I WRITE        ACCESS:          0 HIT:          0 MISS:          0 MSHR_MERGE:          0
cpu0->cpu0_L1I TRANSLATION  ACCESS:          0 HIT:          0 MISS:          0 MSHR_MERGE:          0
cpu0->cpu0_L1I PREFETCH REQUESTED:          0 ISSUED:          0 USEFUL:          0 USELESS:          0 LATE:          0
cpu0->cpu0_L1I AVERAGE MISS LATENCY: 260.7 cycles
cpu0->cpu0_L1D TOTAL        ACCESS:   13909307 HIT:    9847991 MISS:    4061316 MSHR_MERGE:    2971144
cpu0->cpu0_L1D LOAD         ACCESS:    3663397 HIT:    2289728 MISS:    1373669 MSHR_MERGE:     772943
cpu0->cpu0_L1D RFO          ACCESS:          0 HIT:          0 MISS:          0 MSHR_MERGE:          0
cpu0->cpu0_L1D PREFETCH     ACCESS:          0 HIT:          0 MISS:          0 MSHR_MERGE:          0
cpu0->cpu0_L1D WRITE        ACCESS:   10225487 HIT:    7542596 MISS:    2682891 MSHR_MERGE:    2197439
cpu0->cpu0_L1D TRANSLATION  ACCESS:      20423 HIT:      15667 MISS:       4756 MSHR_MERGE:        762
cpu0->cpu0_L1D PREFETCH REQUESTED:          0 ISSUED:          0 USEFUL:          0 USELESS:          0 LATE:          0
cpu0->cpu0_L1D AVERAGE MISS LATENCY: 305.2 cycles
cpu0->cpu0_ITLB TOTAL        ACCESS:    6176572 HIT:    6176572 MISS:          0 MSHR_MERGE:          0
cpu0->cpu0_ITLB LOAD         ACCESS:    6176572 HIT:    6176572 MISS:          0 MSHR_MERGE:          0
cpu0->cpu0_ITLB RFO          ACCESS:          0 HIT:          0 MISS:          0 MSHR_MERGE:          0
cpu0->cpu0_ITLB PREFETCH     ACCESS:          0 HIT:          0 MISS:          0 MSHR_MERGE:          0
cpu0->cpu0_ITLB WRITE        ACCESS:          0 HIT:          0 MISS:          0 MSHR_MERGE:          0
cpu0->cpu0_ITLB TRANSLATION  ACCESS:          0 HIT:          0 MISS:          0 MSHR_MERGE:          0
cpu0->cpu0_ITLB PREFETCH REQUESTED:          0 ISSUED:          0 USEFUL:          0 USELESS:          0 LATE:          0
cpu0->cpu0_ITLB AVERAGE MISS LATENCY: - cycles
cpu0->cpu0_DTLB TOTAL        ACCESS:   12181362 HIT:   12084314 MISS:      97048 MSHR_MERGE:      75265
cpu0->cpu0_DTLB LOAD         ACCESS:   12181362 HIT:   12084314 MISS:      97048 MSHR_MERGE:      75265
cpu0->cpu0_DTLB RFO          ACCESS:          0 HIT:          0 MISS:          0 MSHR_MERGE:          0
cpu0->cpu0_DTLB PREFETCH     ACCESS:          0 HIT:          0 MISS:          0 MSHR_MERGE:          0
cpu0->cpu0_DTLB WRITE        ACCESS:          0 HIT:          0 MISS:          0 MSHR_MERGE:          0
cpu0->cpu0_DTLB TRANSLATION  ACCESS:          0 HIT:          0 MISS:          0 MSHR_MERGE:          0
cpu0->cpu0_DTLB PREFETCH REQUESTED:          0 ISSUED:          0 USEFUL:          0 USELESS:          0 LATE:          0
cpu0->cpu0_DTLB AVERAGE MISS LATENCY: 87.44 cycles
cpu0->LLC TOTAL        ACCESS:    1377437 HIT:     103796 MISS:    1273641 MSHR_MERGE:          0
cpu0->LLC LOAD         ACCESS:     427768 HIT:      21953 MISS:     405815 MSHR_MERGE:          0
cpu0->LLC RFO          ACCESS:     451845 HIT:       3081 MISS:     448764 MSHR_MERGE:          0
cpu0->LLC PREFETCH     ACCESS:          0 HIT:          0 MISS:          0 MSHR_MERGE:          0
cpu0->LLC WRITE        ACCESS:     495805 HIT:      78702 MISS:     417103 MSHR_MERGE:          0
cpu0->LLC TRANSLATION  ACCESS:       2019 HIT:         60 MISS:       1959 MSHR_MERGE:          0
cpu0->LLC PREFETCH REQUESTED:          0 ISSUED:          0 USEFUL:          0 USELESS:          0 LATE:          0
cpu0->LLC AVERAGE MISS LATENCY: 245.4 cycles

DRAM Statistics

Channel 0 RQ ROW_BUFFER_HIT:      45303
  ROW_BUFFER_MISS:     811139
  AVG DBUS CONGESTED CYCLE: 7.614
Channel 0 WQ ROW_BUFFER_HIT:      83908
  ROW_BUFFER_MISS:     411439
  FULL:       1001
Channel 0 REFRESHES ISSUED:       3778

[ROI Statistics]
[System Configuration]
num_cpus 1
cpu_freq 4000
fetch_width 6
decode_width 6
dispatch_width 6
execute_width 6
lq_width 2
sq_width 2
retire_width 6
scheduler_size 160
branch_mispredict_penalty 1
rob_size 352
lq_size 240
sq_size 112
ifetch_buffer_size 64
decode_buffer_size 32
dispatch_buffer_size 32
register_file_size 288
decode_latency 1
dispatch_latency 1
schedule_latency 0
execute_latency 0
page_size 4096
block_size 64
core_0_itlb_set 16
core_0_itlb_way 4
core_0_itlb_rq_size 16
core_0_itlb_wq_size 16
core_0_itlb_pq_size 0
core_0_itlb_mshr_size 8
core_0_itlb_hit_latency 1
core_0_itlb_fill_latency 1
core_0_itlb_max_tag_check 2
core_0_itlb_max_fill 2
core_0_dtlb_set 16
core_0_dtlb_way 4
core_0_dtlb_rq_size 16
core_0_dtlb_wq_size 16
core_0_dtlb_pq_size 0
core_0_dtlb_mshr_size 8
core_0_dtlb_hit_latency 1
core_0_dtlb_fill_latency 1
core_0_dtlb_max_tag_check 2
core_0_dtlb_max_fill 2
core_0_stlb_set 128
core_0_stlb_way 12
core_0_stlb_rq_size 32
core_0_stlb_wq_size 32
core_0_stlb_pq_size 0
core_0_stlb_mshr_size 16
core_0_stlb_hit_latency 4
core_0_stlb_fill_latency 4
core_0_stlb_max_tag_check 1
core_0_stlb_max_fill 1
core_0_l1i_set 64
core_0_l1i_way 8
core_0_l1i_rq_size 64
core_0_l1i_wq_size 64
core_0_l1i_pq_size 32
core_0_l1i_mshr_size 8
core_0_l1i_hit_latency 2
core_0_l1i_fill_latency 2
core_0_l1i_max_tag_check 2
core_0_l1i_max_fill 2
core_0_l1d_set 64
core_0_l1d_way 12
core_0_l1d_rq_size 64
core_0_l1d_wq_size 64
core_0_l1d_pq_size 8
core_0_l1d_mshr_size 16
core_0_l1d_hit_latency 2
core_0_l1d_fill_latency 3
core_0_l1d_max_tag_check 2
core_0_l1d_max_fill 2
core_0_l2c_set 1024
core_0_l2c_way 8
core_0_l2c_rq_size 32
core_0_l2c_wq_size 32
core_0_l2c_pq_size 16
core_0_l2c_mshr_size 32
core_0_l2c_hit_latency 5
core_0_l2c_fill_latency 5
core_0_l2c_max_tag_check 1
core_0_l2c_max_fill 1
llc_set 2048
llc_way 16
llc_rq_size 32
llc_wq_size 32
llc_pq_size 32
llc_mshr_size 64
llc_hit_latency 10
llc_fill_latency 10
llc_max_tag_check 1
llc_max_fill 1
dram_channels 1
dram_ranks 1
dram_bankgroups 8
dram_banks 4
dram_rows 16384
dram_columns 1024
dram_channel_width 8
dram_rq_size 64
dram_wq_size 64
dram_size 4294967296
core_0_itlb_prefetcher no
core_0_dtlb_prefetcher no
core_0_stlb_prefetcher no
core_0_l1i_prefetcher no
core_0_l1d_prefetcher no
core_0_l2c_prefetcher no
llc_prefetcher no
llc_replacement drrip

Core_0_instructions 50000004
Core_0_cycles 45335034
Core_0_IPC 1.1029
Core_0_branch_prediction_accuracy 99.3037
Core_0_branch_MPKI 0.69504
Core_0_average_ROB_occupancy_at_mispredict 244.48

Core_0_ITLB_total_access 6176572
Core_0_ITLB_total_hit 6176572
Core_0_ITLB_total_miss 0
Core_0_ITLB_total_MPKI 0
Core_0_ITLB_total_miss_rate 0
Core_0_ITLB_demand_access 6176572
Core_0_ITLB_demand_hit 6176572
Core_0_ITLB_demand_miss 0
Core_0_ITLB_demand_MPKI 0
Core_0_ITLB_demand_miss_rate 0
Core_0_ITLB_load_access 6176572
Core_0_ITLB_load_hit 6176572
Core_0_ITLB_load_miss 0
Core_0_ITLB_load_MPKI 0
Core_0_ITLB_load_miss_rate 0
Core_0_ITLB_rfo_access 0
Core_0_ITLB_rfo_hit 0
Core_0_ITLB_rfo_miss 0
Core_0_ITLB_rfo_MPKI 0
Core_0_ITLB_rfo_miss_rate 0
Core_0_ITLB_prefetch_access 0
Core_0_ITLB_prefetch_hit 0
Core_0_ITLB_prefetch_miss 0
Core_0_ITLB_prefetch_MPKI 0
Core_0_ITLB_prefetch_miss_rate 0
Core_0_ITLB_writeback_access 0
Core_0_ITLB_writeback_hit 0
Core_0_ITLB_writeback_miss 0
Core_0_ITLB_writeback_MPKI 0
Core_0_ITLB_writeback_miss_rate 0
Core_0_ITLB_prefetch_requested 0
Core_0_ITLB_prefetch_issued 0
Core_0_ITLB_prefetch_useful 0
Core_0_ITLB_prefetch_useless 0
Core_0_ITLB_prefetch_late 0
Core_0_ITLB_prefetch_accuracy 0
Core_0_ITLB_prefetch_coverage 0

Core_0_DTLB_total_access 12181362
Core_0_DTLB_total_hit 12084314
Core_0_DTLB_total_miss 97048
Core_0_DTLB_total_MPKI 1.94096
Core_0_DTLB_total_miss_rate 0.00796693
Core_0_DTLB_demand_access 12181362
Core_0_DTLB_demand_hit 12084314
Core_0_DTLB_demand_miss 97048
Core_0_DTLB_demand_MPKI 1.94096
Core_0_DTLB_demand_miss_rate 0.00796693
Core_0_DTLB_load_access 12181362
Core_0_DTLB_load_hit 12084314
Core_0_DTLB_load_miss 97048
Core_0_DTLB_load_MPKI 1.94096
Core_0_DTLB_load_miss_rate 0.00796693
Core_0_DTLB_rfo_access 0
Core_0_DTLB_rfo_hit 0
Core_0_DTLB_rfo_miss 0
Core_0_DTLB_rfo_MPKI 0
Core_0_DTLB_rfo_miss_rate 0
Core_0_DTLB_prefetch_access 0
Core_0_DTLB_prefetch_hit 0
Core_0_DTLB_prefetch_miss 0
Core_0_DTLB_prefetch_MPKI 0
Core_0_DTLB_prefetch_miss_rate 0
Core_0_DTLB_writeback_access 0
Core_0_DTLB_writeback_hit 0
Core_0_DTLB_writeback_miss 0
Core_0_DTLB_writeback_MPKI 0
Core_0_DTLB_writeback_miss_rate 0
Core_0_DTLB_prefetch_requested 0
Core_0_DTLB_prefetch_issued 0
Core_0_DTLB_prefetch_useful 0
Core_0_DTLB_prefetch_useless 0
Core_0_DTLB_prefetch_late 0
Core_0_DTLB_prefetch_accuracy 0
Core_0_DTLB_prefetch_coverage 0

Core_0_STLB_total_access 21783
Core_0_STLB_total_hit 11218
Core_0_STLB_total_miss 10565
Core_0_STLB_total_MPKI 0.2113
Core_0_STLB_total_miss_rate 0.485011
Core_0_STLB_demand_access 21783
Core_0_STLB_demand_hit 11218
Core_0_STLB_demand_miss 10565
Core_0_STLB_demand_MPKI 0.2113
Core_0_STLB_demand_miss_rate 0.485011
Core_0_STLB_load_access 21783
Core_0_STLB_load_hit 11218
Core_0_STLB_load_miss 10565
Core_0_STLB_load_MPKI 0.2113
Core_0_STLB_load_miss_rate 0.485011
Core_0_STLB_rfo_access 0
Core_0_STLB_rfo_hit 0
Core_0_STLB_rfo_miss 0
Core_0_STLB_rfo_MPKI 0
Core_0_STLB_rfo_miss_rate 0
Core_0_STLB_prefetch_access 0
Core_0_STLB_prefetch_hit 0
Core_0_STLB_prefetch_miss 0
Core_0_STLB_prefetch_MPKI 0
Core_0_STLB_prefetch_miss_rate 0
Core_0_STLB_writeback_access 0
Core_0_STLB_writeback_hit 0
Core_0_STLB_writeback_miss 0
Core_0_STLB_writeback_MPKI 0
Core_0_STLB_writeback_miss_rate 0
Core_0_STLB_prefetch_requested 0
Core_0_STLB_prefetch_issued 0
Core_0_STLB_prefetch_useful 0
Core_0_STLB_prefetch_useless 0
Core_0_STLB_prefetch_late 0
Core_0_STLB_prefetch_accuracy 0
Core_0_STLB_prefetch_coverage 0

Core_0_L1I_total_access 6292665
Core_0_L1I_total_hit 6292660
Core_0_L1I_total_miss 5
Core_0_L1I_total_MPKI 0.0001
Core_0_L1I_total_miss_rate 7.94576e-07
Core_0_L1I_demand_access 6292665
Core_0_L1I_demand_hit 6292660
Core_0_L1I_demand_miss 5
Core_0_L1I_demand_MPKI 0.0001
Core_0_L1I_demand_miss_rate 7.94576e-07
Core_0_L1I_load_access 6292665
Core_0_L1I_load_hit 6292660
Core_0_L1I_load_miss 5
Core_0_L1I_load_MPKI 0.0001
Core_0_L1I_load_miss_rate 7.94576e-07
Core_0_L1I_rfo_access 0
Core_0_L1I_rfo_hit 0
Core_0_L1I_rfo_miss 0
Core_0_L1I_rfo_MPKI 0
Core_0_L1I_rfo_miss_rate 0
Core_0_L1I_prefetch_access 0
Core_0_L1I_prefetch_hit 0
Core_0_L1I_prefetch_miss 0
Core_0_L1I_prefetch_MPKI 0
Core_0_L1I_prefetch_miss_rate 0
Core_0_L1I_writeback_access 0
Core_0_L1I_writeback_hit 0
Core_0_L1I_writeback_miss 0
Core_0_L1I_writeback_MPKI 0
Core_0_L1I_writeback_miss_rate 0
Core_0_L1I_prefetch_requested 0
Core_0_L1I_prefetch_issued 0
Core_0_L1I_prefetch_useful 0
Core_0_L1I_prefetch_useless 0
Core_0_L1I_prefetch_late 0
Core_0_L1I_prefetch_accuracy 0
Core_0_L1I_prefetch_coverage 0

Core_0_L1D_total_access 13888884
Core_0_L1D_total_hit 9832324
Core_0_L1D_total_miss 4056560
Core_0_L1D_total_MPKI 81.1312
Core_0_L1D_total_miss_rate 0.292072
Core_0_L1D_demand_access 3663397
Core_0_L1D_demand_hit 2289728
Core_0_L1D_demand_miss 1373669
Core_0_L1D_demand_MPKI 27.4734
Core_0_L1D_demand_miss_rate 0.374971
Core_0_L1D_load_access 3663397
Core_0_L1D_load_hit 2289728
Core_0_L1D_load_miss 1373669
Core_0_L1D_load_MPKI 27.4734
Core_0_L1D_load_miss_rate 0.374971
Core_0_L1D_rfo_access 0
Core_0_L1D_rfo_hit 0
Core_0_L1D_rfo_miss 0
Core_0_L1D_rfo_MPKI 0
Core_0_L1D_rfo_miss_rate 0
Core_0_L1D_prefetch_access 0
Core_0_L1D_prefetch_hit 0
Core_0_L1D_prefetch_miss 0
Core_0_L1D_prefetch_MPKI 0
Core_0_L1D_prefetch_miss_rate 0
Core_0_L1D_writeback_access 10225487
Core_0_L1D_writeback_hit 7542596
Core_0_L1D_writeback_miss 2682891
Core_0_L1D_writeback_MPKI 53.6578
Core_0_L1D_writeback_miss_rate 0.262373
Core_0_L1D_prefetch_requested 0
Core_0_L1D_prefetch_issued 0
Core_0_L1D_prefetch_useful 0
Core_0_L1D_prefetch_useless 0
Core_0_L1D_prefetch_late 0
Core_0_L1D_prefetch_accuracy 0
Core_0_L1D_prefetch_coverage 0

Core_0_L2C_total_access 1610451
Core_0_L2C_total_hit 730791
Core_0_L2C_total_miss 879660
Core_0_L2C_total_MPKI 17.5932
Core_0_L2C_total_miss_rate 0.54622
Core_0_L2C_demand_access 1086168
Core_0_L2C_demand_hit 206555
Core_0_L2C_demand_miss 879613
Core_0_L2C_demand_MPKI 17.5923
Core_0_L2C_demand_miss_rate 0.809831
Core_0_L2C_load_access 600729
Core_0_L2C_load_hit 172961
Core_0_L2C_load_miss 427768
Core_0_L2C_load_MPKI 8.55536
Core_0_L2C_load_miss_rate 0.712081
Core_0_L2C_rfo_access 485439
Core_0_L2C_rfo_hit 33594
Core_0_L2C_rfo_miss 451845
Core_0_L2C_rfo_MPKI 9.0369
Core_0_L2C_rfo_miss_rate 0.930797
Core_0_L2C_prefetch_access 0
Core_0_L2C_prefetch_hit 0
Core_0_L2C_prefetch_miss 0
Core_0_L2C_prefetch_MPKI 0
Core_0_L2C_prefetch_miss_rate 0
Core_0_L2C_writeback_access 524283
Core_0_L2C_writeback_hit 524236
Core_0_L2C_writeback_miss 47
Core_0_L2C_writeback_MPKI 0.00094
Core_0_L2C_writeback_miss_rate 8.96462e-05
Core_0_L2C_prefetch_requested 0
Core_0_L2C_prefetch_issued 0
Core_0_L2C_prefetch_useful 0
Core_0_L2C_prefetch_useless 0
Core_0_L2C_prefetch_late 0
Core_0_L2C_prefetch_accuracy 0
Core_0_L2C_prefetch_coverage 0

Core_0_LLC_total_access 1375418
Core_0_LLC_total_hit 103736
Core_0_LLC_total_miss 1271682
Core_0_LLC_total_MPKI 25.4336
Core_0_LLC_total_miss_rate 0.924579
Core_0_LLC_demand_access 879613
Core_0_LLC_demand_hit 25034
Core_0_LLC_demand_miss 854579
Core_0_LLC_demand_MPKI 17.0916
Core_0_LLC_demand_miss_rate 0.97154
Core_0_LLC_load_access 427768
Core_0_LLC_load_hit 21953
Core_0_LLC_load_miss 405815
Core_0_LLC_load_MPKI 8.1163
Core_0_LLC_load_miss_rate 0.94868
Core_0_LLC_rfo_access 451845
Core_0_LLC_rfo_hit 3081
Core_0_LLC_rfo_miss 448764
Core_0_LLC_rfo_MPKI 8.97528
Core_0_LLC_rfo_miss_rate 0.993181
Core_0_LLC_prefetch_access 0
Core_0_LLC_prefetch_hit 0
Core_0_LLC_prefetch_miss 0
Core_0_LLC_prefetch_MPKI 0
Core_0_LLC_prefetch_miss_rate 0
Core_0_LLC_writeback_access 495805
Core_0_LLC_writeback_hit 78702
Core_0_LLC_writeback_miss 417103
Core_0_LLC_writeback_MPKI 8.34206
Core_0_LLC_writeback_miss_rate 0.841264
Core_0_LLC_prefetch_requested 0
Core_0_LLC_prefetch_issued 0
Core_0_LLC_prefetch_useful 0
Core_0_LLC_prefetch_useless 0
Core_0_LLC_prefetch_late 0
Core_0_LLC_prefetch_accuracy 0
Core_0_LLC_prefetch_coverage 0

[DRAM Statistics]
Channel_0_RQ_row_buffer_hit 45303
Channel_0_RQ_row_buffer_miss 811139
Channel_0_WQ_row_buffer_hit 83908
Channel_0_WQ_row_buffer_miss 411439
Channel_0_WQ_full 1001
Channel_0_dbus_congested 4344776
DRAM_total_RQ_row_buffer_hit 45303
DRAM_total_RQ_row_buffer_miss 811139
DRAM_total_WQ_row_buffer_hit 83908
DRAM_total_WQ_row_buffer_miss 411439
DRAM_total_WQ_full 1001
DRAM_total_dbus_congested 4344776
DRAM_avg_congested_cycle 7.61421

======STLB miss causes ========
Core_0_STLB_miss_cause_breakdown
Core_0_STLB_cause_Demand_Data_miss 10565
Core_0_STLB_cause_Demand_Data_miss_rate 0.485011
Core_0_STLB_cause_Demand_Instruction_miss 0
Core_0_STLB_cause_Demand_Instruction_miss_rate 0
Core_0_STLB_cause_L1D_Prefetch_miss 0
Core_0_STLB_cause_L1D_Prefetch_miss_rate 0
Core_0_STLB_cause_L1I_Prefetch_miss 0
Core_0_STLB_cause_L1I_Prefetch_miss_rate 0
Core_0_STLB_cause_Other_miss 0
Core_0_STLB_cause_Other_miss_rate 0
Core_0_STLB_Demand_miss 10565
Core_0_STLB_Demand_miss_rate 0.485011
Core_0_STLB_L1D_Prefetch_miss 0
Core_0_STLB_L1D_Prefetch_miss_rate 0
Core_0_STLB_Other_miss 0
Core_0_STLB_Other_miss_rate 0
