[VMEM] WARNING: physical memory size is smaller than virtual memory size.

*** ChampSim Multicore Out-of-Order Simulator ***
Warmup Instructions: 20000000
Simulation Instructions: 50000000
Number of CPUs: 1
Page size: 4096
Core 0: /data0/tzh/champsim_traces/Ligra/ligra_BFSCC.com-lj.ungraph.gcc_6.3.0_O3.drop_11250M.length_250M.champsimtrace.xz
Off-chip DRAM Size: 4 GiB Channels: 1 Width: 64-bit Data Rate: 3205 MT/s
Warmup halting CPU 0 at instruction 20000001 cycle 4466894 for remainder of phase
Warmup finished CPU 0 instructions: 20000001 cycles: 4466894 cumulative IPC: 4.477 (Simulation time: 00 hr 00 min 36 sec)
Warmup complete CPU 0 instructions: 20000001 cycles: 4466894 cumulative IPC: 4.477 (Simulation time: 00 hr 00 min 36 sec)
Simulation finished CPU 0 instructions: 50000001 cycles: 34888535 cumulative IPC: 1.433 (Simulation time: 00 hr 03 min 59 sec)
Simulation complete CPU 0 instructions: 50000001 cycles: 34888535 cumulative IPC: 1.433 (Simulation time: 00 hr 03 min 59 sec)

ChampSim completed all CPUs

=== Simulation ===
CPU 0 runs /data0/tzh/champsim_traces/Ligra/ligra_BFSCC.com-lj.ungraph.gcc_6.3.0_O3.drop_11250M.length_250M.champsimtrace.xz

Region of Interest Statistics

CPU 0 cumulative IPC: 1.433 instructions: 50000001 cycles: 34888535
CPU 0 Branch Prediction Accuracy: 95.27% MPKI: 14.31 Average ROB Occupancy at Mispredict: 43.47
Branch type MPKI
BRANCH_DIRECT_JUMP: 0
BRANCH_INDIRECT: 0
BRANCH_CONDITIONAL: 14.31
BRANCH_DIRECT_CALL: 0
BRANCH_INDIRECT_CALL: 0
BRANCH_RETURN: 0

cpu0->cpu0_STLB TOTAL        ACCESS:       1017 HIT:          0 MISS:       1017 MSHR_MERGE:          0
cpu0->cpu0_STLB LOAD         ACCESS:       1017 HIT:          0 MISS:       1017 MSHR_MERGE:          0
cpu0->cpu0_STLB RFO          ACCESS:          0 HIT:          0 MISS:          0 MSHR_MERGE:          0
cpu0->cpu0_STLB PREFETCH     ACCESS:          0 HIT:          0 MISS:          0 MSHR_MERGE:          0
cpu0->cpu0_STLB WRITE        ACCESS:          0 HIT:          0 MISS:          0 MSHR_MERGE:          0
cpu0->cpu0_STLB TRANSLATION  ACCESS:          0 HIT:          0 MISS:          0 MSHR_MERGE:          0
cpu0->cpu0_STLB PREFETCH REQUESTED:          0 ISSUED:          0 USEFUL:          0 USELESS:          0 LATE:          0
cpu0->cpu0_STLB AVERAGE MISS LATENCY: 233.7 cycles
cpu0->cpu0_L2C TOTAL        ACCESS:      78499 HIT:      13353 MISS:      65146 MSHR_MERGE:          0
cpu0->cpu0_L2C LOAD         ACCESS:      51680 HIT:          0 MISS:      51680 MSHR_MERGE:          0
cpu0->cpu0_L2C RFO          ACCESS:      13337 HIT:          0 MISS:      13337 MSHR_MERGE:          0
cpu0->cpu0_L2C PREFETCH     ACCESS:          0 HIT:          0 MISS:          0 MSHR_MERGE:          0
cpu0->cpu0_L2C WRITE        ACCESS:      13353 HIT:      13353 MISS:          0 MSHR_MERGE:          0
cpu0->cpu0_L2C TRANSLATION  ACCESS:        129 HIT:          0 MISS:        129 MSHR_MERGE:          0
cpu0->cpu0_L2C PREFETCH REQUESTED:          0 ISSUED:          0 USEFUL:          0 USELESS:          0 LATE:          0
cpu0->cpu0_L2C AVERAGE MISS LATENCY: 170.6 cycles
cpu0->cpu0_L1D TOTAL        ACCESS:    7892403 HIT:    7735712 MISS:     156691 MSHR_MERGE:      91545
cpu0->cpu0_L1D LOAD         ACCESS:    5329786 HIT:    5198929 MISS:     130857 MSHR_MERGE:      79177
cpu0->cpu0_L1D RFO          ACCESS:          0 HIT:          0 MISS:          0 MSHR_MERGE:          0
cpu0->cpu0_L1D PREFETCH     ACCESS:          0 HIT:          0 MISS:          0 MSHR_MERGE:          0
cpu0->cpu0_L1D WRITE        ACCESS:    2560581 HIT:    2534876 MISS:      25705 MSHR_MERGE:      12368
cpu0->cpu0_L1D TRANSLATION  ACCESS:       2036 HIT:       1907 MISS:        129 MSHR_MERGE:          0
cpu0->cpu0_L1D PREFETCH REQUESTED:          0 ISSUED:          0 USEFUL:          0 USELESS:          0 LATE:          0
cpu0->cpu0_L1D AVERAGE MISS LATENCY: 179.6 cycles
cpu0->cpu0_DTLB TOTAL        ACCESS:    7682362 HIT:    7679804 MISS:       2558 MSHR_MERGE:       1541
cpu0->cpu0_DTLB LOAD         ACCESS:    7682362 HIT:    7679804 MISS:       2558 MSHR_MERGE:       1541
cpu0->cpu0_DTLB RFO          ACCESS:          0 HIT:          0 MISS:          0 MSHR_MERGE:          0
cpu0->cpu0_DTLB PREFETCH     ACCESS:          0 HIT:          0 MISS:          0 MSHR_MERGE:          0
cpu0->cpu0_DTLB WRITE        ACCESS:          0 HIT:          0 MISS:          0 MSHR_MERGE:          0
cpu0->cpu0_DTLB TRANSLATION  ACCESS:          0 HIT:          0 MISS:          0 MSHR_MERGE:          0
cpu0->cpu0_DTLB PREFETCH REQUESTED:          0 ISSUED:          0 USEFUL:          0 USELESS:          0 LATE:          0
cpu0->cpu0_DTLB AVERAGE MISS LATENCY: 239.7 cycles
cpu0->LLC TOTAL        ACCESS:      78377 HIT:       4382 MISS:      73995 MSHR_MERGE:          0
cpu0->LLC LOAD         ACCESS:      51680 HIT:          0 MISS:      51680 MSHR_MERGE:          0
cpu0->LLC RFO          ACCESS:      13337 HIT:          0 MISS:      13337 MSHR_MERGE:          0
cpu0->LLC PREFETCH     ACCESS:          0 HIT:          0 MISS:          0 MSHR_MERGE:          0
cpu0->LLC WRITE        ACCESS:      13231 HIT:       4382 MISS:       8849 MSHR_MERGE:          0
cpu0->LLC TRANSLATION  ACCESS:        129 HIT:          0 MISS:        129 MSHR_MERGE:          0
cpu0->LLC PREFETCH REQUESTED:          0 ISSUED:          0 USEFUL:          0 USELESS:          0 LATE:          0
cpu0->LLC AVERAGE MISS LATENCY: 137.2 cycles

DRAM Statistics

Channel 0 RQ ROW_BUFFER_HIT:          0
  ROW_BUFFER_MISS:      65146
  AVG DBUS CONGESTED CYCLE: 13.42
Channel 0 WQ ROW_BUFFER_HIT:        103
  ROW_BUFFER_MISS:       1245
  FULL:          0
Channel 0 REFRESHES ISSUED:       2907

[ROI Statistics]
[System Configuration]
num_cpus 1
cpu_freq 4000
fetch_width 6
decode_width 6
dispatch_width 6
execute_width 6
lq_width 2
sq_width 2
retire_width 6
scheduler_size 160
branch_mispredict_penalty 1
rob_size 352
lq_size 240
sq_size 112
ifetch_buffer_size 64
decode_buffer_size 32
dispatch_buffer_size 32
register_file_size 288
decode_latency 1
dispatch_latency 1
schedule_latency 0
execute_latency 0
page_size 4096
block_size 64
core_0_itlb_set 16
core_0_itlb_way 4
core_0_itlb_rq_size 16
core_0_itlb_wq_size 16
core_0_itlb_pq_size 0
core_0_itlb_mshr_size 8
core_0_itlb_hit_latency 1
core_0_itlb_fill_latency 1
core_0_itlb_max_tag_check 2
core_0_itlb_max_fill 2
core_0_dtlb_set 16
core_0_dtlb_way 4
core_0_dtlb_rq_size 16
core_0_dtlb_wq_size 16
core_0_dtlb_pq_size 0
core_0_dtlb_mshr_size 8
core_0_dtlb_hit_latency 1
core_0_dtlb_fill_latency 1
core_0_dtlb_max_tag_check 2
core_0_dtlb_max_fill 2
core_0_stlb_set 128
core_0_stlb_way 12
core_0_stlb_rq_size 32
core_0_stlb_wq_size 32
core_0_stlb_pq_size 0
core_0_stlb_mshr_size 16
core_0_stlb_hit_latency 4
core_0_stlb_fill_latency 4
core_0_stlb_max_tag_check 1
core_0_stlb_max_fill 1
core_0_l1i_set 64
core_0_l1i_way 8
core_0_l1i_rq_size 64
core_0_l1i_wq_size 64
core_0_l1i_pq_size 32
core_0_l1i_mshr_size 8
core_0_l1i_hit_latency 2
core_0_l1i_fill_latency 2
core_0_l1i_max_tag_check 2
core_0_l1i_max_fill 2
core_0_l1d_set 64
core_0_l1d_way 12
core_0_l1d_rq_size 64
core_0_l1d_wq_size 64
core_0_l1d_pq_size 8
core_0_l1d_mshr_size 16
core_0_l1d_hit_latency 2
core_0_l1d_fill_latency 3
core_0_l1d_max_tag_check 2
core_0_l1d_max_fill 2
core_0_l2c_set 1024
core_0_l2c_way 8
core_0_l2c_rq_size 32
core_0_l2c_wq_size 32
core_0_l2c_pq_size 16
core_0_l2c_mshr_size 32
core_0_l2c_hit_latency 5
core_0_l2c_fill_latency 5
core_0_l2c_max_tag_check 1
core_0_l2c_max_fill 1
llc_set 2048
llc_way 16
llc_rq_size 32
llc_wq_size 32
llc_pq_size 32
llc_mshr_size 64
llc_hit_latency 10
llc_fill_latency 10
llc_max_tag_check 1
llc_max_fill 1
dram_channels 1
dram_ranks 1
dram_bankgroups 8
dram_banks 4
dram_rows 16384
dram_columns 1024
dram_channel_width 8
dram_rq_size 64
dram_wq_size 64
dram_size 4294967296
core_0_itlb_prefetcher no
core_0_dtlb_prefetcher no
core_0_stlb_prefetcher no
core_0_l1i_prefetcher no
core_0_l1d_prefetcher no
core_0_l2c_prefetcher no
llc_prefetcher no
llc_replacement drrip

Core_0_instructions 50000001
Core_0_cycles 34888535
Core_0_IPC 1.43314
Core_0_branch_prediction_accuracy 95.2719
Core_0_branch_MPKI 14.308
Core_0_average_ROB_occupancy_at_mispredict 43.4718

Core_0_ITLB_total_access 0
Core_0_ITLB_total_hit 0
Core_0_ITLB_total_miss 0
Core_0_ITLB_total_MPKI 0
Core_0_ITLB_total_miss_rate 0
Core_0_ITLB_demand_access 0
Core_0_ITLB_demand_hit 0
Core_0_ITLB_demand_miss 0
Core_0_ITLB_demand_MPKI 0
Core_0_ITLB_demand_miss_rate 0
Core_0_ITLB_load_access 0
Core_0_ITLB_load_hit 0
Core_0_ITLB_load_miss 0
Core_0_ITLB_load_MPKI 0
Core_0_ITLB_load_miss_rate 0
Core_0_ITLB_rfo_access 0
Core_0_ITLB_rfo_hit 0
Core_0_ITLB_rfo_miss 0
Core_0_ITLB_rfo_MPKI 0
Core_0_ITLB_rfo_miss_rate 0
Core_0_ITLB_prefetch_access 0
Core_0_ITLB_prefetch_hit 0
Core_0_ITLB_prefetch_miss 0
Core_0_ITLB_prefetch_MPKI 0
Core_0_ITLB_prefetch_miss_rate 0
Core_0_ITLB_writeback_access 0
Core_0_ITLB_writeback_hit 0
Core_0_ITLB_writeback_miss 0
Core_0_ITLB_writeback_MPKI 0
Core_0_ITLB_writeback_miss_rate 0
Core_0_ITLB_prefetch_requested 0
Core_0_ITLB_prefetch_issued 0
Core_0_ITLB_prefetch_useful 0
Core_0_ITLB_prefetch_useless 0
Core_0_ITLB_prefetch_late 0
Core_0_ITLB_prefetch_accuracy 0
Core_0_ITLB_prefetch_coverage 0

Core_0_DTLB_total_access 7682362
Core_0_DTLB_total_hit 7679804
Core_0_DTLB_total_miss 2558
Core_0_DTLB_total_MPKI 0.05116
Core_0_DTLB_total_miss_rate 0.000332971
Core_0_DTLB_demand_access 7682362
Core_0_DTLB_demand_hit 7679804
Core_0_DTLB_demand_miss 2558
Core_0_DTLB_demand_MPKI 0.05116
Core_0_DTLB_demand_miss_rate 0.000332971
Core_0_DTLB_load_access 7682362
Core_0_DTLB_load_hit 7679804
Core_0_DTLB_load_miss 2558
Core_0_DTLB_load_MPKI 0.05116
Core_0_DTLB_load_miss_rate 0.000332971
Core_0_DTLB_rfo_access 0
Core_0_DTLB_rfo_hit 0
Core_0_DTLB_rfo_miss 0
Core_0_DTLB_rfo_MPKI 0
Core_0_DTLB_rfo_miss_rate 0
Core_0_DTLB_prefetch_access 0
Core_0_DTLB_prefetch_hit 0
Core_0_DTLB_prefetch_miss 0
Core_0_DTLB_prefetch_MPKI 0
Core_0_DTLB_prefetch_miss_rate 0
Core_0_DTLB_writeback_access 0
Core_0_DTLB_writeback_hit 0
Core_0_DTLB_writeback_miss 0
Core_0_DTLB_writeback_MPKI 0
Core_0_DTLB_writeback_miss_rate 0
Core_0_DTLB_prefetch_requested 0
Core_0_DTLB_prefetch_issued 0
Core_0_DTLB_prefetch_useful 0
Core_0_DTLB_prefetch_useless 0
Core_0_DTLB_prefetch_late 0
Core_0_DTLB_prefetch_accuracy 0
Core_0_DTLB_prefetch_coverage 0

Core_0_STLB_total_access 1017
Core_0_STLB_total_hit 0
Core_0_STLB_total_miss 1017
Core_0_STLB_total_MPKI 0.02034
Core_0_STLB_total_miss_rate 1
Core_0_STLB_demand_access 1017
Core_0_STLB_demand_hit 0
Core_0_STLB_demand_miss 1017
Core_0_STLB_demand_MPKI 0.02034
Core_0_STLB_demand_miss_rate 1
Core_0_STLB_load_access 1017
Core_0_STLB_load_hit 0
Core_0_STLB_load_miss 1017
Core_0_STLB_load_MPKI 0.02034
Core_0_STLB_load_miss_rate 1
Core_0_STLB_rfo_access 0
Core_0_STLB_rfo_hit 0
Core_0_STLB_rfo_miss 0
Core_0_STLB_rfo_MPKI 0
Core_0_STLB_rfo_miss_rate 0
Core_0_STLB_prefetch_access 0
Core_0_STLB_prefetch_hit 0
Core_0_STLB_prefetch_miss 0
Core_0_STLB_prefetch_MPKI 0
Core_0_STLB_prefetch_miss_rate 0
Core_0_STLB_writeback_access 0
Core_0_STLB_writeback_hit 0
Core_0_STLB_writeback_miss 0
Core_0_STLB_writeback_MPKI 0
Core_0_STLB_writeback_miss_rate 0
Core_0_STLB_prefetch_requested 0
Core_0_STLB_prefetch_issued 0
Core_0_STLB_prefetch_useful 0
Core_0_STLB_prefetch_useless 0
Core_0_STLB_prefetch_late 0
Core_0_STLB_prefetch_accuracy 0
Core_0_STLB_prefetch_coverage 0

Core_0_L1I_total_access 0
Core_0_L1I_total_hit 0
Core_0_L1I_total_miss 0
Core_0_L1I_total_MPKI 0
Core_0_L1I_total_miss_rate 0
Core_0_L1I_demand_access 0
Core_0_L1I_demand_hit 0
Core_0_L1I_demand_miss 0
Core_0_L1I_demand_MPKI 0
Core_0_L1I_demand_miss_rate 0
Core_0_L1I_load_access 0
Core_0_L1I_load_hit 0
Core_0_L1I_load_miss 0
Core_0_L1I_load_MPKI 0
Core_0_L1I_load_miss_rate 0
Core_0_L1I_rfo_access 0
Core_0_L1I_rfo_hit 0
Core_0_L1I_rfo_miss 0
Core_0_L1I_rfo_MPKI 0
Core_0_L1I_rfo_miss_rate 0
Core_0_L1I_prefetch_access 0
Core_0_L1I_prefetch_hit 0
Core_0_L1I_prefetch_miss 0
Core_0_L1I_prefetch_MPKI 0
Core_0_L1I_prefetch_miss_rate 0
Core_0_L1I_writeback_access 0
Core_0_L1I_writeback_hit 0
Core_0_L1I_writeback_miss 0
Core_0_L1I_writeback_MPKI 0
Core_0_L1I_writeback_miss_rate 0
Core_0_L1I_prefetch_requested 0
Core_0_L1I_prefetch_issued 0
Core_0_L1I_prefetch_useful 0
Core_0_L1I_prefetch_useless 0
Core_0_L1I_prefetch_late 0
Core_0_L1I_prefetch_accuracy 0
Core_0_L1I_prefetch_coverage 0

Core_0_L1D_total_access 7890367
Core_0_L1D_total_hit 7733805
Core_0_L1D_total_miss 156562
Core_0_L1D_total_MPKI 3.13124
Core_0_L1D_total_miss_rate 0.0198422
Core_0_L1D_demand_access 5329786
Core_0_L1D_demand_hit 5198929
Core_0_L1D_demand_miss 130857
Core_0_L1D_demand_MPKI 2.61714
Core_0_L1D_demand_miss_rate 0.024552
Core_0_L1D_load_access 5329786
Core_0_L1D_load_hit 5198929
Core_0_L1D_load_miss 130857
Core_0_L1D_load_MPKI 2.61714
Core_0_L1D_load_miss_rate 0.024552
Core_0_L1D_rfo_access 0
Core_0_L1D_rfo_hit 0
Core_0_L1D_rfo_miss 0
Core_0_L1D_rfo_MPKI 0
Core_0_L1D_rfo_miss_rate 0
Core_0_L1D_prefetch_access 0
Core_0_L1D_prefetch_hit 0
Core_0_L1D_prefetch_miss 0
Core_0_L1D_prefetch_MPKI 0
Core_0_L1D_prefetch_miss_rate 0
Core_0_L1D_writeback_access 2560581
Core_0_L1D_writeback_hit 2534876
Core_0_L1D_writeback_miss 25705
Core_0_L1D_writeback_MPKI 0.5141
Core_0_L1D_writeback_miss_rate 0.0100387
Core_0_L1D_prefetch_requested 0
Core_0_L1D_prefetch_issued 0
Core_0_L1D_prefetch_useful 0
Core_0_L1D_prefetch_useless 0
Core_0_L1D_prefetch_late 0
Core_0_L1D_prefetch_accuracy 0
Core_0_L1D_prefetch_coverage 0

Core_0_L2C_total_access 78370
Core_0_L2C_total_hit 13353
Core_0_L2C_total_miss 65017
Core_0_L2C_total_MPKI 1.30034
Core_0_L2C_total_miss_rate 0.829616
Core_0_L2C_demand_access 65017
Core_0_L2C_demand_hit 0
Core_0_L2C_demand_miss 65017
Core_0_L2C_demand_MPKI 1.30034
Core_0_L2C_demand_miss_rate 1
Core_0_L2C_load_access 51680
Core_0_L2C_load_hit 0
Core_0_L2C_load_miss 51680
Core_0_L2C_load_MPKI 1.0336
Core_0_L2C_load_miss_rate 1
Core_0_L2C_rfo_access 13337
Core_0_L2C_rfo_hit 0
Core_0_L2C_rfo_miss 13337
Core_0_L2C_rfo_MPKI 0.26674
Core_0_L2C_rfo_miss_rate 1
Core_0_L2C_prefetch_access 0
Core_0_L2C_prefetch_hit 0
Core_0_L2C_prefetch_miss 0
Core_0_L2C_prefetch_MPKI 0
Core_0_L2C_prefetch_miss_rate 0
Core_0_L2C_writeback_access 13353
Core_0_L2C_writeback_hit 13353
Core_0_L2C_writeback_miss 0
Core_0_L2C_writeback_MPKI 0
Core_0_L2C_writeback_miss_rate 0
Core_0_L2C_prefetch_requested 0
Core_0_L2C_prefetch_issued 0
Core_0_L2C_prefetch_useful 0
Core_0_L2C_prefetch_useless 0
Core_0_L2C_prefetch_late 0
Core_0_L2C_prefetch_accuracy 0
Core_0_L2C_prefetch_coverage 0

Core_0_LLC_total_access 78248
Core_0_LLC_total_hit 4382
Core_0_LLC_total_miss 73866
Core_0_LLC_total_MPKI 1.47732
Core_0_LLC_total_miss_rate 0.943999
Core_0_LLC_demand_access 65017
Core_0_LLC_demand_hit 0
Core_0_LLC_demand_miss 65017
Core_0_LLC_demand_MPKI 1.30034
Core_0_LLC_demand_miss_rate 1
Core_0_LLC_load_access 51680
Core_0_LLC_load_hit 0
Core_0_LLC_load_miss 51680
Core_0_LLC_load_MPKI 1.0336
Core_0_LLC_load_miss_rate 1
Core_0_LLC_rfo_access 13337
Core_0_LLC_rfo_hit 0
Core_0_LLC_rfo_miss 13337
Core_0_LLC_rfo_MPKI 0.26674
Core_0_LLC_rfo_miss_rate 1
Core_0_LLC_prefetch_access 0
Core_0_LLC_prefetch_hit 0
Core_0_LLC_prefetch_miss 0
Core_0_LLC_prefetch_MPKI 0
Core_0_LLC_prefetch_miss_rate 0
Core_0_LLC_writeback_access 13231
Core_0_LLC_writeback_hit 4382
Core_0_LLC_writeback_miss 8849
Core_0_LLC_writeback_MPKI 0.17698
Core_0_LLC_writeback_miss_rate 0.668808
Core_0_LLC_prefetch_requested 0
Core_0_LLC_prefetch_issued 0
Core_0_LLC_prefetch_useful 0
Core_0_LLC_prefetch_useless 0
Core_0_LLC_prefetch_late 0
Core_0_LLC_prefetch_accuracy 0
Core_0_LLC_prefetch_coverage 0

[DRAM Statistics]
Channel_0_RQ_row_buffer_hit 0
Channel_0_RQ_row_buffer_miss 65146
Channel_0_WQ_row_buffer_hit 103
Channel_0_WQ_row_buffer_miss 1245
Channel_0_WQ_full 0
Channel_0_dbus_congested 9210
DRAM_total_RQ_row_buffer_hit 0
DRAM_total_RQ_row_buffer_miss 65146
DRAM_total_WQ_row_buffer_hit 103
DRAM_total_WQ_row_buffer_miss 1245
DRAM_total_WQ_full 0
DRAM_total_dbus_congested 9210
DRAM_avg_congested_cycle 13.4155

======STLB miss causes ========
Core_0_STLB_miss_cause_breakdown
Core_0_STLB_cause_Demand_Data_miss 1017
Core_0_STLB_cause_Demand_Data_miss_rate 1
Core_0_STLB_cause_Demand_Instruction_miss 0
Core_0_STLB_cause_Demand_Instruction_miss_rate 0
Core_0_STLB_cause_L1D_Prefetch_miss 0
Core_0_STLB_cause_L1D_Prefetch_miss_rate 0
Core_0_STLB_cause_L1I_Prefetch_miss 0
Core_0_STLB_cause_L1I_Prefetch_miss_rate 0
Core_0_STLB_cause_Other_miss 0
Core_0_STLB_cause_Other_miss_rate 0
Core_0_STLB_Demand_miss 1017
Core_0_STLB_Demand_miss_rate 1
Core_0_STLB_L1D_Prefetch_miss 0
Core_0_STLB_L1D_Prefetch_miss_rate 0
Core_0_STLB_Other_miss 0
Core_0_STLB_Other_miss_rate 0
