[VMEM] WARNING: physical memory size is smaller than virtual memory size.

*** ChampSim Multicore Out-of-Order Simulator ***
Warmup Instructions: 20000000
Simulation Instructions: 50000000
Number of CPUs: 1
Page size: 4096
Core 0: /data0/tzh/champsim_traces/Ligra/ligra_CF.com-lj.ungraph.gcc_6.3.0_O3.drop_10750M.length_250M.champsimtrace.xz
Off-chip DRAM Size: 4 GiB Channels: 1 Width: 64-bit Data Rate: 3205 MT/s
Warmup halting CPU 0 at instruction 20000003 cycle 4420632 for remainder of phase
Warmup finished CPU 0 instructions: 20000003 cycles: 4420632 cumulative IPC: 4.524 (Simulation time: 00 hr 00 min 42 sec)
Warmup complete CPU 0 instructions: 20000003 cycles: 4420632 cumulative IPC: 4.524 (Simulation time: 00 hr 00 min 42 sec)
Simulation finished CPU 0 instructions: 50000000 cycles: 36548134 cumulative IPC: 1.368 (Simulation time: 00 hr 04 min 28 sec)
Simulation complete CPU 0 instructions: 50000000 cycles: 36548134 cumulative IPC: 1.368 (Simulation time: 00 hr 04 min 28 sec)

ChampSim completed all CPUs

=== Simulation ===
CPU 0 runs /data0/tzh/champsim_traces/Ligra/ligra_CF.com-lj.ungraph.gcc_6.3.0_O3.drop_10750M.length_250M.champsimtrace.xz

Region of Interest Statistics

CPU 0 cumulative IPC: 1.368 instructions: 50000000 cycles: 36548134
CPU 0 Branch Prediction Accuracy: 95.57% MPKI: 12.76 Average ROB Occupancy at Mispredict: 55.07
Branch type MPKI
BRANCH_DIRECT_JUMP: 0
BRANCH_INDIRECT: 0
BRANCH_CONDITIONAL: 12.76
BRANCH_DIRECT_CALL: 0
BRANCH_INDIRECT_CALL: 0
BRANCH_RETURN: 0

cpu0->cpu0_STLB TOTAL        ACCESS:       1205 HIT:          0 MISS:       1205 MSHR_MERGE:          0
cpu0->cpu0_STLB LOAD         ACCESS:       1205 HIT:          0 MISS:       1205 MSHR_MERGE:          0
cpu0->cpu0_STLB RFO          ACCESS:          0 HIT:          0 MISS:          0 MSHR_MERGE:          0
cpu0->cpu0_STLB PREFETCH     ACCESS:          0 HIT:          0 MISS:          0 MSHR_MERGE:          0
cpu0->cpu0_STLB WRITE        ACCESS:          0 HIT:          0 MISS:          0 MSHR_MERGE:          0
cpu0->cpu0_STLB TRANSLATION  ACCESS:          0 HIT:          0 MISS:          0 MSHR_MERGE:          0
cpu0->cpu0_STLB PREFETCH REQUESTED:          0 ISSUED:          0 USEFUL:          0 USELESS:          0 LATE:          0
cpu0->cpu0_STLB AVERAGE MISS LATENCY: 234.4 cycles
cpu0->cpu0_L2C TOTAL        ACCESS:      96061 HIT:      18799 MISS:      77262 MSHR_MERGE:          0
cpu0->cpu0_L2C LOAD         ACCESS:      58386 HIT:          0 MISS:      58386 MSHR_MERGE:          0
cpu0->cpu0_L2C RFO          ACCESS:      18723 HIT:          0 MISS:      18723 MSHR_MERGE:          0
cpu0->cpu0_L2C PREFETCH     ACCESS:          0 HIT:          0 MISS:          0 MSHR_MERGE:          0
cpu0->cpu0_L2C WRITE        ACCESS:      18717 HIT:      18717 MISS:          0 MSHR_MERGE:          0
cpu0->cpu0_L2C TRANSLATION  ACCESS:        235 HIT:         82 MISS:        153 MSHR_MERGE:          0
cpu0->cpu0_L2C PREFETCH REQUESTED:          0 ISSUED:          0 USEFUL:          0 USELESS:          0 LATE:          0
cpu0->cpu0_L2C AVERAGE MISS LATENCY: 173.6 cycles
cpu0->cpu0_L1I TOTAL        ACCESS:        564 HIT:        564 MISS:          0 MSHR_MERGE:          0
cpu0->cpu0_L1I LOAD         ACCESS:        564 HIT:        564 MISS:          0 MSHR_MERGE:          0
cpu0->cpu0_L1I RFO          ACCESS:          0 HIT:          0 MISS:          0 MSHR_MERGE:          0
cpu0->cpu0_L1I PREFETCH     ACCESS:          0 HIT:          0 MISS:          0 MSHR_MERGE:          0
cpu0->cpu0_L1I WRITE        ACCESS:          0 HIT:          0 MISS:          0 MSHR_MERGE:          0
cpu0->cpu0_L1I TRANSLATION  ACCESS:          0 HIT:          0 MISS:          0 MSHR_MERGE:          0
cpu0->cpu0_L1I PREFETCH REQUESTED:          0 ISSUED:          0 USEFUL:          0 USELESS:          0 LATE:          0
cpu0->cpu0_L1I AVERAGE MISS LATENCY: - cycles
cpu0->cpu0_L1D TOTAL        ACCESS:    9389465 HIT:    9250248 MISS:     139217 MSHR_MERGE:      61873
cpu0->cpu0_L1D LOAD         ACCESS:    5792239 HIT:    5697834 MISS:      94405 MSHR_MERGE:      36019
cpu0->cpu0_L1D RFO          ACCESS:          0 HIT:          0 MISS:          0 MSHR_MERGE:          0
cpu0->cpu0_L1D PREFETCH     ACCESS:          0 HIT:          0 MISS:          0 MSHR_MERGE:          0
cpu0->cpu0_L1D WRITE        ACCESS:    3594813 HIT:    3550236 MISS:      44577 MSHR_MERGE:      25854
cpu0->cpu0_L1D TRANSLATION  ACCESS:       2413 HIT:       2178 MISS:        235 MSHR_MERGE:          0
cpu0->cpu0_L1D PREFETCH REQUESTED:          0 ISSUED:          0 USEFUL:          0 USELESS:          0 LATE:          0
cpu0->cpu0_L1D AVERAGE MISS LATENCY: 182.5 cycles
cpu0->cpu0_ITLB TOTAL        ACCESS:        562 HIT:        562 MISS:          0 MSHR_MERGE:          0
cpu0->cpu0_ITLB LOAD         ACCESS:        562 HIT:        562 MISS:          0 MSHR_MERGE:          0
cpu0->cpu0_ITLB RFO          ACCESS:          0 HIT:          0 MISS:          0 MSHR_MERGE:          0
cpu0->cpu0_ITLB PREFETCH     ACCESS:          0 HIT:          0 MISS:          0 MSHR_MERGE:          0
cpu0->cpu0_ITLB WRITE        ACCESS:          0 HIT:          0 MISS:          0 MSHR_MERGE:          0
cpu0->cpu0_ITLB TRANSLATION  ACCESS:          0 HIT:          0 MISS:          0 MSHR_MERGE:          0
cpu0->cpu0_ITLB PREFETCH REQUESTED:          0 ISSUED:          0 USEFUL:          0 USELESS:          0 LATE:          0
cpu0->cpu0_ITLB AVERAGE MISS LATENCY: - cycles
cpu0->cpu0_DTLB TOTAL        ACCESS:    9087969 HIT:    9085547 MISS:       2422 MSHR_MERGE:       1217
cpu0->cpu0_DTLB LOAD         ACCESS:    9087969 HIT:    9085547 MISS:       2422 MSHR_MERGE:       1217
cpu0->cpu0_DTLB RFO          ACCESS:          0 HIT:          0 MISS:          0 MSHR_MERGE:          0
cpu0->cpu0_DTLB PREFETCH     ACCESS:          0 HIT:          0 MISS:          0 MSHR_MERGE:          0
cpu0->cpu0_DTLB WRITE        ACCESS:          0 HIT:          0 MISS:          0 MSHR_MERGE:          0
cpu0->cpu0_DTLB TRANSLATION  ACCESS:          0 HIT:          0 MISS:          0 MSHR_MERGE:          0
cpu0->cpu0_DTLB PREFETCH REQUESTED:          0 ISSUED:          0 USEFUL:          0 USELESS:          0 LATE:          0
cpu0->cpu0_DTLB AVERAGE MISS LATENCY: 240.4 cycles
cpu0->LLC TOTAL        ACCESS:      96003 HIT:       5685 MISS:      90318 MSHR_MERGE:          0
cpu0->LLC LOAD         ACCESS:      58386 HIT:          0 MISS:      58386 MSHR_MERGE:          0
cpu0->LLC RFO          ACCESS:      18723 HIT:          0 MISS:      18723 MSHR_MERGE:          0
cpu0->LLC PREFETCH     ACCESS:          0 HIT:          0 MISS:          0 MSHR_MERGE:          0
cpu0->LLC WRITE        ACCESS:      18741 HIT:       5684 MISS:      13057 MSHR_MERGE:          0
cpu0->LLC TRANSLATION  ACCESS:        153 HIT:          1 MISS:        152 MSHR_MERGE:          0
cpu0->LLC PREFETCH REQUESTED:          0 ISSUED:          0 USEFUL:          0 USELESS:          0 LATE:          0
cpu0->LLC AVERAGE MISS LATENCY: 136.2 cycles

DRAM Statistics

Channel 0 RQ ROW_BUFFER_HIT:          0
  ROW_BUFFER_MISS:      77262
  AVG DBUS CONGESTED CYCLE: 14.66
Channel 0 WQ ROW_BUFFER_HIT:        267
  ROW_BUFFER_MISS:       3166
  FULL:          0
Channel 0 REFRESHES ISSUED:       3046

[ROI Statistics]
[System Configuration]
num_cpus 1
cpu_freq 4000
fetch_width 6
decode_width 6
dispatch_width 6
execute_width 6
lq_width 2
sq_width 2
retire_width 6
scheduler_size 160
branch_mispredict_penalty 1
rob_size 352
lq_size 240
sq_size 112
ifetch_buffer_size 64
decode_buffer_size 32
dispatch_buffer_size 32
register_file_size 288
decode_latency 1
dispatch_latency 1
schedule_latency 0
execute_latency 0
page_size 4096
block_size 64
core_0_itlb_set 16
core_0_itlb_way 4
core_0_itlb_rq_size 16
core_0_itlb_wq_size 16
core_0_itlb_pq_size 0
core_0_itlb_mshr_size 8
core_0_itlb_hit_latency 1
core_0_itlb_fill_latency 1
core_0_itlb_max_tag_check 2
core_0_itlb_max_fill 2
core_0_dtlb_set 16
core_0_dtlb_way 4
core_0_dtlb_rq_size 16
core_0_dtlb_wq_size 16
core_0_dtlb_pq_size 0
core_0_dtlb_mshr_size 8
core_0_dtlb_hit_latency 1
core_0_dtlb_fill_latency 1
core_0_dtlb_max_tag_check 2
core_0_dtlb_max_fill 2
core_0_stlb_set 128
core_0_stlb_way 12
core_0_stlb_rq_size 32
core_0_stlb_wq_size 32
core_0_stlb_pq_size 0
core_0_stlb_mshr_size 16
core_0_stlb_hit_latency 4
core_0_stlb_fill_latency 4
core_0_stlb_max_tag_check 1
core_0_stlb_max_fill 1
core_0_l1i_set 64
core_0_l1i_way 8
core_0_l1i_rq_size 64
core_0_l1i_wq_size 64
core_0_l1i_pq_size 32
core_0_l1i_mshr_size 8
core_0_l1i_hit_latency 2
core_0_l1i_fill_latency 2
core_0_l1i_max_tag_check 2
core_0_l1i_max_fill 2
core_0_l1d_set 64
core_0_l1d_way 12
core_0_l1d_rq_size 64
core_0_l1d_wq_size 64
core_0_l1d_pq_size 8
core_0_l1d_mshr_size 16
core_0_l1d_hit_latency 2
core_0_l1d_fill_latency 3
core_0_l1d_max_tag_check 2
core_0_l1d_max_fill 2
core_0_l2c_set 1024
core_0_l2c_way 8
core_0_l2c_rq_size 32
core_0_l2c_wq_size 32
core_0_l2c_pq_size 16
core_0_l2c_mshr_size 32
core_0_l2c_hit_latency 5
core_0_l2c_fill_latency 5
core_0_l2c_max_tag_check 1
core_0_l2c_max_fill 1
llc_set 2048
llc_way 16
llc_rq_size 32
llc_wq_size 32
llc_pq_size 32
llc_mshr_size 64
llc_hit_latency 10
llc_fill_latency 10
llc_max_tag_check 1
llc_max_fill 1
dram_channels 1
dram_ranks 1
dram_bankgroups 8
dram_banks 4
dram_rows 16384
dram_columns 1024
dram_channel_width 8
dram_rq_size 64
dram_wq_size 64
dram_size 4294967296
core_0_itlb_prefetcher no
core_0_dtlb_prefetcher no
core_0_stlb_prefetcher no
core_0_l1i_prefetcher no
core_0_l1d_prefetcher no
core_0_l2c_prefetcher no
llc_prefetcher no
llc_replacement drrip

Core_0_instructions 50000000
Core_0_cycles 36548134
Core_0_IPC 1.36806
Core_0_branch_prediction_accuracy 95.5661
Core_0_branch_MPKI 12.7633
Core_0_average_ROB_occupancy_at_mispredict 55.0663

Core_0_ITLB_total_access 562
Core_0_ITLB_total_hit 562
Core_0_ITLB_total_miss 0
Core_0_ITLB_total_MPKI 0
Core_0_ITLB_total_miss_rate 0
Core_0_ITLB_demand_access 562
Core_0_ITLB_demand_hit 562
Core_0_ITLB_demand_miss 0
Core_0_ITLB_demand_MPKI 0
Core_0_ITLB_demand_miss_rate 0
Core_0_ITLB_load_access 562
Core_0_ITLB_load_hit 562
Core_0_ITLB_load_miss 0
Core_0_ITLB_load_MPKI 0
Core_0_ITLB_load_miss_rate 0
Core_0_ITLB_rfo_access 0
Core_0_ITLB_rfo_hit 0
Core_0_ITLB_rfo_miss 0
Core_0_ITLB_rfo_MPKI 0
Core_0_ITLB_rfo_miss_rate 0
Core_0_ITLB_prefetch_access 0
Core_0_ITLB_prefetch_hit 0
Core_0_ITLB_prefetch_miss 0
Core_0_ITLB_prefetch_MPKI 0
Core_0_ITLB_prefetch_miss_rate 0
Core_0_ITLB_writeback_access 0
Core_0_ITLB_writeback_hit 0
Core_0_ITLB_writeback_miss 0
Core_0_ITLB_writeback_MPKI 0
Core_0_ITLB_writeback_miss_rate 0
Core_0_ITLB_prefetch_requested 0
Core_0_ITLB_prefetch_issued 0
Core_0_ITLB_prefetch_useful 0
Core_0_ITLB_prefetch_useless 0
Core_0_ITLB_prefetch_late 0
Core_0_ITLB_prefetch_accuracy 0
Core_0_ITLB_prefetch_coverage 0

Core_0_DTLB_total_access 9087969
Core_0_DTLB_total_hit 9085547
Core_0_DTLB_total_miss 2422
Core_0_DTLB_total_MPKI 0.04844
Core_0_DTLB_total_miss_rate 0.000266506
Core_0_DTLB_demand_access 9087969
Core_0_DTLB_demand_hit 9085547
Core_0_DTLB_demand_miss 2422
Core_0_DTLB_demand_MPKI 0.04844
Core_0_DTLB_demand_miss_rate 0.000266506
Core_0_DTLB_load_access 9087969
Core_0_DTLB_load_hit 9085547
Core_0_DTLB_load_miss 2422
Core_0_DTLB_load_MPKI 0.04844
Core_0_DTLB_load_miss_rate 0.000266506
Core_0_DTLB_rfo_access 0
Core_0_DTLB_rfo_hit 0
Core_0_DTLB_rfo_miss 0
Core_0_DTLB_rfo_MPKI 0
Core_0_DTLB_rfo_miss_rate 0
Core_0_DTLB_prefetch_access 0
Core_0_DTLB_prefetch_hit 0
Core_0_DTLB_prefetch_miss 0
Core_0_DTLB_prefetch_MPKI 0
Core_0_DTLB_prefetch_miss_rate 0
Core_0_DTLB_writeback_access 0
Core_0_DTLB_writeback_hit 0
Core_0_DTLB_writeback_miss 0
Core_0_DTLB_writeback_MPKI 0
Core_0_DTLB_writeback_miss_rate 0
Core_0_DTLB_prefetch_requested 0
Core_0_DTLB_prefetch_issued 0
Core_0_DTLB_prefetch_useful 0
Core_0_DTLB_prefetch_useless 0
Core_0_DTLB_prefetch_late 0
Core_0_DTLB_prefetch_accuracy 0
Core_0_DTLB_prefetch_coverage 0

Core_0_STLB_total_access 1205
Core_0_STLB_total_hit 0
Core_0_STLB_total_miss 1205
Core_0_STLB_total_MPKI 0.0241
Core_0_STLB_total_miss_rate 1
Core_0_STLB_demand_access 1205
Core_0_STLB_demand_hit 0
Core_0_STLB_demand_miss 1205
Core_0_STLB_demand_MPKI 0.0241
Core_0_STLB_demand_miss_rate 1
Core_0_STLB_load_access 1205
Core_0_STLB_load_hit 0
Core_0_STLB_load_miss 1205
Core_0_STLB_load_MPKI 0.0241
Core_0_STLB_load_miss_rate 1
Core_0_STLB_rfo_access 0
Core_0_STLB_rfo_hit 0
Core_0_STLB_rfo_miss 0
Core_0_STLB_rfo_MPKI 0
Core_0_STLB_rfo_miss_rate 0
Core_0_STLB_prefetch_access 0
Core_0_STLB_prefetch_hit 0
Core_0_STLB_prefetch_miss 0
Core_0_STLB_prefetch_MPKI 0
Core_0_STLB_prefetch_miss_rate 0
Core_0_STLB_writeback_access 0
Core_0_STLB_writeback_hit 0
Core_0_STLB_writeback_miss 0
Core_0_STLB_writeback_MPKI 0
Core_0_STLB_writeback_miss_rate 0
Core_0_STLB_prefetch_requested 0
Core_0_STLB_prefetch_issued 0
Core_0_STLB_prefetch_useful 0
Core_0_STLB_prefetch_useless 0
Core_0_STLB_prefetch_late 0
Core_0_STLB_prefetch_accuracy 0
Core_0_STLB_prefetch_coverage 0

Core_0_L1I_total_access 564
Core_0_L1I_total_hit 564
Core_0_L1I_total_miss 0
Core_0_L1I_total_MPKI 0
Core_0_L1I_total_miss_rate 0
Core_0_L1I_demand_access 564
Core_0_L1I_demand_hit 564
Core_0_L1I_demand_miss 0
Core_0_L1I_demand_MPKI 0
Core_0_L1I_demand_miss_rate 0
Core_0_L1I_load_access 564
Core_0_L1I_load_hit 564
Core_0_L1I_load_miss 0
Core_0_L1I_load_MPKI 0
Core_0_L1I_load_miss_rate 0
Core_0_L1I_rfo_access 0
Core_0_L1I_rfo_hit 0
Core_0_L1I_rfo_miss 0
Core_0_L1I_rfo_MPKI 0
Core_0_L1I_rfo_miss_rate 0
Core_0_L1I_prefetch_access 0
Core_0_L1I_prefetch_hit 0
Core_0_L1I_prefetch_miss 0
Core_0_L1I_prefetch_MPKI 0
Core_0_L1I_prefetch_miss_rate 0
Core_0_L1I_writeback_access 0
Core_0_L1I_writeback_hit 0
Core_0_L1I_writeback_miss 0
Core_0_L1I_writeback_MPKI 0
Core_0_L1I_writeback_miss_rate 0
Core_0_L1I_prefetch_requested 0
Core_0_L1I_prefetch_issued 0
Core_0_L1I_prefetch_useful 0
Core_0_L1I_prefetch_useless 0
Core_0_L1I_prefetch_late 0
Core_0_L1I_prefetch_accuracy 0
Core_0_L1I_prefetch_coverage 0

Core_0_L1D_total_access 9387052
Core_0_L1D_total_hit 9248070
Core_0_L1D_total_miss 138982
Core_0_L1D_total_MPKI 2.77964
Core_0_L1D_total_miss_rate 0.0148057
Core_0_L1D_demand_access 5792239
Core_0_L1D_demand_hit 5697834
Core_0_L1D_demand_miss 94405
Core_0_L1D_demand_MPKI 1.8881
Core_0_L1D_demand_miss_rate 0.0162985
Core_0_L1D_load_access 5792239
Core_0_L1D_load_hit 5697834
Core_0_L1D_load_miss 94405
Core_0_L1D_load_MPKI 1.8881
Core_0_L1D_load_miss_rate 0.0162985
Core_0_L1D_rfo_access 0
Core_0_L1D_rfo_hit 0
Core_0_L1D_rfo_miss 0
Core_0_L1D_rfo_MPKI 0
Core_0_L1D_rfo_miss_rate 0
Core_0_L1D_prefetch_access 0
Core_0_L1D_prefetch_hit 0
Core_0_L1D_prefetch_miss 0
Core_0_L1D_prefetch_MPKI 0
Core_0_L1D_prefetch_miss_rate 0
Core_0_L1D_writeback_access 3594813
Core_0_L1D_writeback_hit 3550236
Core_0_L1D_writeback_miss 44577
Core_0_L1D_writeback_MPKI 0.89154
Core_0_L1D_writeback_miss_rate 0.0124004
Core_0_L1D_prefetch_requested 0
Core_0_L1D_prefetch_issued 0
Core_0_L1D_prefetch_useful 0
Core_0_L1D_prefetch_useless 0
Core_0_L1D_prefetch_late 0
Core_0_L1D_prefetch_accuracy 0
Core_0_L1D_prefetch_coverage 0

Core_0_L2C_total_access 95826
Core_0_L2C_total_hit 18717
Core_0_L2C_total_miss 77109
Core_0_L2C_total_MPKI 1.54218
Core_0_L2C_total_miss_rate 0.804677
Core_0_L2C_demand_access 77109
Core_0_L2C_demand_hit 0
Core_0_L2C_demand_miss 77109
Core_0_L2C_demand_MPKI 1.54218
Core_0_L2C_demand_miss_rate 1
Core_0_L2C_load_access 58386
Core_0_L2C_load_hit 0
Core_0_L2C_load_miss 58386
Core_0_L2C_load_MPKI 1.16772
Core_0_L2C_load_miss_rate 1
Core_0_L2C_rfo_access 18723
Core_0_L2C_rfo_hit 0
Core_0_L2C_rfo_miss 18723
Core_0_L2C_rfo_MPKI 0.37446
Core_0_L2C_rfo_miss_rate 1
Core_0_L2C_prefetch_access 0
Core_0_L2C_prefetch_hit 0
Core_0_L2C_prefetch_miss 0
Core_0_L2C_prefetch_MPKI 0
Core_0_L2C_prefetch_miss_rate 0
Core_0_L2C_writeback_access 18717
Core_0_L2C_writeback_hit 18717
Core_0_L2C_writeback_miss 0
Core_0_L2C_writeback_MPKI 0
Core_0_L2C_writeback_miss_rate 0
Core_0_L2C_prefetch_requested 0
Core_0_L2C_prefetch_issued 0
Core_0_L2C_prefetch_useful 0
Core_0_L2C_prefetch_useless 0
Core_0_L2C_prefetch_late 0
Core_0_L2C_prefetch_accuracy 0
Core_0_L2C_prefetch_coverage 0

Core_0_LLC_total_access 95850
Core_0_LLC_total_hit 5684
Core_0_LLC_total_miss 90166
Core_0_LLC_total_MPKI 1.80332
Core_0_LLC_total_miss_rate 0.940699
Core_0_LLC_demand_access 77109
Core_0_LLC_demand_hit 0
Core_0_LLC_demand_miss 77109
Core_0_LLC_demand_MPKI 1.54218
Core_0_LLC_demand_miss_rate 1
Core_0_LLC_load_access 58386
Core_0_LLC_load_hit 0
Core_0_LLC_load_miss 58386
Core_0_LLC_load_MPKI 1.16772
Core_0_LLC_load_miss_rate 1
Core_0_LLC_rfo_access 18723
Core_0_LLC_rfo_hit 0
Core_0_LLC_rfo_miss 18723
Core_0_LLC_rfo_MPKI 0.37446
Core_0_LLC_rfo_miss_rate 1
Core_0_LLC_prefetch_access 0
Core_0_LLC_prefetch_hit 0
Core_0_LLC_prefetch_miss 0
Core_0_LLC_prefetch_MPKI 0
Core_0_LLC_prefetch_miss_rate 0
Core_0_LLC_writeback_access 18741
Core_0_LLC_writeback_hit 5684
Core_0_LLC_writeback_miss 13057
Core_0_LLC_writeback_MPKI 0.26114
Core_0_LLC_writeback_miss_rate 0.696708
Core_0_LLC_prefetch_requested 0
Core_0_LLC_prefetch_issued 0
Core_0_LLC_prefetch_useful 0
Core_0_LLC_prefetch_useless 0
Core_0_LLC_prefetch_late 0
Core_0_LLC_prefetch_accuracy 0
Core_0_LLC_prefetch_coverage 0

[DRAM Statistics]
Channel_0_RQ_row_buffer_hit 0
Channel_0_RQ_row_buffer_miss 77262
Channel_0_WQ_row_buffer_hit 267
Channel_0_WQ_row_buffer_miss 3166
Channel_0_WQ_full 0
Channel_0_dbus_congested 19064
DRAM_total_RQ_row_buffer_hit 0
DRAM_total_RQ_row_buffer_miss 77262
DRAM_total_WQ_row_buffer_hit 267
DRAM_total_WQ_row_buffer_miss 3166
DRAM_total_WQ_full 0
DRAM_total_dbus_congested 19064
DRAM_avg_congested_cycle 14.6566

======STLB miss causes ========
Core_0_STLB_miss_cause_breakdown
Core_0_STLB_cause_Demand_Data_miss 1205
Core_0_STLB_cause_Demand_Data_miss_rate 1
Core_0_STLB_cause_Demand_Instruction_miss 0
Core_0_STLB_cause_Demand_Instruction_miss_rate 0
Core_0_STLB_cause_L1D_Prefetch_miss 0
Core_0_STLB_cause_L1D_Prefetch_miss_rate 0
Core_0_STLB_cause_L1I_Prefetch_miss 0
Core_0_STLB_cause_L1I_Prefetch_miss_rate 0
Core_0_STLB_cause_Other_miss 0
Core_0_STLB_cause_Other_miss_rate 0
Core_0_STLB_Demand_miss 1205
Core_0_STLB_Demand_miss_rate 1
Core_0_STLB_L1D_Prefetch_miss 0
Core_0_STLB_L1D_Prefetch_miss_rate 0
Core_0_STLB_Other_miss 0
Core_0_STLB_Other_miss_rate 0
