[VMEM] WARNING: physical memory size is smaller than virtual memory size.

*** ChampSim Multicore Out-of-Order Simulator ***
Warmup Instructions: 20000000
Simulation Instructions: 50000000
Number of CPUs: 1
Page size: 4096
Core 0: /data0/tzh/champsim_traces/SPEC17/603.bwaves_s-1740B.champsimtrace.xz
 L1D Berti prefetcher
Off-chip DRAM Size: 4 GiB Channels: 1 Width: 64-bit Data Rate: 3205 MT/s
Warmup halting CPU 0 at instruction 20000003 cycle 4243333 for remainder of phase
Warmup finished CPU 0 instructions: 20000003 cycles: 4243333 cumulative IPC: 4.713 (Simulation time: 00 hr 01 min 05 sec)
Warmup complete CPU 0 instructions: 20000003 cycles: 4243333 cumulative IPC: 4.713 (Simulation time: 00 hr 01 min 05 sec)
Simulation finished CPU 0 instructions: 50000002 cycles: 19467174 cumulative IPC: 2.568 (Simulation time: 00 hr 05 min 08 sec)
Simulation complete CPU 0 instructions: 50000002 cycles: 19467174 cumulative IPC: 2.568 (Simulation time: 00 hr 05 min 08 sec)

ChampSim completed all CPUs

=== Simulation ===
CPU 0 runs /data0/tzh/champsim_traces/SPEC17/603.bwaves_s-1740B.champsimtrace.xz

Region of Interest Statistics

CPU 0 cumulative IPC: 2.568 instructions: 50000002 cycles: 19467174
CPU 0 Branch Prediction Accuracy: 81.23% MPKI: 4.685 Average ROB Occupancy at Mispredict: 253.7
Branch type MPKI
BRANCH_DIRECT_JUMP: 0
BRANCH_INDIRECT: 0
BRANCH_CONDITIONAL: 4.685
BRANCH_DIRECT_CALL: 0
BRANCH_INDIRECT_CALL: 0
BRANCH_RETURN: 0

cpu0->cpu0_STLB TOTAL        ACCESS:      70614 HIT:      55769 MISS:      14845 MSHR_MERGE:          0
cpu0->cpu0_STLB LOAD         ACCESS:      70614 HIT:      55769 MISS:      14845 MSHR_MERGE:          0
cpu0->cpu0_STLB RFO          ACCESS:          0 HIT:          0 MISS:          0 MSHR_MERGE:          0
cpu0->cpu0_STLB PREFETCH     ACCESS:          0 HIT:          0 MISS:          0 MSHR_MERGE:          0
cpu0->cpu0_STLB WRITE        ACCESS:          0 HIT:          0 MISS:          0 MSHR_MERGE:          0
cpu0->cpu0_STLB TRANSLATION  ACCESS:          0 HIT:          0 MISS:          0 MSHR_MERGE:          0
cpu0->cpu0_STLB PREFETCH REQUESTED:          0 ISSUED:          0 USEFUL:          0 USELESS:          0 LATE:          0
cpu0->cpu0_STLB AVERAGE MISS LATENCY: 238 cycles
cpu0->cpu0_L2C TOTAL        ACCESS:    4136403 HIT:    2427100 MISS:    1709303 MSHR_MERGE:     757024
cpu0->cpu0_L2C LOAD         ACCESS:     335356 HIT:     292144 MISS:      43212 MSHR_MERGE:      15395
cpu0->cpu0_L2C RFO          ACCESS:      24362 HIT:          0 MISS:      24362 MSHR_MERGE:          0
cpu0->cpu0_L2C PREFETCH     ACCESS:    3747264 HIT:    2107442 MISS:    1639822 MSHR_MERGE:     741629
cpu0->cpu0_L2C WRITE        ACCESS:      24730 HIT:      24730 MISS:          0 MSHR_MERGE:          0
cpu0->cpu0_L2C TRANSLATION  ACCESS:       4691 HIT:       2784 MISS:       1907 MSHR_MERGE:          0
cpu0->cpu0_L2C PREFETCH REQUESTED:    5040366 ISSUED:    3107063 USEFUL:     785637 USELESS:      79638 LATE:      15395
cpu0->cpu0_L2C AVERAGE MISS LATENCY: 247.6 cycles
cpu0->cpu0_L1I TOTAL        ACCESS:     282878 HIT:     282878 MISS:          0 MSHR_MERGE:          0
cpu0->cpu0_L1I LOAD         ACCESS:     282878 HIT:     282878 MISS:          0 MSHR_MERGE:          0
cpu0->cpu0_L1I RFO          ACCESS:          0 HIT:          0 MISS:          0 MSHR_MERGE:          0
cpu0->cpu0_L1I PREFETCH     ACCESS:          0 HIT:          0 MISS:          0 MSHR_MERGE:          0
cpu0->cpu0_L1I WRITE        ACCESS:          0 HIT:          0 MISS:          0 MSHR_MERGE:          0
cpu0->cpu0_L1I TRANSLATION  ACCESS:          0 HIT:          0 MISS:          0 MSHR_MERGE:          0
cpu0->cpu0_L1I PREFETCH REQUESTED:          0 ISSUED:          0 USEFUL:          0 USELESS:          0 LATE:          0
cpu0->cpu0_L1I AVERAGE MISS LATENCY: - cycles
cpu0->cpu0_L1D TOTAL        ACCESS:   15526739 HIT:   14369681 MISS:    1157058 MSHR_MERGE:     152448
cpu0->cpu0_L1D LOAD         ACCESS:   11970390 HIT:   11616560 MISS:     353830 MSHR_MERGE:      18474
cpu0->cpu0_L1D RFO          ACCESS:          0 HIT:          0 MISS:          0 MSHR_MERGE:          0
cpu0->cpu0_L1D PREFETCH     ACCESS:     709924 HIT:      61459 MISS:     648465 MSHR_MERGE:       8264
cpu0->cpu0_L1D WRITE        ACCESS:    2816703 HIT:    2666631 MISS:     150072 MSHR_MERGE:     125710
cpu0->cpu0_L1D TRANSLATION  ACCESS:      29722 HIT:      25031 MISS:       4691 MSHR_MERGE:          0
cpu0->cpu0_L1D PREFETCH REQUESTED:     972896 ISSUED:     709916 USEFUL:     639878 USELESS:        301 LATE:      10421
cpu0->cpu0_L1D AVERAGE MISS LATENCY: 56.43 cycles
cpu0->cpu0_ITLB TOTAL        ACCESS:     241944 HIT:     241944 MISS:          0 MSHR_MERGE:          0
cpu0->cpu0_ITLB LOAD         ACCESS:     241944 HIT:     241944 MISS:          0 MSHR_MERGE:          0
cpu0->cpu0_ITLB RFO          ACCESS:          0 HIT:          0 MISS:          0 MSHR_MERGE:          0
cpu0->cpu0_ITLB PREFETCH     ACCESS:          0 HIT:          0 MISS:          0 MSHR_MERGE:          0
cpu0->cpu0_ITLB WRITE        ACCESS:          0 HIT:          0 MISS:          0 MSHR_MERGE:          0
cpu0->cpu0_ITLB TRANSLATION  ACCESS:          0 HIT:          0 MISS:          0 MSHR_MERGE:          0
cpu0->cpu0_ITLB PREFETCH REQUESTED:          0 ISSUED:          0 USEFUL:          0 USELESS:          0 LATE:          0
cpu0->cpu0_ITLB AVERAGE MISS LATENCY: - cycles
cpu0->cpu0_DTLB TOTAL        ACCESS:   14744045 HIT:   14652762 MISS:      91283 MSHR_MERGE:      20669
cpu0->cpu0_DTLB LOAD         ACCESS:   14744045 HIT:   14652762 MISS:      91283 MSHR_MERGE:      20669
cpu0->cpu0_DTLB RFO          ACCESS:          0 HIT:          0 MISS:          0 MSHR_MERGE:          0
cpu0->cpu0_DTLB PREFETCH     ACCESS:          0 HIT:          0 MISS:          0 MSHR_MERGE:          0
cpu0->cpu0_DTLB WRITE        ACCESS:          0 HIT:          0 MISS:          0 MSHR_MERGE:          0
cpu0->cpu0_DTLB TRANSLATION  ACCESS:          0 HIT:          0 MISS:          0 MSHR_MERGE:          0
cpu0->cpu0_DTLB PREFETCH REQUESTED:          0 ISSUED:          0 USEFUL:          0 USELESS:          0 LATE:          0
cpu0->cpu0_DTLB AVERAGE MISS LATENCY: 55.26 cycles
cpu0->LLC TOTAL        ACCESS:     976689 HIT:       5749 MISS:     970940 MSHR_MERGE:          0
cpu0->LLC LOAD         ACCESS:      27817 HIT:         37 MISS:      27780 MSHR_MERGE:          0
cpu0->LLC RFO          ACCESS:      24362 HIT:          0 MISS:      24362 MSHR_MERGE:          0
cpu0->LLC PREFETCH     ACCESS:     898193 HIT:       1835 MISS:     896358 MSHR_MERGE:          0
cpu0->LLC WRITE        ACCESS:      24410 HIT:       3870 MISS:      20540 MSHR_MERGE:          0
cpu0->LLC TRANSLATION  ACCESS:       1907 HIT:          7 MISS:       1900 MSHR_MERGE:          0
cpu0->LLC PREFETCH REQUESTED:          0 ISSUED:          0 USEFUL:          0 USELESS:          0 LATE:          0
cpu0->LLC AVERAGE MISS LATENCY: 185.3 cycles

DRAM Statistics

Channel 0 RQ ROW_BUFFER_HIT:        102
  ROW_BUFFER_MISS:     950292
  AVG DBUS CONGESTED CYCLE: 3.393
Channel 0 WQ ROW_BUFFER_HIT:       2864
  ROW_BUFFER_MISS:      11574
  FULL:          0
Channel 0 REFRESHES ISSUED:       1622

[ROI Statistics]
[System Configuration]
num_cpus 1
cpu_freq 4000
fetch_width 6
decode_width 6
dispatch_width 6
execute_width 6
lq_width 2
sq_width 2
retire_width 6
scheduler_size 160
branch_mispredict_penalty 1
rob_size 352
lq_size 240
sq_size 112
ifetch_buffer_size 64
decode_buffer_size 32
dispatch_buffer_size 32
register_file_size 288
decode_latency 1
dispatch_latency 1
schedule_latency 0
execute_latency 0
page_size 4096
block_size 64
core_0_itlb_set 16
core_0_itlb_way 4
core_0_itlb_rq_size 16
core_0_itlb_wq_size 16
core_0_itlb_pq_size 0
core_0_itlb_mshr_size 8
core_0_itlb_hit_latency 1
core_0_itlb_fill_latency 1
core_0_itlb_max_tag_check 2
core_0_itlb_max_fill 2
core_0_dtlb_set 16
core_0_dtlb_way 4
core_0_dtlb_rq_size 16
core_0_dtlb_wq_size 16
core_0_dtlb_pq_size 0
core_0_dtlb_mshr_size 8
core_0_dtlb_hit_latency 1
core_0_dtlb_fill_latency 1
core_0_dtlb_max_tag_check 2
core_0_dtlb_max_fill 2
core_0_stlb_set 128
core_0_stlb_way 12
core_0_stlb_rq_size 32
core_0_stlb_wq_size 32
core_0_stlb_pq_size 0
core_0_stlb_mshr_size 16
core_0_stlb_hit_latency 4
core_0_stlb_fill_latency 4
core_0_stlb_max_tag_check 1
core_0_stlb_max_fill 1
core_0_l1i_set 64
core_0_l1i_way 8
core_0_l1i_rq_size 64
core_0_l1i_wq_size 64
core_0_l1i_pq_size 32
core_0_l1i_mshr_size 8
core_0_l1i_hit_latency 2
core_0_l1i_fill_latency 2
core_0_l1i_max_tag_check 2
core_0_l1i_max_fill 2
core_0_l1d_set 64
core_0_l1d_way 12
core_0_l1d_rq_size 64
core_0_l1d_wq_size 64
core_0_l1d_pq_size 8
core_0_l1d_mshr_size 16
core_0_l1d_hit_latency 2
core_0_l1d_fill_latency 3
core_0_l1d_max_tag_check 2
core_0_l1d_max_fill 2
core_0_l2c_set 1024
core_0_l2c_way 8
core_0_l2c_rq_size 32
core_0_l2c_wq_size 32
core_0_l2c_pq_size 16
core_0_l2c_mshr_size 32
core_0_l2c_hit_latency 5
core_0_l2c_fill_latency 5
core_0_l2c_max_tag_check 1
core_0_l2c_max_fill 1
llc_set 2048
llc_way 16
llc_rq_size 32
llc_wq_size 32
llc_pq_size 32
llc_mshr_size 64
llc_hit_latency 10
llc_fill_latency 10
llc_max_tag_check 1
llc_max_fill 1
dram_channels 1
dram_ranks 1
dram_bankgroups 8
dram_banks 4
dram_rows 16384
dram_columns 1024
dram_channel_width 8
dram_rq_size 64
dram_wq_size 64
dram_size 4294967296
core_0_itlb_prefetcher no
core_0_dtlb_prefetcher no
core_0_stlb_prefetcher no
core_0_l1i_prefetcher next_line
core_0_l1d_prefetcher berti
core_0_l2c_prefetcher pythia
llc_prefetcher no
llc_replacement drrip

Core_0_instructions 50000002
Core_0_cycles 19467174
Core_0_IPC 2.56843
Core_0_branch_prediction_accuracy 81.2317
Core_0_branch_MPKI 4.68482
Core_0_average_ROB_occupancy_at_mispredict 253.683

Core_0_ITLB_total_access 241944
Core_0_ITLB_total_hit 241944
Core_0_ITLB_total_miss 0
Core_0_ITLB_total_MPKI 0
Core_0_ITLB_total_miss_rate 0
Core_0_ITLB_demand_access 241944
Core_0_ITLB_demand_hit 241944
Core_0_ITLB_demand_miss 0
Core_0_ITLB_demand_MPKI 0
Core_0_ITLB_demand_miss_rate 0
Core_0_ITLB_load_access 241944
Core_0_ITLB_load_hit 241944
Core_0_ITLB_load_miss 0
Core_0_ITLB_load_MPKI 0
Core_0_ITLB_load_miss_rate 0
Core_0_ITLB_rfo_access 0
Core_0_ITLB_rfo_hit 0
Core_0_ITLB_rfo_miss 0
Core_0_ITLB_rfo_MPKI 0
Core_0_ITLB_rfo_miss_rate 0
Core_0_ITLB_prefetch_access 0
Core_0_ITLB_prefetch_hit 0
Core_0_ITLB_prefetch_miss 0
Core_0_ITLB_prefetch_MPKI 0
Core_0_ITLB_prefetch_miss_rate 0
Core_0_ITLB_writeback_access 0
Core_0_ITLB_writeback_hit 0
Core_0_ITLB_writeback_miss 0
Core_0_ITLB_writeback_MPKI 0
Core_0_ITLB_writeback_miss_rate 0
Core_0_ITLB_prefetch_requested 0
Core_0_ITLB_prefetch_issued 0
Core_0_ITLB_prefetch_useful 0
Core_0_ITLB_prefetch_useless 0
Core_0_ITLB_prefetch_late 0
Core_0_ITLB_prefetch_accuracy 0
Core_0_ITLB_prefetch_coverage 0

Core_0_DTLB_total_access 14744045
Core_0_DTLB_total_hit 14652762
Core_0_DTLB_total_miss 91283
Core_0_DTLB_total_MPKI 1.82566
Core_0_DTLB_total_miss_rate 0.00619118
Core_0_DTLB_demand_access 14744045
Core_0_DTLB_demand_hit 14652762
Core_0_DTLB_demand_miss 91283
Core_0_DTLB_demand_MPKI 1.82566
Core_0_DTLB_demand_miss_rate 0.00619118
Core_0_DTLB_load_access 14744045
Core_0_DTLB_load_hit 14652762
Core_0_DTLB_load_miss 91283
Core_0_DTLB_load_MPKI 1.82566
Core_0_DTLB_load_miss_rate 0.00619118
Core_0_DTLB_rfo_access 0
Core_0_DTLB_rfo_hit 0
Core_0_DTLB_rfo_miss 0
Core_0_DTLB_rfo_MPKI 0
Core_0_DTLB_rfo_miss_rate 0
Core_0_DTLB_prefetch_access 0
Core_0_DTLB_prefetch_hit 0
Core_0_DTLB_prefetch_miss 0
Core_0_DTLB_prefetch_MPKI 0
Core_0_DTLB_prefetch_miss_rate 0
Core_0_DTLB_writeback_access 0
Core_0_DTLB_writeback_hit 0
Core_0_DTLB_writeback_miss 0
Core_0_DTLB_writeback_MPKI 0
Core_0_DTLB_writeback_miss_rate 0
Core_0_DTLB_prefetch_requested 0
Core_0_DTLB_prefetch_issued 0
Core_0_DTLB_prefetch_useful 0
Core_0_DTLB_prefetch_useless 0
Core_0_DTLB_prefetch_late 0
Core_0_DTLB_prefetch_accuracy 0
Core_0_DTLB_prefetch_coverage 0

Core_0_STLB_total_access 70614
Core_0_STLB_total_hit 55769
Core_0_STLB_total_miss 14845
Core_0_STLB_total_MPKI 0.2969
Core_0_STLB_total_miss_rate 0.210227
Core_0_STLB_demand_access 70614
Core_0_STLB_demand_hit 55769
Core_0_STLB_demand_miss 14845
Core_0_STLB_demand_MPKI 0.2969
Core_0_STLB_demand_miss_rate 0.210227
Core_0_STLB_load_access 70614
Core_0_STLB_load_hit 55769
Core_0_STLB_load_miss 14845
Core_0_STLB_load_MPKI 0.2969
Core_0_STLB_load_miss_rate 0.210227
Core_0_STLB_rfo_access 0
Core_0_STLB_rfo_hit 0
Core_0_STLB_rfo_miss 0
Core_0_STLB_rfo_MPKI 0
Core_0_STLB_rfo_miss_rate 0
Core_0_STLB_prefetch_access 0
Core_0_STLB_prefetch_hit 0
Core_0_STLB_prefetch_miss 0
Core_0_STLB_prefetch_MPKI 0
Core_0_STLB_prefetch_miss_rate 0
Core_0_STLB_writeback_access 0
Core_0_STLB_writeback_hit 0
Core_0_STLB_writeback_miss 0
Core_0_STLB_writeback_MPKI 0
Core_0_STLB_writeback_miss_rate 0
Core_0_STLB_prefetch_requested 0
Core_0_STLB_prefetch_issued 0
Core_0_STLB_prefetch_useful 0
Core_0_STLB_prefetch_useless 0
Core_0_STLB_prefetch_late 0
Core_0_STLB_prefetch_accuracy 0
Core_0_STLB_prefetch_coverage 0

Core_0_L1I_total_access 282878
Core_0_L1I_total_hit 282878
Core_0_L1I_total_miss 0
Core_0_L1I_total_MPKI 0
Core_0_L1I_total_miss_rate 0
Core_0_L1I_demand_access 282878
Core_0_L1I_demand_hit 282878
Core_0_L1I_demand_miss 0
Core_0_L1I_demand_MPKI 0
Core_0_L1I_demand_miss_rate 0
Core_0_L1I_load_access 282878
Core_0_L1I_load_hit 282878
Core_0_L1I_load_miss 0
Core_0_L1I_load_MPKI 0
Core_0_L1I_load_miss_rate 0
Core_0_L1I_rfo_access 0
Core_0_L1I_rfo_hit 0
Core_0_L1I_rfo_miss 0
Core_0_L1I_rfo_MPKI 0
Core_0_L1I_rfo_miss_rate 0
Core_0_L1I_prefetch_access 0
Core_0_L1I_prefetch_hit 0
Core_0_L1I_prefetch_miss 0
Core_0_L1I_prefetch_MPKI 0
Core_0_L1I_prefetch_miss_rate 0
Core_0_L1I_writeback_access 0
Core_0_L1I_writeback_hit 0
Core_0_L1I_writeback_miss 0
Core_0_L1I_writeback_MPKI 0
Core_0_L1I_writeback_miss_rate 0
Core_0_L1I_prefetch_requested 0
Core_0_L1I_prefetch_issued 0
Core_0_L1I_prefetch_useful 0
Core_0_L1I_prefetch_useless 0
Core_0_L1I_prefetch_late 0
Core_0_L1I_prefetch_accuracy 0
Core_0_L1I_prefetch_coverage 0

Core_0_L1D_total_access 15497017
Core_0_L1D_total_hit 14344650
Core_0_L1D_total_miss 1152367
Core_0_L1D_total_MPKI 23.0473
Core_0_L1D_total_miss_rate 0.0743606
Core_0_L1D_demand_access 11970390
Core_0_L1D_demand_hit 11616560
Core_0_L1D_demand_miss 353830
Core_0_L1D_demand_MPKI 7.0766
Core_0_L1D_demand_miss_rate 0.0295588
Core_0_L1D_load_access 11970390
Core_0_L1D_load_hit 11616560
Core_0_L1D_load_miss 353830
Core_0_L1D_load_MPKI 7.0766
Core_0_L1D_load_miss_rate 0.0295588
Core_0_L1D_rfo_access 0
Core_0_L1D_rfo_hit 0
Core_0_L1D_rfo_miss 0
Core_0_L1D_rfo_MPKI 0
Core_0_L1D_rfo_miss_rate 0
Core_0_L1D_prefetch_access 709924
Core_0_L1D_prefetch_hit 61459
Core_0_L1D_prefetch_miss 648465
Core_0_L1D_prefetch_MPKI 12.9693
Core_0_L1D_prefetch_miss_rate 0.913429
Core_0_L1D_writeback_access 2816703
Core_0_L1D_writeback_hit 2666631
Core_0_L1D_writeback_miss 150072
Core_0_L1D_writeback_MPKI 3.00144
Core_0_L1D_writeback_miss_rate 0.0532793
Core_0_L1D_prefetch_requested 972896
Core_0_L1D_prefetch_issued 709916
Core_0_L1D_prefetch_useful 639878
Core_0_L1D_prefetch_useless 301
Core_0_L1D_prefetch_late 10421
Core_0_L1D_prefetch_accuracy 0.901343
Core_0_L1D_prefetch_coverage 0.64393

Core_0_L2C_total_access 4131712
Core_0_L2C_total_hit 2424316
Core_0_L2C_total_miss 1707396
Core_0_L2C_total_MPKI 34.1479
Core_0_L2C_total_miss_rate 0.413242
Core_0_L2C_demand_access 359718
Core_0_L2C_demand_hit 292144
Core_0_L2C_demand_miss 67574
Core_0_L2C_demand_MPKI 1.35148
Core_0_L2C_demand_miss_rate 0.187853
Core_0_L2C_load_access 335356
Core_0_L2C_load_hit 292144
Core_0_L2C_load_miss 43212
Core_0_L2C_load_MPKI 0.86424
Core_0_L2C_load_miss_rate 0.128854
Core_0_L2C_rfo_access 24362
Core_0_L2C_rfo_hit 0
Core_0_L2C_rfo_miss 24362
Core_0_L2C_rfo_MPKI 0.48724
Core_0_L2C_rfo_miss_rate 1
Core_0_L2C_prefetch_access 3747264
Core_0_L2C_prefetch_hit 2107442
Core_0_L2C_prefetch_miss 1639822
Core_0_L2C_prefetch_MPKI 32.7964
Core_0_L2C_prefetch_miss_rate 0.437605
Core_0_L2C_writeback_access 24730
Core_0_L2C_writeback_hit 24730
Core_0_L2C_writeback_miss 0
Core_0_L2C_writeback_MPKI 0
Core_0_L2C_writeback_miss_rate 0
Core_0_L2C_prefetch_requested 5040366
Core_0_L2C_prefetch_issued 3107063
Core_0_L2C_prefetch_useful 785637
Core_0_L2C_prefetch_useless 79638
Core_0_L2C_prefetch_late 15395
Core_0_L2C_prefetch_accuracy 0.252855
Core_0_L2C_prefetch_coverage 0.9208

Core_0_LLC_total_access 974782
Core_0_LLC_total_hit 5742
Core_0_LLC_total_miss 969040
Core_0_LLC_total_MPKI 19.3808
Core_0_LLC_total_miss_rate 0.994109
Core_0_LLC_demand_access 52179
Core_0_LLC_demand_hit 37
Core_0_LLC_demand_miss 52142
Core_0_LLC_demand_MPKI 1.04284
Core_0_LLC_demand_miss_rate 0.999291
Core_0_LLC_load_access 27817
Core_0_LLC_load_hit 37
Core_0_LLC_load_miss 27780
Core_0_LLC_load_MPKI 0.5556
Core_0_LLC_load_miss_rate 0.99867
Core_0_LLC_rfo_access 24362
Core_0_LLC_rfo_hit 0
Core_0_LLC_rfo_miss 24362
Core_0_LLC_rfo_MPKI 0.48724
Core_0_LLC_rfo_miss_rate 1
Core_0_LLC_prefetch_access 898193
Core_0_LLC_prefetch_hit 1835
Core_0_LLC_prefetch_miss 896358
Core_0_LLC_prefetch_MPKI 17.9272
Core_0_LLC_prefetch_miss_rate 0.997957
Core_0_LLC_writeback_access 24410
Core_0_LLC_writeback_hit 3870
Core_0_LLC_writeback_miss 20540
Core_0_LLC_writeback_MPKI 0.4108
Core_0_LLC_writeback_miss_rate 0.841458
Core_0_LLC_prefetch_requested 0
Core_0_LLC_prefetch_issued 0
Core_0_LLC_prefetch_useful 0
Core_0_LLC_prefetch_useless 0
Core_0_LLC_prefetch_late 0
Core_0_LLC_prefetch_accuracy 0
Core_0_LLC_prefetch_coverage 0

[DRAM Statistics]
Channel_0_RQ_row_buffer_hit 102
Channel_0_RQ_row_buffer_miss 950292
Channel_0_WQ_row_buffer_hit 2864
Channel_0_WQ_row_buffer_miss 11574
Channel_0_WQ_full 0
Channel_0_dbus_congested 2030623
DRAM_total_RQ_row_buffer_hit 102
DRAM_total_RQ_row_buffer_miss 950292
DRAM_total_WQ_row_buffer_hit 2864
DRAM_total_WQ_row_buffer_miss 11574
DRAM_total_WQ_full 0
DRAM_total_dbus_congested 2030623
DRAM_avg_congested_cycle 3.39286

======STLB miss causes ========
Core_0_STLB_miss_cause_breakdown
Core_0_STLB_cause_Demand_Data_miss 13814
Core_0_STLB_cause_Demand_Data_miss_rate 0.195627
Core_0_STLB_cause_Demand_Instruction_miss 0
Core_0_STLB_cause_Demand_Instruction_miss_rate 0
Core_0_STLB_cause_L1D_Prefetch_miss 1031
Core_0_STLB_cause_L1D_Prefetch_miss_rate 0.0146005
Core_0_STLB_cause_L1I_Prefetch_miss 0
Core_0_STLB_cause_L1I_Prefetch_miss_rate 0
Core_0_STLB_cause_Other_miss 0
Core_0_STLB_cause_Other_miss_rate 0
Core_0_STLB_Demand_miss 13814
Core_0_STLB_Demand_miss_rate 0.195627
Core_0_STLB_L1D_Prefetch_miss 1031
Core_0_STLB_L1D_Prefetch_miss_rate 0.0146005
Core_0_STLB_Other_miss 0
Core_0_STLB_Other_miss_rate 0
