[VMEM] WARNING: physical memory size is smaller than virtual memory size.

*** ChampSim Multicore Out-of-Order Simulator ***
Warmup Instructions: 20000000
Simulation Instructions: 50000000
Number of CPUs: 1
Page size: 4096
Core 0: /data0/tzh/champsim_traces/SPEC17/603.bwaves_s-2609B.champsimtrace.xz
 L1D Berti prefetcher
Off-chip DRAM Size: 4 GiB Channels: 1 Width: 64-bit Data Rate: 3205 MT/s
Warmup halting CPU 0 at instruction 20000004 cycle 4243471 for remainder of phase
Warmup finished CPU 0 instructions: 20000004 cycles: 4243471 cumulative IPC: 4.713 (Simulation time: 00 hr 01 min 02 sec)
Warmup complete CPU 0 instructions: 20000004 cycles: 4243471 cumulative IPC: 4.713 (Simulation time: 00 hr 01 min 02 sec)
Simulation finished CPU 0 instructions: 50000003 cycles: 19438596 cumulative IPC: 2.572 (Simulation time: 00 hr 04 min 45 sec)
Simulation complete CPU 0 instructions: 50000003 cycles: 19438596 cumulative IPC: 2.572 (Simulation time: 00 hr 04 min 45 sec)

ChampSim completed all CPUs

=== Simulation ===
CPU 0 runs /data0/tzh/champsim_traces/SPEC17/603.bwaves_s-2609B.champsimtrace.xz

Region of Interest Statistics

CPU 0 cumulative IPC: 2.572 instructions: 50000003 cycles: 19438596
CPU 0 Branch Prediction Accuracy: 81.23% MPKI: 4.685 Average ROB Occupancy at Mispredict: 253.9
Branch type MPKI
BRANCH_DIRECT_JUMP: 0
BRANCH_INDIRECT: 0
BRANCH_CONDITIONAL: 4.685
BRANCH_DIRECT_CALL: 0
BRANCH_INDIRECT_CALL: 0
BRANCH_RETURN: 0

cpu0->cpu0_STLB TOTAL        ACCESS:      30064 HIT:      15215 MISS:      14849 MSHR_MERGE:          0
cpu0->cpu0_STLB LOAD         ACCESS:      30064 HIT:      15215 MISS:      14849 MSHR_MERGE:          0
cpu0->cpu0_STLB RFO          ACCESS:          0 HIT:          0 MISS:          0 MSHR_MERGE:          0
cpu0->cpu0_STLB PREFETCH     ACCESS:          0 HIT:          0 MISS:          0 MSHR_MERGE:          0
cpu0->cpu0_STLB WRITE        ACCESS:          0 HIT:          0 MISS:          0 MSHR_MERGE:          0
cpu0->cpu0_STLB TRANSLATION  ACCESS:          0 HIT:          0 MISS:          0 MSHR_MERGE:          0
cpu0->cpu0_STLB PREFETCH REQUESTED:          0 ISSUED:          0 USEFUL:          0 USELESS:          0 LATE:          0
cpu0->cpu0_STLB AVERAGE MISS LATENCY: 238.2 cycles
cpu0->cpu0_L2C TOTAL        ACCESS:    4148113 HIT:    2434855 MISS:    1713258 MSHR_MERGE:     760812
cpu0->cpu0_L2C LOAD         ACCESS:     335351 HIT:     292686 MISS:      42665 MSHR_MERGE:      15211
cpu0->cpu0_L2C RFO          ACCESS:      24362 HIT:          0 MISS:      24362 MSHR_MERGE:          0
cpu0->cpu0_L2C PREFETCH     ACCESS:    3758950 HIT:    2114616 MISS:    1644334 MSHR_MERGE:     745601
cpu0->cpu0_L2C WRITE        ACCESS:      24722 HIT:      24722 MISS:          0 MSHR_MERGE:          0
cpu0->cpu0_L2C TRANSLATION  ACCESS:       4728 HIT:       2831 MISS:       1897 MSHR_MERGE:          0
cpu0->cpu0_L2C PREFETCH REQUESTED:    5039341 ISSUED:    3118714 USEFUL:     786659 USELESS:      79167 LATE:      15211
cpu0->cpu0_L2C AVERAGE MISS LATENCY: 248 cycles
cpu0->cpu0_L1I TOTAL        ACCESS:     282720 HIT:     282720 MISS:          0 MSHR_MERGE:          0
cpu0->cpu0_L1I LOAD         ACCESS:     282720 HIT:     282720 MISS:          0 MSHR_MERGE:          0
cpu0->cpu0_L1I RFO          ACCESS:          0 HIT:          0 MISS:          0 MSHR_MERGE:          0
cpu0->cpu0_L1I PREFETCH     ACCESS:          0 HIT:          0 MISS:          0 MSHR_MERGE:          0
cpu0->cpu0_L1I WRITE        ACCESS:          0 HIT:          0 MISS:          0 MSHR_MERGE:          0
cpu0->cpu0_L1I TRANSLATION  ACCESS:          0 HIT:          0 MISS:          0 MSHR_MERGE:          0
cpu0->cpu0_L1I PREFETCH REQUESTED:          0 ISSUED:          0 USEFUL:          0 USELESS:          0 LATE:          0
cpu0->cpu0_L1I AVERAGE MISS LATENCY: - cycles
cpu0->cpu0_L1D TOTAL        ACCESS:   15527374 HIT:   14369572 MISS:    1157802 MSHR_MERGE:     153142
cpu0->cpu0_L1D LOAD         ACCESS:   11968657 HIT:   11614800 MISS:     353857 MSHR_MERGE:      18507
cpu0->cpu0_L1D RFO          ACCESS:          0 HIT:          0 MISS:          0 MSHR_MERGE:          0
cpu0->cpu0_L1D PREFETCH     ACCESS:     712291 HIT:      63465 MISS:     648826 MSHR_MERGE:       8606
cpu0->cpu0_L1D WRITE        ACCESS:    2816699 HIT:    2666308 MISS:     150391 MSHR_MERGE:     126029
cpu0->cpu0_L1D TRANSLATION  ACCESS:      29727 HIT:      24999 MISS:       4728 MSHR_MERGE:          0
cpu0->cpu0_L1D PREFETCH REQUESTED:     977738 ISSUED:     712283 USEFUL:     639864 USELESS:        336 LATE:      10634
cpu0->cpu0_L1D AVERAGE MISS LATENCY: 56.23 cycles
cpu0->cpu0_ITLB TOTAL        ACCESS:     241820 HIT:     241820 MISS:          0 MSHR_MERGE:          0
cpu0->cpu0_ITLB LOAD         ACCESS:     241820 HIT:     241820 MISS:          0 MSHR_MERGE:          0
cpu0->cpu0_ITLB RFO          ACCESS:          0 HIT:          0 MISS:          0 MSHR_MERGE:          0
cpu0->cpu0_ITLB PREFETCH     ACCESS:          0 HIT:          0 MISS:          0 MSHR_MERGE:          0
cpu0->cpu0_ITLB WRITE        ACCESS:          0 HIT:          0 MISS:          0 MSHR_MERGE:          0
cpu0->cpu0_ITLB TRANSLATION  ACCESS:          0 HIT:          0 MISS:          0 MSHR_MERGE:          0
cpu0->cpu0_ITLB PREFETCH REQUESTED:          0 ISSUED:          0 USEFUL:          0 USELESS:          0 LATE:          0
cpu0->cpu0_ITLB AVERAGE MISS LATENCY: - cycles
cpu0->cpu0_DTLB TOTAL        ACCESS:   14738464 HIT:   14693930 MISS:      44534 MSHR_MERGE:      14470
cpu0->cpu0_DTLB LOAD         ACCESS:   14738464 HIT:   14693930 MISS:      44534 MSHR_MERGE:      14470
cpu0->cpu0_DTLB RFO          ACCESS:          0 HIT:          0 MISS:          0 MSHR_MERGE:          0
cpu0->cpu0_DTLB PREFETCH     ACCESS:          0 HIT:          0 MISS:          0 MSHR_MERGE:          0
cpu0->cpu0_DTLB WRITE        ACCESS:          0 HIT:          0 MISS:          0 MSHR_MERGE:          0
cpu0->cpu0_DTLB TRANSLATION  ACCESS:          0 HIT:          0 MISS:          0 MSHR_MERGE:          0
cpu0->cpu0_DTLB PREFETCH REQUESTED:          0 ISSUED:          0 USEFUL:          0 USELESS:          0 LATE:          0
cpu0->cpu0_DTLB AVERAGE MISS LATENCY: 123.2 cycles
cpu0->LLC TOTAL        ACCESS:     976798 HIT:       5837 MISS:     970961 MSHR_MERGE:          0
cpu0->LLC LOAD         ACCESS:      27454 HIT:         30 MISS:      27424 MSHR_MERGE:          0
cpu0->LLC RFO          ACCESS:      24362 HIT:          0 MISS:      24362 MSHR_MERGE:          0
cpu0->LLC PREFETCH     ACCESS:     898733 HIT:       1985 MISS:     896748 MSHR_MERGE:          0
cpu0->LLC WRITE        ACCESS:      24352 HIT:       3817 MISS:      20535 MSHR_MERGE:          0
cpu0->LLC TRANSLATION  ACCESS:       1897 HIT:          5 MISS:       1892 MSHR_MERGE:          0
cpu0->LLC PREFETCH REQUESTED:          0 ISSUED:          0 USEFUL:          0 USELESS:          0 LATE:          0
cpu0->LLC AVERAGE MISS LATENCY: 185 cycles

DRAM Statistics

Channel 0 RQ ROW_BUFFER_HIT:        164
  ROW_BUFFER_MISS:     950262
  AVG DBUS CONGESTED CYCLE: 3.38
Channel 0 WQ ROW_BUFFER_HIT:       2707
  ROW_BUFFER_MISS:      11889
  FULL:          0
Channel 0 REFRESHES ISSUED:       1620

[ROI Statistics]
[System Configuration]
num_cpus 1
cpu_freq 4000
fetch_width 6
decode_width 6
dispatch_width 6
execute_width 6
lq_width 2
sq_width 2
retire_width 6
scheduler_size 160
branch_mispredict_penalty 1
rob_size 352
lq_size 240
sq_size 112
ifetch_buffer_size 64
decode_buffer_size 32
dispatch_buffer_size 32
register_file_size 288
decode_latency 1
dispatch_latency 1
schedule_latency 0
execute_latency 0
page_size 4096
block_size 64
core_0_itlb_set 16
core_0_itlb_way 4
core_0_itlb_rq_size 16
core_0_itlb_wq_size 16
core_0_itlb_pq_size 0
core_0_itlb_mshr_size 8
core_0_itlb_hit_latency 1
core_0_itlb_fill_latency 1
core_0_itlb_max_tag_check 2
core_0_itlb_max_fill 2
core_0_dtlb_set 16
core_0_dtlb_way 4
core_0_dtlb_rq_size 16
core_0_dtlb_wq_size 16
core_0_dtlb_pq_size 0
core_0_dtlb_mshr_size 8
core_0_dtlb_hit_latency 1
core_0_dtlb_fill_latency 1
core_0_dtlb_max_tag_check 2
core_0_dtlb_max_fill 2
core_0_stlb_set 128
core_0_stlb_way 12
core_0_stlb_rq_size 32
core_0_stlb_wq_size 32
core_0_stlb_pq_size 0
core_0_stlb_mshr_size 16
core_0_stlb_hit_latency 4
core_0_stlb_fill_latency 4
core_0_stlb_max_tag_check 1
core_0_stlb_max_fill 1
core_0_l1i_set 64
core_0_l1i_way 8
core_0_l1i_rq_size 64
core_0_l1i_wq_size 64
core_0_l1i_pq_size 32
core_0_l1i_mshr_size 8
core_0_l1i_hit_latency 2
core_0_l1i_fill_latency 2
core_0_l1i_max_tag_check 2
core_0_l1i_max_fill 2
core_0_l1d_set 64
core_0_l1d_way 12
core_0_l1d_rq_size 64
core_0_l1d_wq_size 64
core_0_l1d_pq_size 8
core_0_l1d_mshr_size 16
core_0_l1d_hit_latency 2
core_0_l1d_fill_latency 3
core_0_l1d_max_tag_check 2
core_0_l1d_max_fill 2
core_0_l2c_set 1024
core_0_l2c_way 8
core_0_l2c_rq_size 32
core_0_l2c_wq_size 32
core_0_l2c_pq_size 16
core_0_l2c_mshr_size 32
core_0_l2c_hit_latency 5
core_0_l2c_fill_latency 5
core_0_l2c_max_tag_check 1
core_0_l2c_max_fill 1
llc_set 2048
llc_way 16
llc_rq_size 32
llc_wq_size 32
llc_pq_size 32
llc_mshr_size 64
llc_hit_latency 10
llc_fill_latency 10
llc_max_tag_check 1
llc_max_fill 1
dram_channels 1
dram_ranks 1
dram_bankgroups 8
dram_banks 4
dram_rows 16384
dram_columns 1024
dram_channel_width 8
dram_rq_size 64
dram_wq_size 64
dram_size 4294967296
core_0_itlb_prefetcher no
core_0_dtlb_prefetcher no
core_0_stlb_prefetcher no
core_0_l1i_prefetcher next_line
core_0_l1d_prefetcher berti
core_0_l2c_prefetcher pythia
llc_prefetcher no
llc_replacement drrip

Core_0_instructions 50000003
Core_0_cycles 19438596
Core_0_IPC 2.5722
Core_0_branch_prediction_accuracy 81.2318
Core_0_branch_MPKI 4.6848
Core_0_average_ROB_occupancy_at_mispredict 253.866

Core_0_ITLB_total_access 241820
Core_0_ITLB_total_hit 241820
Core_0_ITLB_total_miss 0
Core_0_ITLB_total_MPKI 0
Core_0_ITLB_total_miss_rate 0
Core_0_ITLB_demand_access 241820
Core_0_ITLB_demand_hit 241820
Core_0_ITLB_demand_miss 0
Core_0_ITLB_demand_MPKI 0
Core_0_ITLB_demand_miss_rate 0
Core_0_ITLB_load_access 241820
Core_0_ITLB_load_hit 241820
Core_0_ITLB_load_miss 0
Core_0_ITLB_load_MPKI 0
Core_0_ITLB_load_miss_rate 0
Core_0_ITLB_rfo_access 0
Core_0_ITLB_rfo_hit 0
Core_0_ITLB_rfo_miss 0
Core_0_ITLB_rfo_MPKI 0
Core_0_ITLB_rfo_miss_rate 0
Core_0_ITLB_prefetch_access 0
Core_0_ITLB_prefetch_hit 0
Core_0_ITLB_prefetch_miss 0
Core_0_ITLB_prefetch_MPKI 0
Core_0_ITLB_prefetch_miss_rate 0
Core_0_ITLB_writeback_access 0
Core_0_ITLB_writeback_hit 0
Core_0_ITLB_writeback_miss 0
Core_0_ITLB_writeback_MPKI 0
Core_0_ITLB_writeback_miss_rate 0
Core_0_ITLB_prefetch_requested 0
Core_0_ITLB_prefetch_issued 0
Core_0_ITLB_prefetch_useful 0
Core_0_ITLB_prefetch_useless 0
Core_0_ITLB_prefetch_late 0
Core_0_ITLB_prefetch_accuracy 0
Core_0_ITLB_prefetch_coverage 0

Core_0_DTLB_total_access 14738464
Core_0_DTLB_total_hit 14693930
Core_0_DTLB_total_miss 44534
Core_0_DTLB_total_MPKI 0.89068
Core_0_DTLB_total_miss_rate 0.00302162
Core_0_DTLB_demand_access 14738464
Core_0_DTLB_demand_hit 14693930
Core_0_DTLB_demand_miss 44534
Core_0_DTLB_demand_MPKI 0.89068
Core_0_DTLB_demand_miss_rate 0.00302162
Core_0_DTLB_load_access 14738464
Core_0_DTLB_load_hit 14693930
Core_0_DTLB_load_miss 44534
Core_0_DTLB_load_MPKI 0.89068
Core_0_DTLB_load_miss_rate 0.00302162
Core_0_DTLB_rfo_access 0
Core_0_DTLB_rfo_hit 0
Core_0_DTLB_rfo_miss 0
Core_0_DTLB_rfo_MPKI 0
Core_0_DTLB_rfo_miss_rate 0
Core_0_DTLB_prefetch_access 0
Core_0_DTLB_prefetch_hit 0
Core_0_DTLB_prefetch_miss 0
Core_0_DTLB_prefetch_MPKI 0
Core_0_DTLB_prefetch_miss_rate 0
Core_0_DTLB_writeback_access 0
Core_0_DTLB_writeback_hit 0
Core_0_DTLB_writeback_miss 0
Core_0_DTLB_writeback_MPKI 0
Core_0_DTLB_writeback_miss_rate 0
Core_0_DTLB_prefetch_requested 0
Core_0_DTLB_prefetch_issued 0
Core_0_DTLB_prefetch_useful 0
Core_0_DTLB_prefetch_useless 0
Core_0_DTLB_prefetch_late 0
Core_0_DTLB_prefetch_accuracy 0
Core_0_DTLB_prefetch_coverage 0

Core_0_STLB_total_access 30064
Core_0_STLB_total_hit 15215
Core_0_STLB_total_miss 14849
Core_0_STLB_total_MPKI 0.29698
Core_0_STLB_total_miss_rate 0.493913
Core_0_STLB_demand_access 30064
Core_0_STLB_demand_hit 15215
Core_0_STLB_demand_miss 14849
Core_0_STLB_demand_MPKI 0.29698
Core_0_STLB_demand_miss_rate 0.493913
Core_0_STLB_load_access 30064
Core_0_STLB_load_hit 15215
Core_0_STLB_load_miss 14849
Core_0_STLB_load_MPKI 0.29698
Core_0_STLB_load_miss_rate 0.493913
Core_0_STLB_rfo_access 0
Core_0_STLB_rfo_hit 0
Core_0_STLB_rfo_miss 0
Core_0_STLB_rfo_MPKI 0
Core_0_STLB_rfo_miss_rate 0
Core_0_STLB_prefetch_access 0
Core_0_STLB_prefetch_hit 0
Core_0_STLB_prefetch_miss 0
Core_0_STLB_prefetch_MPKI 0
Core_0_STLB_prefetch_miss_rate 0
Core_0_STLB_writeback_access 0
Core_0_STLB_writeback_hit 0
Core_0_STLB_writeback_miss 0
Core_0_STLB_writeback_MPKI 0
Core_0_STLB_writeback_miss_rate 0
Core_0_STLB_prefetch_requested 0
Core_0_STLB_prefetch_issued 0
Core_0_STLB_prefetch_useful 0
Core_0_STLB_prefetch_useless 0
Core_0_STLB_prefetch_late 0
Core_0_STLB_prefetch_accuracy 0
Core_0_STLB_prefetch_coverage 0

Core_0_L1I_total_access 282720
Core_0_L1I_total_hit 282720
Core_0_L1I_total_miss 0
Core_0_L1I_total_MPKI 0
Core_0_L1I_total_miss_rate 0
Core_0_L1I_demand_access 282720
Core_0_L1I_demand_hit 282720
Core_0_L1I_demand_miss 0
Core_0_L1I_demand_MPKI 0
Core_0_L1I_demand_miss_rate 0
Core_0_L1I_load_access 282720
Core_0_L1I_load_hit 282720
Core_0_L1I_load_miss 0
Core_0_L1I_load_MPKI 0
Core_0_L1I_load_miss_rate 0
Core_0_L1I_rfo_access 0
Core_0_L1I_rfo_hit 0
Core_0_L1I_rfo_miss 0
Core_0_L1I_rfo_MPKI 0
Core_0_L1I_rfo_miss_rate 0
Core_0_L1I_prefetch_access 0
Core_0_L1I_prefetch_hit 0
Core_0_L1I_prefetch_miss 0
Core_0_L1I_prefetch_MPKI 0
Core_0_L1I_prefetch_miss_rate 0
Core_0_L1I_writeback_access 0
Core_0_L1I_writeback_hit 0
Core_0_L1I_writeback_miss 0
Core_0_L1I_writeback_MPKI 0
Core_0_L1I_writeback_miss_rate 0
Core_0_L1I_prefetch_requested 0
Core_0_L1I_prefetch_issued 0
Core_0_L1I_prefetch_useful 0
Core_0_L1I_prefetch_useless 0
Core_0_L1I_prefetch_late 0
Core_0_L1I_prefetch_accuracy 0
Core_0_L1I_prefetch_coverage 0

Core_0_L1D_total_access 15497647
Core_0_L1D_total_hit 14344573
Core_0_L1D_total_miss 1153074
Core_0_L1D_total_MPKI 23.0615
Core_0_L1D_total_miss_rate 0.0744032
Core_0_L1D_demand_access 11968657
Core_0_L1D_demand_hit 11614800
Core_0_L1D_demand_miss 353857
Core_0_L1D_demand_MPKI 7.07714
Core_0_L1D_demand_miss_rate 0.0295653
Core_0_L1D_load_access 11968657
Core_0_L1D_load_hit 11614800
Core_0_L1D_load_miss 353857
Core_0_L1D_load_MPKI 7.07714
Core_0_L1D_load_miss_rate 0.0295653
Core_0_L1D_rfo_access 0
Core_0_L1D_rfo_hit 0
Core_0_L1D_rfo_miss 0
Core_0_L1D_rfo_MPKI 0
Core_0_L1D_rfo_miss_rate 0
Core_0_L1D_prefetch_access 712291
Core_0_L1D_prefetch_hit 63465
Core_0_L1D_prefetch_miss 648826
Core_0_L1D_prefetch_MPKI 12.9765
Core_0_L1D_prefetch_miss_rate 0.9109
Core_0_L1D_writeback_access 2816699
Core_0_L1D_writeback_hit 2666308
Core_0_L1D_writeback_miss 150391
Core_0_L1D_writeback_MPKI 3.00782
Core_0_L1D_writeback_miss_rate 0.0533926
Core_0_L1D_prefetch_requested 977738
Core_0_L1D_prefetch_issued 712283
Core_0_L1D_prefetch_useful 639864
Core_0_L1D_prefetch_useless 336
Core_0_L1D_prefetch_late 10634
Core_0_L1D_prefetch_accuracy 0.898328
Core_0_L1D_prefetch_coverage 0.643907

Core_0_L2C_total_access 4143385
Core_0_L2C_total_hit 2432024
Core_0_L2C_total_miss 1711361
Core_0_L2C_total_MPKI 34.2272
Core_0_L2C_total_miss_rate 0.413035
Core_0_L2C_demand_access 359713
Core_0_L2C_demand_hit 292686
Core_0_L2C_demand_miss 67027
Core_0_L2C_demand_MPKI 1.34054
Core_0_L2C_demand_miss_rate 0.186335
Core_0_L2C_load_access 335351
Core_0_L2C_load_hit 292686
Core_0_L2C_load_miss 42665
Core_0_L2C_load_MPKI 0.8533
Core_0_L2C_load_miss_rate 0.127225
Core_0_L2C_rfo_access 24362
Core_0_L2C_rfo_hit 0
Core_0_L2C_rfo_miss 24362
Core_0_L2C_rfo_MPKI 0.48724
Core_0_L2C_rfo_miss_rate 1
Core_0_L2C_prefetch_access 3758950
Core_0_L2C_prefetch_hit 2114616
Core_0_L2C_prefetch_miss 1644334
Core_0_L2C_prefetch_MPKI 32.8867
Core_0_L2C_prefetch_miss_rate 0.437445
Core_0_L2C_writeback_access 24722
Core_0_L2C_writeback_hit 24722
Core_0_L2C_writeback_miss 0
Core_0_L2C_writeback_MPKI 0
Core_0_L2C_writeback_miss_rate 0
Core_0_L2C_prefetch_requested 5039341
Core_0_L2C_prefetch_issued 3118714
Core_0_L2C_prefetch_useful 786659
Core_0_L2C_prefetch_useless 79167
Core_0_L2C_prefetch_late 15211
Core_0_L2C_prefetch_accuracy 0.252238
Core_0_L2C_prefetch_coverage 0.921485

Core_0_LLC_total_access 974901
Core_0_LLC_total_hit 5832
Core_0_LLC_total_miss 969069
Core_0_LLC_total_MPKI 19.3814
Core_0_LLC_total_miss_rate 0.994018
Core_0_LLC_demand_access 51816
Core_0_LLC_demand_hit 30
Core_0_LLC_demand_miss 51786
Core_0_LLC_demand_MPKI 1.03572
Core_0_LLC_demand_miss_rate 0.999421
Core_0_LLC_load_access 27454
Core_0_LLC_load_hit 30
Core_0_LLC_load_miss 27424
Core_0_LLC_load_MPKI 0.54848
Core_0_LLC_load_miss_rate 0.998907
Core_0_LLC_rfo_access 24362
Core_0_LLC_rfo_hit 0
Core_0_LLC_rfo_miss 24362
Core_0_LLC_rfo_MPKI 0.48724
Core_0_LLC_rfo_miss_rate 1
Core_0_LLC_prefetch_access 898733
Core_0_LLC_prefetch_hit 1985
Core_0_LLC_prefetch_miss 896748
Core_0_LLC_prefetch_MPKI 17.935
Core_0_LLC_prefetch_miss_rate 0.997791
Core_0_LLC_writeback_access 24352
Core_0_LLC_writeback_hit 3817
Core_0_LLC_writeback_miss 20535
Core_0_LLC_writeback_MPKI 0.4107
Core_0_LLC_writeback_miss_rate 0.843257
Core_0_LLC_prefetch_requested 0
Core_0_LLC_prefetch_issued 0
Core_0_LLC_prefetch_useful 0
Core_0_LLC_prefetch_useless 0
Core_0_LLC_prefetch_late 0
Core_0_LLC_prefetch_accuracy 0
Core_0_LLC_prefetch_coverage 0

[DRAM Statistics]
Channel_0_RQ_row_buffer_hit 164
Channel_0_RQ_row_buffer_miss 950262
Channel_0_WQ_row_buffer_hit 2707
Channel_0_WQ_row_buffer_miss 11889
Channel_0_WQ_full 0
Channel_0_dbus_congested 2026590
DRAM_total_RQ_row_buffer_hit 164
DRAM_total_RQ_row_buffer_miss 950262
DRAM_total_WQ_row_buffer_hit 2707
DRAM_total_WQ_row_buffer_miss 11889
DRAM_total_WQ_full 0
DRAM_total_dbus_congested 2026590
DRAM_avg_congested_cycle 3.38

======STLB miss causes ========
Core_0_STLB_miss_cause_breakdown
Core_0_STLB_cause_Demand_Data_miss 13720
Core_0_STLB_cause_Demand_Data_miss_rate 0.45636
Core_0_STLB_cause_Demand_Instruction_miss 0
Core_0_STLB_cause_Demand_Instruction_miss_rate 0
Core_0_STLB_cause_L1D_Prefetch_miss 1129
Core_0_STLB_cause_L1D_Prefetch_miss_rate 0.0375532
Core_0_STLB_cause_L1I_Prefetch_miss 0
Core_0_STLB_cause_L1I_Prefetch_miss_rate 0
Core_0_STLB_cause_Other_miss 0
Core_0_STLB_cause_Other_miss_rate 0
Core_0_STLB_Demand_miss 13720
Core_0_STLB_Demand_miss_rate 0.45636
Core_0_STLB_L1D_Prefetch_miss 1129
Core_0_STLB_L1D_Prefetch_miss_rate 0.0375532
Core_0_STLB_Other_miss 0
Core_0_STLB_Other_miss_rate 0
