[VMEM] WARNING: physical memory size is smaller than virtual memory size.

*** ChampSim Multicore Out-of-Order Simulator ***
Warmup Instructions: 20000000
Simulation Instructions: 50000000
Number of CPUs: 1
Page size: 4096
Core 0: /data0/tzh/champsim_traces/SPEC17/607.cactuBSSN_s-3477B.champsimtrace.xz
 L1D Berti prefetcher
Off-chip DRAM Size: 4 GiB Channels: 1 Width: 64-bit Data Rate: 3205 MT/s
Warmup halting CPU 0 at instruction 20000000 cycle 5435194 for remainder of phase
Warmup finished CPU 0 instructions: 20000000 cycles: 5435194 cumulative IPC: 3.68 (Simulation time: 00 hr 01 min 33 sec)
Warmup complete CPU 0 instructions: 20000000 cycles: 5435194 cumulative IPC: 3.68 (Simulation time: 00 hr 01 min 33 sec)
Simulation finished CPU 0 instructions: 50000004 cycles: 20436510 cumulative IPC: 2.447 (Simulation time: 00 hr 06 min 49 sec)
Simulation complete CPU 0 instructions: 50000004 cycles: 20436510 cumulative IPC: 2.447 (Simulation time: 00 hr 06 min 49 sec)

ChampSim completed all CPUs

=== Simulation ===
CPU 0 runs /data0/tzh/champsim_traces/SPEC17/607.cactuBSSN_s-3477B.champsimtrace.xz

Region of Interest Statistics

CPU 0 cumulative IPC: 2.447 instructions: 50000004 cycles: 20436510
CPU 0 Branch Prediction Accuracy: 91.83% MPKI: 0.7242 Average ROB Occupancy at Mispredict: 157.1
Branch type MPKI
BRANCH_DIRECT_JUMP: 0
BRANCH_INDIRECT: 2e-05
BRANCH_CONDITIONAL: 0.3627
BRANCH_DIRECT_CALL: 0
BRANCH_INDIRECT_CALL: 0
BRANCH_RETURN: 0.3615

cpu0->cpu0_STLB TOTAL        ACCESS:    1986220 HIT:    1984031 MISS:       2189 MSHR_MERGE:          0
cpu0->cpu0_STLB LOAD         ACCESS:    1986220 HIT:    1984031 MISS:       2189 MSHR_MERGE:          0
cpu0->cpu0_STLB RFO          ACCESS:          0 HIT:          0 MISS:          0 MSHR_MERGE:          0
cpu0->cpu0_STLB PREFETCH     ACCESS:          0 HIT:          0 MISS:          0 MSHR_MERGE:          0
cpu0->cpu0_STLB WRITE        ACCESS:          0 HIT:          0 MISS:          0 MSHR_MERGE:          0
cpu0->cpu0_STLB TRANSLATION  ACCESS:          0 HIT:          0 MISS:          0 MSHR_MERGE:          0
cpu0->cpu0_STLB PREFETCH REQUESTED:          0 ISSUED:          0 USEFUL:          0 USELESS:          0 LATE:          0
cpu0->cpu0_STLB AVERAGE MISS LATENCY: 308.1 cycles
cpu0->cpu0_L2C TOTAL        ACCESS:    9370202 HIT:    8968071 MISS:     402131 MSHR_MERGE:       4632
cpu0->cpu0_L2C LOAD         ACCESS:    3980542 HIT:    3959589 MISS:      20953 MSHR_MERGE:         98
cpu0->cpu0_L2C RFO          ACCESS:     317776 HIT:     285093 MISS:      32683 MSHR_MERGE:          1
cpu0->cpu0_L2C PREFETCH     ACCESS:    4707114 HIT:    4361660 MISS:     345454 MSHR_MERGE:       4533
cpu0->cpu0_L2C WRITE        ACCESS:     361565 HIT:     361511 MISS:         54 MSHR_MERGE:          0
cpu0->cpu0_L2C TRANSLATION  ACCESS:       3205 HIT:        218 MISS:       2987 MSHR_MERGE:          0
cpu0->cpu0_L2C PREFETCH REQUESTED:    4646940 ISSUED:    3935394 USEFUL:     278454 USELESS:      27893 LATE:         99
cpu0->cpu0_L2C AVERAGE MISS LATENCY: 170.2 cycles
cpu0->cpu0_L1I TOTAL        ACCESS:    8354063 HIT:    7212922 MISS:    1141141 MSHR_MERGE:     445636
cpu0->cpu0_L1I LOAD         ACCESS:    8354063 HIT:    7212922 MISS:    1141141 MSHR_MERGE:     445636
cpu0->cpu0_L1I RFO          ACCESS:          0 HIT:          0 MISS:          0 MSHR_MERGE:          0
cpu0->cpu0_L1I PREFETCH     ACCESS:          0 HIT:          0 MISS:          0 MSHR_MERGE:          0
cpu0->cpu0_L1I WRITE        ACCESS:          0 HIT:          0 MISS:          0 MSHR_MERGE:          0
cpu0->cpu0_L1I TRANSLATION  ACCESS:          0 HIT:          0 MISS:          0 MSHR_MERGE:          0
cpu0->cpu0_L1I PREFETCH REQUESTED:          0 ISSUED:          0 USEFUL:          0 USELESS:          0 LATE:          0
cpu0->cpu0_L1I AVERAGE MISS LATENCY: 7.248 cycles
cpu0->cpu0_L1D TOTAL        ACCESS:   17694020 HIT:   13118499 MISS:    4575521 MSHR_MERGE:     197573
cpu0->cpu0_L1D LOAD         ACCESS:   12167571 HIT:    8807711 MISS:    3359860 MSHR_MERGE:      74759
cpu0->cpu0_L1D RFO          ACCESS:          0 HIT:          0 MISS:          0 MSHR_MERGE:          0
cpu0->cpu0_L1D PREFETCH     ACCESS:    1707711 HIT:     853280 MISS:     854431 MSHR_MERGE:      82718
cpu0->cpu0_L1D WRITE        ACCESS:    3813296 HIT:    3455273 MISS:     358023 MSHR_MERGE:      40094
cpu0->cpu0_L1D TRANSLATION  ACCESS:       5442 HIT:       2235 MISS:       3207 MSHR_MERGE:          2
cpu0->cpu0_L1D PREFETCH REQUESTED:    2379356 ISSUED:    1707703 USEFUL:     257049 USELESS:     514541 LATE:      51859
cpu0->cpu0_L1D AVERAGE MISS LATENCY: 11.51 cycles
cpu0->cpu0_ITLB TOTAL        ACCESS:    5742288 HIT:    5742288 MISS:          0 MSHR_MERGE:          0
cpu0->cpu0_ITLB LOAD         ACCESS:    5742288 HIT:    5742288 MISS:          0 MSHR_MERGE:          0
cpu0->cpu0_ITLB RFO          ACCESS:          0 HIT:          0 MISS:          0 MSHR_MERGE:          0
cpu0->cpu0_ITLB PREFETCH     ACCESS:          0 HIT:          0 MISS:          0 MSHR_MERGE:          0
cpu0->cpu0_ITLB WRITE        ACCESS:          0 HIT:          0 MISS:          0 MSHR_MERGE:          0
cpu0->cpu0_ITLB TRANSLATION  ACCESS:          0 HIT:          0 MISS:          0 MSHR_MERGE:          0
cpu0->cpu0_ITLB PREFETCH REQUESTED:          0 ISSUED:          0 USEFUL:          0 USELESS:          0 LATE:          0
cpu0->cpu0_ITLB AVERAGE MISS LATENCY: - cycles
cpu0->cpu0_DTLB TOTAL        ACCESS:   16525738 HIT:   14298163 MISS:    2227575 MSHR_MERGE:     241355
cpu0->cpu0_DTLB LOAD         ACCESS:   16525738 HIT:   14298163 MISS:    2227575 MSHR_MERGE:     241355
cpu0->cpu0_DTLB RFO          ACCESS:          0 HIT:          0 MISS:          0 MSHR_MERGE:          0
cpu0->cpu0_DTLB PREFETCH     ACCESS:          0 HIT:          0 MISS:          0 MSHR_MERGE:          0
cpu0->cpu0_DTLB WRITE        ACCESS:          0 HIT:          0 MISS:          0 MSHR_MERGE:          0
cpu0->cpu0_DTLB TRANSLATION  ACCESS:          0 HIT:          0 MISS:          0 MSHR_MERGE:          0
cpu0->cpu0_DTLB PREFETCH REQUESTED:          0 ISSUED:          0 USEFUL:          0 USELESS:          0 LATE:          0
cpu0->cpu0_DTLB AVERAGE MISS LATENCY: 5.412 cycles
cpu0->LLC TOTAL        ACCESS:     430363 HIT:     259342 MISS:     171021 MSHR_MERGE:          0
cpu0->LLC LOAD         ACCESS:      20855 HIT:      16794 MISS:       4061 MSHR_MERGE:          0
cpu0->LLC RFO          ACCESS:      32607 HIT:       3303 MISS:      29304 MSHR_MERGE:          0
cpu0->LLC PREFETCH     ACCESS:     340921 HIT:     207567 MISS:     133354 MSHR_MERGE:          0
cpu0->LLC WRITE        ACCESS:      32993 HIT:      29237 MISS:       3756 MSHR_MERGE:          0
cpu0->LLC TRANSLATION  ACCESS:       2987 HIT:       2441 MISS:        546 MSHR_MERGE:          0
cpu0->LLC PREFETCH REQUESTED:          0 ISSUED:          0 USEFUL:          0 USELESS:          0 LATE:          0
cpu0->LLC AVERAGE MISS LATENCY: 233.5 cycles

DRAM Statistics

Channel 0 RQ ROW_BUFFER_HIT:        224
  ROW_BUFFER_MISS:     167041
  AVG DBUS CONGESTED CYCLE: 8.332
Channel 0 WQ ROW_BUFFER_HIT:       3730
  ROW_BUFFER_MISS:      25266
  FULL:          0
Channel 0 REFRESHES ISSUED:       1703

[ROI Statistics]
[System Configuration]
num_cpus 1
cpu_freq 4000
fetch_width 6
decode_width 6
dispatch_width 6
execute_width 6
lq_width 2
sq_width 2
retire_width 6
scheduler_size 160
branch_mispredict_penalty 1
rob_size 352
lq_size 240
sq_size 112
ifetch_buffer_size 64
decode_buffer_size 32
dispatch_buffer_size 32
register_file_size 288
decode_latency 1
dispatch_latency 1
schedule_latency 0
execute_latency 0
page_size 4096
block_size 64
core_0_itlb_set 16
core_0_itlb_way 4
core_0_itlb_rq_size 16
core_0_itlb_wq_size 16
core_0_itlb_pq_size 0
core_0_itlb_mshr_size 8
core_0_itlb_hit_latency 1
core_0_itlb_fill_latency 1
core_0_itlb_max_tag_check 2
core_0_itlb_max_fill 2
core_0_dtlb_set 16
core_0_dtlb_way 4
core_0_dtlb_rq_size 16
core_0_dtlb_wq_size 16
core_0_dtlb_pq_size 0
core_0_dtlb_mshr_size 8
core_0_dtlb_hit_latency 1
core_0_dtlb_fill_latency 1
core_0_dtlb_max_tag_check 2
core_0_dtlb_max_fill 2
core_0_stlb_set 128
core_0_stlb_way 12
core_0_stlb_rq_size 32
core_0_stlb_wq_size 32
core_0_stlb_pq_size 0
core_0_stlb_mshr_size 16
core_0_stlb_hit_latency 4
core_0_stlb_fill_latency 4
core_0_stlb_max_tag_check 1
core_0_stlb_max_fill 1
core_0_l1i_set 64
core_0_l1i_way 8
core_0_l1i_rq_size 64
core_0_l1i_wq_size 64
core_0_l1i_pq_size 32
core_0_l1i_mshr_size 8
core_0_l1i_hit_latency 2
core_0_l1i_fill_latency 2
core_0_l1i_max_tag_check 2
core_0_l1i_max_fill 2
core_0_l1d_set 64
core_0_l1d_way 12
core_0_l1d_rq_size 64
core_0_l1d_wq_size 64
core_0_l1d_pq_size 8
core_0_l1d_mshr_size 16
core_0_l1d_hit_latency 2
core_0_l1d_fill_latency 3
core_0_l1d_max_tag_check 2
core_0_l1d_max_fill 2
core_0_l2c_set 1024
core_0_l2c_way 8
core_0_l2c_rq_size 32
core_0_l2c_wq_size 32
core_0_l2c_pq_size 16
core_0_l2c_mshr_size 32
core_0_l2c_hit_latency 5
core_0_l2c_fill_latency 5
core_0_l2c_max_tag_check 1
core_0_l2c_max_fill 1
llc_set 2048
llc_way 16
llc_rq_size 32
llc_wq_size 32
llc_pq_size 32
llc_mshr_size 64
llc_hit_latency 10
llc_fill_latency 10
llc_max_tag_check 1
llc_max_fill 1
dram_channels 1
dram_ranks 1
dram_bankgroups 8
dram_banks 4
dram_rows 16384
dram_columns 1024
dram_channel_width 8
dram_rq_size 64
dram_wq_size 64
dram_size 4294967296
core_0_itlb_prefetcher no
core_0_dtlb_prefetcher no
core_0_stlb_prefetcher no
core_0_l1i_prefetcher next_line
core_0_l1d_prefetcher berti
core_0_l2c_prefetcher pythia
llc_prefetcher no
llc_replacement drrip

Core_0_instructions 50000004
Core_0_cycles 20436510
Core_0_IPC 2.4466
Core_0_branch_prediction_accuracy 91.8253
Core_0_branch_MPKI 0.72424
Core_0_average_ROB_occupancy_at_mispredict 157.066

Core_0_ITLB_total_access 5742288
Core_0_ITLB_total_hit 5742288
Core_0_ITLB_total_miss 0
Core_0_ITLB_total_MPKI 0
Core_0_ITLB_total_miss_rate 0
Core_0_ITLB_demand_access 5742288
Core_0_ITLB_demand_hit 5742288
Core_0_ITLB_demand_miss 0
Core_0_ITLB_demand_MPKI 0
Core_0_ITLB_demand_miss_rate 0
Core_0_ITLB_load_access 5742288
Core_0_ITLB_load_hit 5742288
Core_0_ITLB_load_miss 0
Core_0_ITLB_load_MPKI 0
Core_0_ITLB_load_miss_rate 0
Core_0_ITLB_rfo_access 0
Core_0_ITLB_rfo_hit 0
Core_0_ITLB_rfo_miss 0
Core_0_ITLB_rfo_MPKI 0
Core_0_ITLB_rfo_miss_rate 0
Core_0_ITLB_prefetch_access 0
Core_0_ITLB_prefetch_hit 0
Core_0_ITLB_prefetch_miss 0
Core_0_ITLB_prefetch_MPKI 0
Core_0_ITLB_prefetch_miss_rate 0
Core_0_ITLB_writeback_access 0
Core_0_ITLB_writeback_hit 0
Core_0_ITLB_writeback_miss 0
Core_0_ITLB_writeback_MPKI 0
Core_0_ITLB_writeback_miss_rate 0
Core_0_ITLB_prefetch_requested 0
Core_0_ITLB_prefetch_issued 0
Core_0_ITLB_prefetch_useful 0
Core_0_ITLB_prefetch_useless 0
Core_0_ITLB_prefetch_late 0
Core_0_ITLB_prefetch_accuracy 0
Core_0_ITLB_prefetch_coverage 0

Core_0_DTLB_total_access 16525738
Core_0_DTLB_total_hit 14298163
Core_0_DTLB_total_miss 2227575
Core_0_DTLB_total_MPKI 44.5515
Core_0_DTLB_total_miss_rate 0.134794
Core_0_DTLB_demand_access 16525738
Core_0_DTLB_demand_hit 14298163
Core_0_DTLB_demand_miss 2227575
Core_0_DTLB_demand_MPKI 44.5515
Core_0_DTLB_demand_miss_rate 0.134794
Core_0_DTLB_load_access 16525738
Core_0_DTLB_load_hit 14298163
Core_0_DTLB_load_miss 2227575
Core_0_DTLB_load_MPKI 44.5515
Core_0_DTLB_load_miss_rate 0.134794
Core_0_DTLB_rfo_access 0
Core_0_DTLB_rfo_hit 0
Core_0_DTLB_rfo_miss 0
Core_0_DTLB_rfo_MPKI 0
Core_0_DTLB_rfo_miss_rate 0
Core_0_DTLB_prefetch_access 0
Core_0_DTLB_prefetch_hit 0
Core_0_DTLB_prefetch_miss 0
Core_0_DTLB_prefetch_MPKI 0
Core_0_DTLB_prefetch_miss_rate 0
Core_0_DTLB_writeback_access 0
Core_0_DTLB_writeback_hit 0
Core_0_DTLB_writeback_miss 0
Core_0_DTLB_writeback_MPKI 0
Core_0_DTLB_writeback_miss_rate 0
Core_0_DTLB_prefetch_requested 0
Core_0_DTLB_prefetch_issued 0
Core_0_DTLB_prefetch_useful 0
Core_0_DTLB_prefetch_useless 0
Core_0_DTLB_prefetch_late 0
Core_0_DTLB_prefetch_accuracy 0
Core_0_DTLB_prefetch_coverage 0

Core_0_STLB_total_access 1986220
Core_0_STLB_total_hit 1984031
Core_0_STLB_total_miss 2189
Core_0_STLB_total_MPKI 0.04378
Core_0_STLB_total_miss_rate 0.00110209
Core_0_STLB_demand_access 1986220
Core_0_STLB_demand_hit 1984031
Core_0_STLB_demand_miss 2189
Core_0_STLB_demand_MPKI 0.04378
Core_0_STLB_demand_miss_rate 0.00110209
Core_0_STLB_load_access 1986220
Core_0_STLB_load_hit 1984031
Core_0_STLB_load_miss 2189
Core_0_STLB_load_MPKI 0.04378
Core_0_STLB_load_miss_rate 0.00110209
Core_0_STLB_rfo_access 0
Core_0_STLB_rfo_hit 0
Core_0_STLB_rfo_miss 0
Core_0_STLB_rfo_MPKI 0
Core_0_STLB_rfo_miss_rate 0
Core_0_STLB_prefetch_access 0
Core_0_STLB_prefetch_hit 0
Core_0_STLB_prefetch_miss 0
Core_0_STLB_prefetch_MPKI 0
Core_0_STLB_prefetch_miss_rate 0
Core_0_STLB_writeback_access 0
Core_0_STLB_writeback_hit 0
Core_0_STLB_writeback_miss 0
Core_0_STLB_writeback_MPKI 0
Core_0_STLB_writeback_miss_rate 0
Core_0_STLB_prefetch_requested 0
Core_0_STLB_prefetch_issued 0
Core_0_STLB_prefetch_useful 0
Core_0_STLB_prefetch_useless 0
Core_0_STLB_prefetch_late 0
Core_0_STLB_prefetch_accuracy 0
Core_0_STLB_prefetch_coverage 0

Core_0_L1I_total_access 8354063
Core_0_L1I_total_hit 7212922
Core_0_L1I_total_miss 1141141
Core_0_L1I_total_MPKI 22.8228
Core_0_L1I_total_miss_rate 0.136597
Core_0_L1I_demand_access 8354063
Core_0_L1I_demand_hit 7212922
Core_0_L1I_demand_miss 1141141
Core_0_L1I_demand_MPKI 22.8228
Core_0_L1I_demand_miss_rate 0.136597
Core_0_L1I_load_access 8354063
Core_0_L1I_load_hit 7212922
Core_0_L1I_load_miss 1141141
Core_0_L1I_load_MPKI 22.8228
Core_0_L1I_load_miss_rate 0.136597
Core_0_L1I_rfo_access 0
Core_0_L1I_rfo_hit 0
Core_0_L1I_rfo_miss 0
Core_0_L1I_rfo_MPKI 0
Core_0_L1I_rfo_miss_rate 0
Core_0_L1I_prefetch_access 0
Core_0_L1I_prefetch_hit 0
Core_0_L1I_prefetch_miss 0
Core_0_L1I_prefetch_MPKI 0
Core_0_L1I_prefetch_miss_rate 0
Core_0_L1I_writeback_access 0
Core_0_L1I_writeback_hit 0
Core_0_L1I_writeback_miss 0
Core_0_L1I_writeback_MPKI 0
Core_0_L1I_writeback_miss_rate 0
Core_0_L1I_prefetch_requested 0
Core_0_L1I_prefetch_issued 0
Core_0_L1I_prefetch_useful 0
Core_0_L1I_prefetch_useless 0
Core_0_L1I_prefetch_late 0
Core_0_L1I_prefetch_accuracy 0
Core_0_L1I_prefetch_coverage 0

Core_0_L1D_total_access 17688578
Core_0_L1D_total_hit 13116264
Core_0_L1D_total_miss 4572314
Core_0_L1D_total_MPKI 91.4463
Core_0_L1D_total_miss_rate 0.25849
Core_0_L1D_demand_access 12167571
Core_0_L1D_demand_hit 8807711
Core_0_L1D_demand_miss 3359860
Core_0_L1D_demand_MPKI 67.1972
Core_0_L1D_demand_miss_rate 0.276132
Core_0_L1D_load_access 12167571
Core_0_L1D_load_hit 8807711
Core_0_L1D_load_miss 3359860
Core_0_L1D_load_MPKI 67.1972
Core_0_L1D_load_miss_rate 0.276132
Core_0_L1D_rfo_access 0
Core_0_L1D_rfo_hit 0
Core_0_L1D_rfo_miss 0
Core_0_L1D_rfo_MPKI 0
Core_0_L1D_rfo_miss_rate 0
Core_0_L1D_prefetch_access 1707711
Core_0_L1D_prefetch_hit 853280
Core_0_L1D_prefetch_miss 854431
Core_0_L1D_prefetch_MPKI 17.0886
Core_0_L1D_prefetch_miss_rate 0.500337
Core_0_L1D_writeback_access 3813296
Core_0_L1D_writeback_hit 3455273
Core_0_L1D_writeback_miss 358023
Core_0_L1D_writeback_MPKI 7.16046
Core_0_L1D_writeback_miss_rate 0.0938881
Core_0_L1D_prefetch_requested 2379356
Core_0_L1D_prefetch_issued 1707703
Core_0_L1D_prefetch_useful 257049
Core_0_L1D_prefetch_useless 514541
Core_0_L1D_prefetch_late 51859
Core_0_L1D_prefetch_accuracy 0.150523
Core_0_L1D_prefetch_coverage 0.0710687

Core_0_L2C_total_access 9366997
Core_0_L2C_total_hit 8967853
Core_0_L2C_total_miss 399144
Core_0_L2C_total_MPKI 7.98288
Core_0_L2C_total_miss_rate 0.0426117
Core_0_L2C_demand_access 4298318
Core_0_L2C_demand_hit 4244682
Core_0_L2C_demand_miss 53636
Core_0_L2C_demand_MPKI 1.07272
Core_0_L2C_demand_miss_rate 0.0124784
Core_0_L2C_load_access 3980542
Core_0_L2C_load_hit 3959589
Core_0_L2C_load_miss 20953
Core_0_L2C_load_MPKI 0.41906
Core_0_L2C_load_miss_rate 0.00526386
Core_0_L2C_rfo_access 317776
Core_0_L2C_rfo_hit 285093
Core_0_L2C_rfo_miss 32683
Core_0_L2C_rfo_MPKI 0.65366
Core_0_L2C_rfo_miss_rate 0.102849
Core_0_L2C_prefetch_access 4707114
Core_0_L2C_prefetch_hit 4361660
Core_0_L2C_prefetch_miss 345454
Core_0_L2C_prefetch_MPKI 6.90908
Core_0_L2C_prefetch_miss_rate 0.0733898
Core_0_L2C_writeback_access 361565
Core_0_L2C_writeback_hit 361511
Core_0_L2C_writeback_miss 54
Core_0_L2C_writeback_MPKI 0.00108
Core_0_L2C_writeback_miss_rate 0.000149351
Core_0_L2C_prefetch_requested 4646940
Core_0_L2C_prefetch_issued 3935394
Core_0_L2C_prefetch_useful 278454
Core_0_L2C_prefetch_useless 27893
Core_0_L2C_prefetch_late 99
Core_0_L2C_prefetch_accuracy 0.0707563
Core_0_L2C_prefetch_coverage 0.83849

Core_0_LLC_total_access 427376
Core_0_LLC_total_hit 256901
Core_0_LLC_total_miss 170475
Core_0_LLC_total_MPKI 3.4095
Core_0_LLC_total_miss_rate 0.398888
Core_0_LLC_demand_access 53462
Core_0_LLC_demand_hit 20097
Core_0_LLC_demand_miss 33365
Core_0_LLC_demand_MPKI 0.6673
Core_0_LLC_demand_miss_rate 0.624088
Core_0_LLC_load_access 20855
Core_0_LLC_load_hit 16794
Core_0_LLC_load_miss 4061
Core_0_LLC_load_MPKI 0.08122
Core_0_LLC_load_miss_rate 0.194725
Core_0_LLC_rfo_access 32607
Core_0_LLC_rfo_hit 3303
Core_0_LLC_rfo_miss 29304
Core_0_LLC_rfo_MPKI 0.58608
Core_0_LLC_rfo_miss_rate 0.898703
Core_0_LLC_prefetch_access 340921
Core_0_LLC_prefetch_hit 207567
Core_0_LLC_prefetch_miss 133354
Core_0_LLC_prefetch_MPKI 2.66708
Core_0_LLC_prefetch_miss_rate 0.391158
Core_0_LLC_writeback_access 32993
Core_0_LLC_writeback_hit 29237
Core_0_LLC_writeback_miss 3756
Core_0_LLC_writeback_MPKI 0.07512
Core_0_LLC_writeback_miss_rate 0.113842
Core_0_LLC_prefetch_requested 0
Core_0_LLC_prefetch_issued 0
Core_0_LLC_prefetch_useful 0
Core_0_LLC_prefetch_useless 0
Core_0_LLC_prefetch_late 0
Core_0_LLC_prefetch_accuracy 0
Core_0_LLC_prefetch_coverage 0

[DRAM Statistics]
Channel_0_RQ_row_buffer_hit 224
Channel_0_RQ_row_buffer_miss 167041
Channel_0_WQ_row_buffer_hit 3730
Channel_0_WQ_row_buffer_miss 25266
Channel_0_WQ_full 0
Channel_0_dbus_congested 273737
DRAM_total_RQ_row_buffer_hit 224
DRAM_total_RQ_row_buffer_miss 167041
DRAM_total_WQ_row_buffer_hit 3730
DRAM_total_WQ_row_buffer_miss 25266
DRAM_total_WQ_full 0
DRAM_total_dbus_congested 273737
DRAM_avg_congested_cycle 8.33195

======STLB miss causes ========
Core_0_STLB_miss_cause_breakdown
Core_0_STLB_cause_Demand_Data_miss 1071
Core_0_STLB_cause_Demand_Data_miss_rate 0.000539215
Core_0_STLB_cause_Demand_Instruction_miss 0
Core_0_STLB_cause_Demand_Instruction_miss_rate 0
Core_0_STLB_cause_L1D_Prefetch_miss 1118
Core_0_STLB_cause_L1D_Prefetch_miss_rate 0.000562878
Core_0_STLB_cause_L1I_Prefetch_miss 0
Core_0_STLB_cause_L1I_Prefetch_miss_rate 0
Core_0_STLB_cause_Other_miss 0
Core_0_STLB_cause_Other_miss_rate 0
Core_0_STLB_Demand_miss 1071
Core_0_STLB_Demand_miss_rate 0.000539215
Core_0_STLB_L1D_Prefetch_miss 1118
Core_0_STLB_L1D_Prefetch_miss_rate 0.000562878
Core_0_STLB_Other_miss 0
Core_0_STLB_Other_miss_rate 0
