[VMEM] WARNING: physical memory size is smaller than virtual memory size.

*** ChampSim Multicore Out-of-Order Simulator ***
Warmup Instructions: 20000000
Simulation Instructions: 50000000
Number of CPUs: 1
Page size: 4096
STLB ideal mode: all
Core 0: /data0/tzh/champsim_traces/SPEC06/483.xalancbmk-716B.champsimtrace.xz
Off-chip DRAM Size: 16 GiB Channels: 1 Width: 64-bit Data Rate: 3205 MT/s
Warmup halting CPU 0 at instruction 20000005 cycle 4022239 for remainder of phase
Warmup finished CPU 0 instructions: 20000005 cycles: 4022239 cumulative IPC: 4.972 (Simulation time: 00 hr 00 min 43 sec)
Warmup complete CPU 0 instructions: 20000005 cycles: 4022239 cumulative IPC: 4.972 (Simulation time: 00 hr 00 min 43 sec)
Simulation finished CPU 0 instructions: 50000001 cycles: 30493435 cumulative IPC: 1.64 (Simulation time: 00 hr 04 min 40 sec)
Simulation complete CPU 0 instructions: 50000001 cycles: 30493435 cumulative IPC: 1.64 (Simulation time: 00 hr 04 min 40 sec)

ChampSim completed all CPUs

=== Simulation ===
CPU 0 runs /data0/tzh/champsim_traces/SPEC06/483.xalancbmk-716B.champsimtrace.xz

Region of Interest Statistics

CPU 0 cumulative IPC: 1.64 instructions: 50000001 cycles: 30493435
CPU 0 Branch Prediction Accuracy: 98.2% MPKI: 4.715 Average ROB Occupancy at Mispredict: 55.14
Branch type MPKI
BRANCH_DIRECT_JUMP: 0.0076
BRANCH_INDIRECT: 0.2231
BRANCH_CONDITIONAL: 2.662
BRANCH_DIRECT_CALL: 0.08324
BRANCH_INDIRECT_CALL: 0.3313
BRANCH_RETURN: 1.407

cpu0->cpu0_STLB TOTAL        ACCESS:     416875 HIT:     416875 MISS:          0 MSHR_MERGE:          0
cpu0->cpu0_STLB LOAD         ACCESS:     416875 HIT:     416875 MISS:          0 MSHR_MERGE:          0
cpu0->cpu0_STLB RFO          ACCESS:          0 HIT:          0 MISS:          0 MSHR_MERGE:          0
cpu0->cpu0_STLB PREFETCH     ACCESS:          0 HIT:          0 MISS:          0 MSHR_MERGE:          0
cpu0->cpu0_STLB WRITE        ACCESS:          0 HIT:          0 MISS:          0 MSHR_MERGE:          0
cpu0->cpu0_STLB TRANSLATION  ACCESS:          0 HIT:          0 MISS:          0 MSHR_MERGE:          0
cpu0->cpu0_STLB PREFETCH REQUESTED:          0 ISSUED:          0 USEFUL:          0 USELESS:          0 LATE:          0
cpu0->cpu0_STLB AVERAGE MISS LATENCY: - cycles
cpu0->cpu0_L2C TOTAL        ACCESS:     799859 HIT:     608618 MISS:     191241 MSHR_MERGE:        622
cpu0->cpu0_L2C LOAD         ACCESS:     280970 HIT:     217909 MISS:      63061 MSHR_MERGE:         26
cpu0->cpu0_L2C RFO          ACCESS:      50377 HIT:       4116 MISS:      46261 MSHR_MERGE:          0
cpu0->cpu0_L2C PREFETCH     ACCESS:     352343 HIT:     270605 MISS:      81738 MSHR_MERGE:        596
cpu0->cpu0_L2C WRITE        ACCESS:     116169 HIT:     115988 MISS:        181 MSHR_MERGE:          0
cpu0->cpu0_L2C TRANSLATION  ACCESS:          0 HIT:          0 MISS:          0 MSHR_MERGE:          0
cpu0->cpu0_L2C PREFETCH REQUESTED:     136258 ISSUED:     136258 USEFUL:       6235 USELESS:       1121 LATE:         26
cpu0->cpu0_L2C AVERAGE MISS LATENCY: 165.2 cycles
cpu0->cpu0_L1I TOTAL        ACCESS:    7455685 HIT:    7409714 MISS:      45971 MSHR_MERGE:       9414
cpu0->cpu0_L1I LOAD         ACCESS:    7455685 HIT:    7409714 MISS:      45971 MSHR_MERGE:       9414
cpu0->cpu0_L1I RFO          ACCESS:          0 HIT:          0 MISS:          0 MSHR_MERGE:          0
cpu0->cpu0_L1I PREFETCH     ACCESS:          0 HIT:          0 MISS:          0 MSHR_MERGE:          0
cpu0->cpu0_L1I WRITE        ACCESS:          0 HIT:          0 MISS:          0 MSHR_MERGE:          0
cpu0->cpu0_L1I TRANSLATION  ACCESS:          0 HIT:          0 MISS:          0 MSHR_MERGE:          0
cpu0->cpu0_L1I PREFETCH REQUESTED:          0 ISSUED:          0 USEFUL:          0 USELESS:          0 LATE:          0
cpu0->cpu0_L1I AVERAGE MISS LATENCY: 26.5 cycles
cpu0->cpu0_L1D TOTAL        ACCESS:   19038625 HIT:   17726097 MISS:    1312528 MSHR_MERGE:     801647
cpu0->cpu0_L1D LOAD         ACCESS:    8129965 HIT:    7662397 MISS:     467568 MSHR_MERGE:     223154
cpu0->cpu0_L1D RFO          ACCESS:          0 HIT:          0 MISS:          0 MSHR_MERGE:          0
cpu0->cpu0_L1D PREFETCH     ACCESS:    7442252 HIT:    6865976 MISS:     576276 MSHR_MERGE:     360191
cpu0->cpu0_L1D WRITE        ACCESS:    3466408 HIT:    3197724 MISS:     268684 MSHR_MERGE:     218302
cpu0->cpu0_L1D TRANSLATION  ACCESS:          0 HIT:          0 MISS:          0 MSHR_MERGE:          0
cpu0->cpu0_L1D PREFETCH REQUESTED:    8336358 ISSUED:    7442244 USEFUL:     102846 USELESS:     113173 LATE:      75176
cpu0->cpu0_L1D AVERAGE MISS LATENCY: 56.88 cycles
cpu0->cpu0_ITLB TOTAL        ACCESS:    6980089 HIT:    6914488 MISS:      65601 MSHR_MERGE:      33285
cpu0->cpu0_ITLB LOAD         ACCESS:    6980089 HIT:    6914488 MISS:      65601 MSHR_MERGE:      33285
cpu0->cpu0_ITLB RFO          ACCESS:          0 HIT:          0 MISS:          0 MSHR_MERGE:          0
cpu0->cpu0_ITLB PREFETCH     ACCESS:          0 HIT:          0 MISS:          0 MSHR_MERGE:          0
cpu0->cpu0_ITLB WRITE        ACCESS:          0 HIT:          0 MISS:          0 MSHR_MERGE:          0
cpu0->cpu0_ITLB TRANSLATION  ACCESS:          0 HIT:          0 MISS:          0 MSHR_MERGE:          0
cpu0->cpu0_ITLB PREFETCH REQUESTED:          0 ISSUED:          0 USEFUL:          0 USELESS:          0 LATE:          0
cpu0->cpu0_ITLB AVERAGE MISS LATENCY: 5.001 cycles
cpu0->cpu0_DTLB TOTAL        ACCESS:   16151803 HIT:   15562854 MISS:     588949 MSHR_MERGE:     204390
cpu0->cpu0_DTLB LOAD         ACCESS:   16151803 HIT:   15562854 MISS:     588949 MSHR_MERGE:     204390
cpu0->cpu0_DTLB RFO          ACCESS:          0 HIT:          0 MISS:          0 MSHR_MERGE:          0
cpu0->cpu0_DTLB PREFETCH     ACCESS:          0 HIT:          0 MISS:          0 MSHR_MERGE:          0
cpu0->cpu0_DTLB WRITE        ACCESS:          0 HIT:          0 MISS:          0 MSHR_MERGE:          0
cpu0->cpu0_DTLB TRANSLATION  ACCESS:          0 HIT:          0 MISS:          0 MSHR_MERGE:          0
cpu0->cpu0_DTLB PREFETCH REQUESTED:          0 ISSUED:          0 USEFUL:          0 USELESS:          0 LATE:          0
cpu0->cpu0_DTLB AVERAGE MISS LATENCY: 5.005 cycles
cpu0->LLC TOTAL        ACCESS:     287786 HIT:     109558 MISS:     178228 MSHR_MERGE:         11
cpu0->LLC LOAD         ACCESS:      63035 HIT:      21052 MISS:      41983 MSHR_MERGE:          0
cpu0->LLC RFO          ACCESS:      46261 HIT:      11857 MISS:      34404 MSHR_MERGE:          0
cpu0->LLC PREFETCH     ACCESS:      81142 HIT:      19560 MISS:      61582 MSHR_MERGE:         11
cpu0->LLC WRITE        ACCESS:      97348 HIT:      57089 MISS:      40259 MSHR_MERGE:          0
cpu0->LLC TRANSLATION  ACCESS:          0 HIT:          0 MISS:          0 MSHR_MERGE:          0
cpu0->LLC PREFETCH REQUESTED:          0 ISSUED:          0 USEFUL:          0 USELESS:          0 LATE:          0
cpu0->LLC AVERAGE MISS LATENCY: 143.4 cycles

DRAM Statistics

Channel 0 RQ ROW_BUFFER_HIT:       1228
  ROW_BUFFER_MISS:     136711
  AVG DBUS CONGESTED CYCLE: 10.89
Channel 0 WQ ROW_BUFFER_HIT:       9007
  ROW_BUFFER_MISS:      45587
  FULL:          0
Channel 0 REFRESHES ISSUED:       2541

[ROI Statistics]
[System Configuration]
num_cpus 1
cpu_freq 4000
fetch_width 6
decode_width 6
dispatch_width 6
execute_width 6
lq_width 2
sq_width 2
retire_width 6
scheduler_size 128
branch_mispredict_penalty 15
rob_size 352
lq_size 128
sq_size 72
ifetch_buffer_size 64
decode_buffer_size 32
dispatch_buffer_size 32
register_file_size 288
decode_latency 1
dispatch_latency 1
schedule_latency 1
execute_latency 1
page_size 4096
block_size 64
core_0_itlb_set 16
core_0_itlb_way 4
core_0_itlb_rq_size 16
core_0_itlb_wq_size 16
core_0_itlb_pq_size 0
core_0_itlb_mshr_size 8
core_0_itlb_hit_latency 1
core_0_itlb_fill_latency 1
core_0_itlb_max_tag_check 2
core_0_itlb_max_fill 2
core_0_dtlb_set 16
core_0_dtlb_way 4
core_0_dtlb_rq_size 16
core_0_dtlb_wq_size 16
core_0_dtlb_pq_size 0
core_0_dtlb_mshr_size 8
core_0_dtlb_hit_latency 1
core_0_dtlb_fill_latency 1
core_0_dtlb_max_tag_check 2
core_0_dtlb_max_fill 2
core_0_stlb_set 128
core_0_stlb_way 12
core_0_stlb_rq_size 32
core_0_stlb_wq_size 32
core_0_stlb_pq_size 0
core_0_stlb_mshr_size 16
core_0_stlb_hit_latency 4
core_0_stlb_fill_latency 4
core_0_stlb_max_tag_check 1
core_0_stlb_max_fill 1
core_0_l1i_set 64
core_0_l1i_way 8
core_0_l1i_rq_size 64
core_0_l1i_wq_size 64
core_0_l1i_pq_size 32
core_0_l1i_mshr_size 8
core_0_l1i_hit_latency 2
core_0_l1i_fill_latency 2
core_0_l1i_max_tag_check 2
core_0_l1i_max_fill 2
core_0_l1d_set 64
core_0_l1d_way 12
core_0_l1d_rq_size 64
core_0_l1d_wq_size 64
core_0_l1d_pq_size 8
core_0_l1d_mshr_size 16
core_0_l1d_hit_latency 2
core_0_l1d_fill_latency 3
core_0_l1d_max_tag_check 2
core_0_l1d_max_fill 2
core_0_l2c_set 1024
core_0_l2c_way 8
core_0_l2c_rq_size 32
core_0_l2c_wq_size 32
core_0_l2c_pq_size 16
core_0_l2c_mshr_size 32
core_0_l2c_hit_latency 5
core_0_l2c_fill_latency 5
core_0_l2c_max_tag_check 1
core_0_l2c_max_fill 1
llc_set 2048
llc_way 16
llc_rq_size 32
llc_wq_size 32
llc_pq_size 32
llc_mshr_size 64
llc_hit_latency 10
llc_fill_latency 10
llc_max_tag_check 1
llc_max_fill 1
dram_channels 1
dram_ranks 1
dram_bankgroups 8
dram_banks 4
dram_rows 65536
dram_columns 1024
dram_channel_width 8
dram_rq_size 64
dram_wq_size 64
dram_size 17179869184
core_0_itlb_prefetcher no
core_0_dtlb_prefetcher no
core_0_stlb_prefetcher no
core_0_l1i_prefetcher next_line
core_0_l1d_prefetcher next_line
core_0_l2c_prefetcher ip_stride
llc_prefetcher no
llc_replacement drrip

Core_0_instructions 50000001
Core_0_cycles 30493435
Core_0_IPC 1.6397
Core_0_branch_prediction_accuracy 98.2025
Core_0_branch_MPKI 4.71486
Core_0_average_ROB_occupancy_at_mispredict 55.1379

Core_0_ITLB_total_access 6980089
Core_0_ITLB_total_hit 6914488
Core_0_ITLB_total_miss 65601
Core_0_ITLB_total_MPKI 1.31202
Core_0_ITLB_total_miss_rate 0.0093983
Core_0_ITLB_demand_access 6980089
Core_0_ITLB_demand_hit 6914488
Core_0_ITLB_demand_miss 65601
Core_0_ITLB_demand_MPKI 1.31202
Core_0_ITLB_demand_miss_rate 0.0093983
Core_0_ITLB_load_access 6980089
Core_0_ITLB_load_hit 6914488
Core_0_ITLB_load_miss 65601
Core_0_ITLB_load_MPKI 1.31202
Core_0_ITLB_load_miss_rate 0.0093983
Core_0_ITLB_rfo_access 0
Core_0_ITLB_rfo_hit 0
Core_0_ITLB_rfo_miss 0
Core_0_ITLB_rfo_MPKI 0
Core_0_ITLB_rfo_miss_rate 0
Core_0_ITLB_prefetch_access 0
Core_0_ITLB_prefetch_hit 0
Core_0_ITLB_prefetch_miss 0
Core_0_ITLB_prefetch_MPKI 0
Core_0_ITLB_prefetch_miss_rate 0
Core_0_ITLB_writeback_access 0
Core_0_ITLB_writeback_hit 0
Core_0_ITLB_writeback_miss 0
Core_0_ITLB_writeback_MPKI 0
Core_0_ITLB_writeback_miss_rate 0
Core_0_ITLB_prefetch_requested 0
Core_0_ITLB_prefetch_issued 0
Core_0_ITLB_prefetch_useful 0
Core_0_ITLB_prefetch_useless 0
Core_0_ITLB_prefetch_late 0
Core_0_ITLB_prefetch_accuracy 0
Core_0_ITLB_prefetch_coverage 0

Core_0_DTLB_total_access 16151803
Core_0_DTLB_total_hit 15562854
Core_0_DTLB_total_miss 588949
Core_0_DTLB_total_MPKI 11.779
Core_0_DTLB_total_miss_rate 0.0364634
Core_0_DTLB_demand_access 16151803
Core_0_DTLB_demand_hit 15562854
Core_0_DTLB_demand_miss 588949
Core_0_DTLB_demand_MPKI 11.779
Core_0_DTLB_demand_miss_rate 0.0364634
Core_0_DTLB_load_access 16151803
Core_0_DTLB_load_hit 15562854
Core_0_DTLB_load_miss 588949
Core_0_DTLB_load_MPKI 11.779
Core_0_DTLB_load_miss_rate 0.0364634
Core_0_DTLB_rfo_access 0
Core_0_DTLB_rfo_hit 0
Core_0_DTLB_rfo_miss 0
Core_0_DTLB_rfo_MPKI 0
Core_0_DTLB_rfo_miss_rate 0
Core_0_DTLB_prefetch_access 0
Core_0_DTLB_prefetch_hit 0
Core_0_DTLB_prefetch_miss 0
Core_0_DTLB_prefetch_MPKI 0
Core_0_DTLB_prefetch_miss_rate 0
Core_0_DTLB_writeback_access 0
Core_0_DTLB_writeback_hit 0
Core_0_DTLB_writeback_miss 0
Core_0_DTLB_writeback_MPKI 0
Core_0_DTLB_writeback_miss_rate 0
Core_0_DTLB_prefetch_requested 0
Core_0_DTLB_prefetch_issued 0
Core_0_DTLB_prefetch_useful 0
Core_0_DTLB_prefetch_useless 0
Core_0_DTLB_prefetch_late 0
Core_0_DTLB_prefetch_accuracy 0
Core_0_DTLB_prefetch_coverage 0

Core_0_STLB_total_access 416875
Core_0_STLB_total_hit 416875
Core_0_STLB_total_miss 0
Core_0_STLB_total_MPKI 0
Core_0_STLB_total_miss_rate 0
Core_0_STLB_demand_access 416875
Core_0_STLB_demand_hit 416875
Core_0_STLB_demand_miss 0
Core_0_STLB_demand_MPKI 0
Core_0_STLB_demand_miss_rate 0
Core_0_STLB_load_access 416875
Core_0_STLB_load_hit 416875
Core_0_STLB_load_miss 0
Core_0_STLB_load_MPKI 0
Core_0_STLB_load_miss_rate 0
Core_0_STLB_rfo_access 0
Core_0_STLB_rfo_hit 0
Core_0_STLB_rfo_miss 0
Core_0_STLB_rfo_MPKI 0
Core_0_STLB_rfo_miss_rate 0
Core_0_STLB_prefetch_access 0
Core_0_STLB_prefetch_hit 0
Core_0_STLB_prefetch_miss 0
Core_0_STLB_prefetch_MPKI 0
Core_0_STLB_prefetch_miss_rate 0
Core_0_STLB_writeback_access 0
Core_0_STLB_writeback_hit 0
Core_0_STLB_writeback_miss 0
Core_0_STLB_writeback_MPKI 0
Core_0_STLB_writeback_miss_rate 0
Core_0_STLB_prefetch_requested 0
Core_0_STLB_prefetch_issued 0
Core_0_STLB_prefetch_useful 0
Core_0_STLB_prefetch_useless 0
Core_0_STLB_prefetch_late 0
Core_0_STLB_prefetch_accuracy 0
Core_0_STLB_prefetch_coverage 0

Core_0_L1I_total_access 7455685
Core_0_L1I_total_hit 7409714
Core_0_L1I_total_miss 45971
Core_0_L1I_total_MPKI 0.91942
Core_0_L1I_total_miss_rate 0.0061659
Core_0_L1I_demand_access 7455685
Core_0_L1I_demand_hit 7409714
Core_0_L1I_demand_miss 45971
Core_0_L1I_demand_MPKI 0.91942
Core_0_L1I_demand_miss_rate 0.0061659
Core_0_L1I_load_access 7455685
Core_0_L1I_load_hit 7409714
Core_0_L1I_load_miss 45971
Core_0_L1I_load_MPKI 0.91942
Core_0_L1I_load_miss_rate 0.0061659
Core_0_L1I_rfo_access 0
Core_0_L1I_rfo_hit 0
Core_0_L1I_rfo_miss 0
Core_0_L1I_rfo_MPKI 0
Core_0_L1I_rfo_miss_rate 0
Core_0_L1I_prefetch_access 0
Core_0_L1I_prefetch_hit 0
Core_0_L1I_prefetch_miss 0
Core_0_L1I_prefetch_MPKI 0
Core_0_L1I_prefetch_miss_rate 0
Core_0_L1I_writeback_access 0
Core_0_L1I_writeback_hit 0
Core_0_L1I_writeback_miss 0
Core_0_L1I_writeback_MPKI 0
Core_0_L1I_writeback_miss_rate 0
Core_0_L1I_prefetch_requested 0
Core_0_L1I_prefetch_issued 0
Core_0_L1I_prefetch_useful 0
Core_0_L1I_prefetch_useless 0
Core_0_L1I_prefetch_late 0
Core_0_L1I_prefetch_accuracy 0
Core_0_L1I_prefetch_coverage 0

Core_0_L1D_total_access 19038625
Core_0_L1D_total_hit 17726097
Core_0_L1D_total_miss 1312528
Core_0_L1D_total_MPKI 26.2506
Core_0_L1D_total_miss_rate 0.0689403
Core_0_L1D_demand_access 8129965
Core_0_L1D_demand_hit 7662397
Core_0_L1D_demand_miss 467568
Core_0_L1D_demand_MPKI 9.35136
Core_0_L1D_demand_miss_rate 0.0575117
Core_0_L1D_load_access 8129965
Core_0_L1D_load_hit 7662397
Core_0_L1D_load_miss 467568
Core_0_L1D_load_MPKI 9.35136
Core_0_L1D_load_miss_rate 0.0575117
Core_0_L1D_rfo_access 0
Core_0_L1D_rfo_hit 0
Core_0_L1D_rfo_miss 0
Core_0_L1D_rfo_MPKI 0
Core_0_L1D_rfo_miss_rate 0
Core_0_L1D_prefetch_access 7442252
Core_0_L1D_prefetch_hit 6865976
Core_0_L1D_prefetch_miss 576276
Core_0_L1D_prefetch_MPKI 11.5255
Core_0_L1D_prefetch_miss_rate 0.077433
Core_0_L1D_writeback_access 3466408
Core_0_L1D_writeback_hit 3197724
Core_0_L1D_writeback_miss 268684
Core_0_L1D_writeback_MPKI 5.37368
Core_0_L1D_writeback_miss_rate 0.0775108
Core_0_L1D_prefetch_requested 8336358
Core_0_L1D_prefetch_issued 7442244
Core_0_L1D_prefetch_useful 102846
Core_0_L1D_prefetch_useless 113173
Core_0_L1D_prefetch_late 75176
Core_0_L1D_prefetch_accuracy 0.0138192
Core_0_L1D_prefetch_coverage 0.180301

Core_0_L2C_total_access 799859
Core_0_L2C_total_hit 608618
Core_0_L2C_total_miss 191241
Core_0_L2C_total_MPKI 3.82482
Core_0_L2C_total_miss_rate 0.239093
Core_0_L2C_demand_access 331347
Core_0_L2C_demand_hit 222025
Core_0_L2C_demand_miss 109322
Core_0_L2C_demand_MPKI 2.18644
Core_0_L2C_demand_miss_rate 0.329932
Core_0_L2C_load_access 280970
Core_0_L2C_load_hit 217909
Core_0_L2C_load_miss 63061
Core_0_L2C_load_MPKI 1.26122
Core_0_L2C_load_miss_rate 0.22444
Core_0_L2C_rfo_access 50377
Core_0_L2C_rfo_hit 4116
Core_0_L2C_rfo_miss 46261
Core_0_L2C_rfo_MPKI 0.92522
Core_0_L2C_rfo_miss_rate 0.918296
Core_0_L2C_prefetch_access 352343
Core_0_L2C_prefetch_hit 270605
Core_0_L2C_prefetch_miss 81738
Core_0_L2C_prefetch_MPKI 1.63476
Core_0_L2C_prefetch_miss_rate 0.231984
Core_0_L2C_writeback_access 116169
Core_0_L2C_writeback_hit 115988
Core_0_L2C_writeback_miss 181
Core_0_L2C_writeback_MPKI 0.00362
Core_0_L2C_writeback_miss_rate 0.00155807
Core_0_L2C_prefetch_requested 136258
Core_0_L2C_prefetch_issued 136258
Core_0_L2C_prefetch_useful 6235
Core_0_L2C_prefetch_useless 1121
Core_0_L2C_prefetch_late 26
Core_0_L2C_prefetch_accuracy 0.0457588
Core_0_L2C_prefetch_coverage 0.0539561

Core_0_LLC_total_access 287786
Core_0_LLC_total_hit 109558
Core_0_LLC_total_miss 178228
Core_0_LLC_total_MPKI 3.56456
Core_0_LLC_total_miss_rate 0.619307
Core_0_LLC_demand_access 109296
Core_0_LLC_demand_hit 32909
Core_0_LLC_demand_miss 76387
Core_0_LLC_demand_MPKI 1.52774
Core_0_LLC_demand_miss_rate 0.6989
Core_0_LLC_load_access 63035
Core_0_LLC_load_hit 21052
Core_0_LLC_load_miss 41983
Core_0_LLC_load_MPKI 0.83966
Core_0_LLC_load_miss_rate 0.666027
Core_0_LLC_rfo_access 46261
Core_0_LLC_rfo_hit 11857
Core_0_LLC_rfo_miss 34404
Core_0_LLC_rfo_MPKI 0.68808
Core_0_LLC_rfo_miss_rate 0.743693
Core_0_LLC_prefetch_access 81142
Core_0_LLC_prefetch_hit 19560
Core_0_LLC_prefetch_miss 61582
Core_0_LLC_prefetch_MPKI 1.23164
Core_0_LLC_prefetch_miss_rate 0.758941
Core_0_LLC_writeback_access 97348
Core_0_LLC_writeback_hit 57089
Core_0_LLC_writeback_miss 40259
Core_0_LLC_writeback_MPKI 0.80518
Core_0_LLC_writeback_miss_rate 0.413558
Core_0_LLC_prefetch_requested 0
Core_0_LLC_prefetch_issued 0
Core_0_LLC_prefetch_useful 0
Core_0_LLC_prefetch_useless 0
Core_0_LLC_prefetch_late 0
Core_0_LLC_prefetch_accuracy 0
Core_0_LLC_prefetch_coverage 0

[DRAM Statistics]
Channel_0_RQ_row_buffer_hit 1228
Channel_0_RQ_row_buffer_miss 136711
Channel_0_WQ_row_buffer_hit 9007
Channel_0_WQ_row_buffer_miss 45587
Channel_0_WQ_full 0
Channel_0_dbus_congested 412783
DRAM_total_RQ_row_buffer_hit 1228
DRAM_total_RQ_row_buffer_miss 136711
DRAM_total_WQ_row_buffer_hit 9007
DRAM_total_WQ_row_buffer_miss 45587
DRAM_total_WQ_full 0
DRAM_total_dbus_congested 412783
DRAM_avg_congested_cycle 10.887

======STLB miss causes ========
Core_0_STLB_miss_cause_breakdown
Core_0_STLB_cause_Demand_Data_miss 0
Core_0_STLB_cause_Demand_Data_miss_rate 0
Core_0_STLB_cause_Demand_Instruction_miss 0
Core_0_STLB_cause_Demand_Instruction_miss_rate 0
Core_0_STLB_cause_L1D_Prefetch_miss 0
Core_0_STLB_cause_L1D_Prefetch_miss_rate 0
Core_0_STLB_cause_L1I_Prefetch_miss 0
Core_0_STLB_cause_L1I_Prefetch_miss_rate 0
Core_0_STLB_cause_Other_miss 0
Core_0_STLB_cause_Other_miss_rate 0
Core_0_STLB_Demand_miss 0
Core_0_STLB_Demand_miss_rate 0
Core_0_STLB_L1D_Prefetch_miss 0
Core_0_STLB_L1D_Prefetch_miss_rate 0
Core_0_STLB_Other_miss 0
Core_0_STLB_Other_miss_rate 0
