[VMEM] WARNING: physical memory size is smaller than virtual memory size.

*** ChampSim Multicore Out-of-Order Simulator ***
Warmup Instructions: 50000000
Simulation Instructions: 100000000
Number of CPUs: 1
Page size: 4096
Core 0: /data0/tzh/champsim_traces/SPEC06/454.calculix-460B.champsimtrace.xz
VBerti Prefetcher
BERTI HASH ENTANGLING
BERTI IP MASK ffff
Off-chip DRAM Size: 16 GiB Channels: 1 Width: 64-bit Data Rate: 3205 MT/s
Warmup halting CPU 0 at instruction 50000000 cycle 10057338 for remainder of phase
Warmup finished CPU 0 instructions: 50000000 cycles: 10057338 cumulative IPC: 4.971 (Simulation time: 00 hr 02 min 07 sec)
Warmup complete CPU 0 instructions: 50000000 cycles: 10057338 cumulative IPC: 4.971 (Simulation time: 00 hr 02 min 07 sec)
Simulation finished CPU 0 instructions: 100000005 cycles: 23772283 cumulative IPC: 4.207 (Simulation time: 00 hr 07 min 28 sec)
Simulation complete CPU 0 instructions: 100000005 cycles: 23772283 cumulative IPC: 4.207 (Simulation time: 00 hr 07 min 28 sec)

ChampSim completed all CPUs

=== Simulation ===
CPU 0 runs /data0/tzh/champsim_traces/SPEC06/454.calculix-460B.champsimtrace.xz

Region of Interest Statistics

CPU 0 cumulative IPC: 4.207 instructions: 100000005 cycles: 23772283
CPU 0 Branch Prediction Accuracy: 99.88% MPKI: 0.0765 Average ROB Occupancy at Mispredict: 86.17
Branch type MPKI
BRANCH_DIRECT_JUMP: 0.00302
BRANCH_INDIRECT: 0.00018
BRANCH_CONDITIONAL: 0.07034
BRANCH_DIRECT_CALL: 0.00153
BRANCH_INDIRECT_CALL: 0
BRANCH_RETURN: 0.00143

cpu0->cpu0_STLB TOTAL        ACCESS:      59446 HIT:      47440 MISS:      12006 MSHR_MERGE:          0
cpu0->cpu0_STLB LOAD         ACCESS:      59446 HIT:      47440 MISS:      12006 MSHR_MERGE:          0
cpu0->cpu0_STLB RFO          ACCESS:          0 HIT:          0 MISS:          0 MSHR_MERGE:          0
cpu0->cpu0_STLB PREFETCH     ACCESS:          0 HIT:          0 MISS:          0 MSHR_MERGE:          0
cpu0->cpu0_STLB WRITE        ACCESS:          0 HIT:          0 MISS:          0 MSHR_MERGE:          0
cpu0->cpu0_STLB TRANSLATION  ACCESS:          0 HIT:          0 MISS:          0 MSHR_MERGE:          0
cpu0->cpu0_STLB PREFETCH REQUESTED:          0 ISSUED:          0 USEFUL:          0 USELESS:          0 LATE:          0 TOO_EARLY:          0
cpu0->cpu0_STLB AVERAGE MISS LATENCY: 40.7 cycles
cpu0->cpu0_L2C TOTAL        ACCESS:    3274771 HIT:    2161253 MISS:    1113518 MSHR_MERGE:     353789
cpu0->cpu0_L2C LOAD         ACCESS:     117659 HIT:      79752 MISS:      37907 MSHR_MERGE:       1294
cpu0->cpu0_L2C RFO          ACCESS:      14932 HIT:       4997 MISS:       9935 MSHR_MERGE:       6876
cpu0->cpu0_L2C PREFETCH     ACCESS:    2730429 HIT:    1668684 MISS:    1061745 MSHR_MERGE:     345619
cpu0->cpu0_L2C WRITE        ACCESS:     409624 HIT:     406820 MISS:       2804 MSHR_MERGE:          0
cpu0->cpu0_L2C TRANSLATION  ACCESS:       2127 HIT:       1000 MISS:       1127 MSHR_MERGE:          0
cpu0->cpu0_L2C PREFETCH REQUESTED:    1104558 ISSUED:    1084734 USEFUL:     194426 USELESS:      13288 LATE:        740 TOO_EARLY:        882
cpu0->cpu0_L2C AVERAGE MISS LATENCY: 67.92 cycles
cpu0->cpu0_L1I TOTAL        ACCESS:   13085203 HIT:   13084652 MISS:        551 MSHR_MERGE:         86
cpu0->cpu0_L1I LOAD         ACCESS:   13085203 HIT:   13084652 MISS:        551 MSHR_MERGE:         86
cpu0->cpu0_L1I RFO          ACCESS:          0 HIT:          0 MISS:          0 MSHR_MERGE:          0
cpu0->cpu0_L1I PREFETCH     ACCESS:          0 HIT:          0 MISS:          0 MSHR_MERGE:          0
cpu0->cpu0_L1I WRITE        ACCESS:          0 HIT:          0 MISS:          0 MSHR_MERGE:          0
cpu0->cpu0_L1I TRANSLATION  ACCESS:          0 HIT:          0 MISS:          0 MSHR_MERGE:          0
cpu0->cpu0_L1I PREFETCH REQUESTED:          0 ISSUED:          0 USEFUL:          0 USELESS:          0 LATE:          0 TOO_EARLY:          0
cpu0->cpu0_L1I AVERAGE MISS LATENCY: 205 cycles
cpu0->cpu0_L1D TOTAL        ACCESS:   25192421 HIT:   23188244 MISS:    2004177 MSHR_MERGE:     214990
cpu0->cpu0_L1D LOAD         ACCESS:   13685045 HIT:   13466850 MISS:     218195 MSHR_MERGE:     101001
cpu0->cpu0_L1D RFO          ACCESS:          0 HIT:          0 MISS:          0 MSHR_MERGE:          0
cpu0->cpu0_L1D PREFETCH     ACCESS:    7603446 HIT:    5932370 MISS:    1671076 MSHR_MERGE:      16167
cpu0->cpu0_L1D WRITE        ACCESS:    3880174 HIT:    3767423 MISS:     112751 MSHR_MERGE:      97794
cpu0->cpu0_L1D TRANSLATION  ACCESS:      23756 HIT:      21601 MISS:       2155 MSHR_MERGE:         28
cpu0->cpu0_L1D PREFETCH REQUESTED:   62402343 ISSUED:    7603444 USEFUL:    1182185 USELESS:       9171 LATE:      18124 TOO_EARLY:        201
cpu0->cpu0_L1D AVERAGE MISS LATENCY: 39.97 cycles
cpu0->cpu0_ITLB TOTAL        ACCESS:   10557781 HIT:   10557730 MISS:         51 MSHR_MERGE:         16
cpu0->cpu0_ITLB LOAD         ACCESS:   10557781 HIT:   10557730 MISS:         51 MSHR_MERGE:         16
cpu0->cpu0_ITLB RFO          ACCESS:          0 HIT:          0 MISS:          0 MSHR_MERGE:          0
cpu0->cpu0_ITLB PREFETCH     ACCESS:          0 HIT:          0 MISS:          0 MSHR_MERGE:          0
cpu0->cpu0_ITLB WRITE        ACCESS:          0 HIT:          0 MISS:          0 MSHR_MERGE:          0
cpu0->cpu0_ITLB TRANSLATION  ACCESS:          0 HIT:          0 MISS:          0 MSHR_MERGE:          0
cpu0->cpu0_ITLB PREFETCH REQUESTED:          0 ISSUED:          0 USEFUL:          0 USELESS:          0 LATE:          0 TOO_EARLY:          0
cpu0->cpu0_ITLB AVERAGE MISS LATENCY: 304.1 cycles
cpu0->cpu0_DTLB TOTAL        ACCESS:   20561986 HIT:   20473516 MISS:      88470 MSHR_MERGE:      29059
cpu0->cpu0_DTLB LOAD         ACCESS:   20561986 HIT:   20473516 MISS:      88470 MSHR_MERGE:      29059
cpu0->cpu0_DTLB RFO          ACCESS:          0 HIT:          0 MISS:          0 MSHR_MERGE:          0
cpu0->cpu0_DTLB PREFETCH     ACCESS:          0 HIT:          0 MISS:          0 MSHR_MERGE:          0
cpu0->cpu0_DTLB WRITE        ACCESS:          0 HIT:          0 MISS:          0 MSHR_MERGE:          0
cpu0->cpu0_DTLB TRANSLATION  ACCESS:          0 HIT:          0 MISS:          0 MSHR_MERGE:          0
cpu0->cpu0_DTLB PREFETCH REQUESTED:          0 ISSUED:          0 USEFUL:          0 USELESS:          0 LATE:          0 TOO_EARLY:          0
cpu0->cpu0_DTLB AVERAGE MISS LATENCY: 13.18 cycles
cpu0->LLC TOTAL        ACCESS:     958901 HIT:     826659 MISS:     132242 MSHR_MERGE:       5272
cpu0->LLC LOAD         ACCESS:      36613 HIT:      31126 MISS:       5487 MSHR_MERGE:         14
cpu0->LLC RFO          ACCESS:       3059 HIT:        719 MISS:       2340 MSHR_MERGE:        369
cpu0->LLC PREFETCH     ACCESS:     716124 HIT:     602447 MISS:     113677 MSHR_MERGE:       4889
cpu0->LLC WRITE        ACCESS:     201978 HIT:     191548 MISS:      10430 MSHR_MERGE:          0
cpu0->LLC TRANSLATION  ACCESS:       1127 HIT:        819 MISS:        308 MSHR_MERGE:          0
cpu0->LLC PREFETCH REQUESTED:          0 ISSUED:          0 USEFUL:          0 USELESS:          0 LATE:          0 TOO_EARLY:          0
cpu0->LLC AVERAGE MISS LATENCY: 89.17 cycles

DRAM Statistics

Channel 0 RQ ROW_BUFFER_HIT:      19150
  ROW_BUFFER_MISS:      97383
  AVG DBUS CONGESTED CYCLE: 8.444
Channel 0 WQ ROW_BUFFER_HIT:       3390
  ROW_BUFFER_MISS:      23713
  FULL:          0
Channel 0 REFRESHES ISSUED:       1981

[ROI Statistics]
[System Configuration]
num_cpus 1
cpu_freq 4000
fetch_width 6
decode_width 6
dispatch_width 6
execute_width 6
lq_width 2
sq_width 2
retire_width 6
scheduler_size 128
branch_mispredict_penalty 15
rob_size 352
lq_size 128
sq_size 72
ifetch_buffer_size 64
decode_buffer_size 32
dispatch_buffer_size 32
register_file_size 288
decode_latency 1
dispatch_latency 1
schedule_latency 1
execute_latency 1
page_size 4096
block_size 64
core_0_itlb_set 16
core_0_itlb_way 4
core_0_itlb_rq_size 16
core_0_itlb_wq_size 16
core_0_itlb_pq_size 0
core_0_itlb_mshr_size 8
core_0_itlb_hit_latency 1
core_0_itlb_fill_latency 1
core_0_itlb_max_tag_check 2
core_0_itlb_max_fill 2
core_0_dtlb_set 16
core_0_dtlb_way 4
core_0_dtlb_rq_size 16
core_0_dtlb_wq_size 16
core_0_dtlb_pq_size 0
core_0_dtlb_mshr_size 8
core_0_dtlb_hit_latency 1
core_0_dtlb_fill_latency 1
core_0_dtlb_max_tag_check 2
core_0_dtlb_max_fill 2
core_0_stlb_set 128
core_0_stlb_way 12
core_0_stlb_rq_size 32
core_0_stlb_wq_size 32
core_0_stlb_pq_size 0
core_0_stlb_mshr_size 16
core_0_stlb_hit_latency 4
core_0_stlb_fill_latency 4
core_0_stlb_max_tag_check 1
core_0_stlb_max_fill 1
core_0_l1i_set 64
core_0_l1i_way 8
core_0_l1i_rq_size 64
core_0_l1i_wq_size 64
core_0_l1i_pq_size 32
core_0_l1i_mshr_size 8
core_0_l1i_hit_latency 2
core_0_l1i_fill_latency 2
core_0_l1i_max_tag_check 2
core_0_l1i_max_fill 2
core_0_l1d_set 64
core_0_l1d_way 12
core_0_l1d_rq_size 64
core_0_l1d_wq_size 64
core_0_l1d_pq_size 8
core_0_l1d_mshr_size 16
core_0_l1d_hit_latency 2
core_0_l1d_fill_latency 3
core_0_l1d_max_tag_check 2
core_0_l1d_max_fill 2
core_0_l2c_set 1024
core_0_l2c_way 8
core_0_l2c_rq_size 32
core_0_l2c_wq_size 32
core_0_l2c_pq_size 16
core_0_l2c_mshr_size 32
core_0_l2c_hit_latency 5
core_0_l2c_fill_latency 5
core_0_l2c_max_tag_check 1
core_0_l2c_max_fill 1
llc_set 2048
llc_way 16
llc_rq_size 32
llc_wq_size 32
llc_pq_size 32
llc_mshr_size 64
llc_hit_latency 10
llc_fill_latency 10
llc_max_tag_check 1
llc_max_fill 1
dram_channels 1
dram_ranks 1
dram_bankgroups 8
dram_banks 4
dram_rows 65536
dram_columns 1024
dram_channel_width 8
dram_rq_size 64
dram_wq_size 64
dram_size 17179869184
core_0_itlb_prefetcher no
core_0_dtlb_prefetcher no
core_0_stlb_prefetcher no
core_0_l1i_prefetcher next_line
core_0_l1d_prefetcher vberti
core_0_l2c_prefetcher ip_stride
llc_prefetcher no
llc_replacement drrip

Core_0_instructions 100000005
Core_0_cycles 23772283
Core_0_IPC 4.20658
Core_0_branch_prediction_accuracy 99.8774
Core_0_branch_MPKI 0.0765
Core_0_average_ROB_occupancy_at_mispredict 86.1673

Core_0_ITLB_total_access 10557781
Core_0_ITLB_total_hit 10557730
Core_0_ITLB_total_miss 51
Core_0_ITLB_total_MPKI 0.00051
Core_0_ITLB_total_miss_rate 4.83056e-06
Core_0_ITLB_demand_access 10557781
Core_0_ITLB_demand_hit 10557730
Core_0_ITLB_demand_miss 51
Core_0_ITLB_demand_MPKI 0.00051
Core_0_ITLB_demand_miss_rate 4.83056e-06
Core_0_ITLB_load_access 10557781
Core_0_ITLB_load_hit 10557730
Core_0_ITLB_load_miss 51
Core_0_ITLB_load_MPKI 0.00051
Core_0_ITLB_load_miss_rate 4.83056e-06
Core_0_ITLB_rfo_access 0
Core_0_ITLB_rfo_hit 0
Core_0_ITLB_rfo_miss 0
Core_0_ITLB_rfo_MPKI 0
Core_0_ITLB_rfo_miss_rate 0
Core_0_ITLB_prefetch_access 0
Core_0_ITLB_prefetch_hit 0
Core_0_ITLB_prefetch_miss 0
Core_0_ITLB_prefetch_MPKI 0
Core_0_ITLB_prefetch_miss_rate 0
Core_0_ITLB_writeback_access 0
Core_0_ITLB_writeback_hit 0
Core_0_ITLB_writeback_miss 0
Core_0_ITLB_writeback_MPKI 0
Core_0_ITLB_writeback_miss_rate 0
Core_0_ITLB_prefetch_requested 0
Core_0_ITLB_prefetch_issued 0
Core_0_ITLB_prefetch_useful 0
Core_0_ITLB_prefetch_useless 0
Core_0_ITLB_prefetch_late 0
Core_0_ITLB_prefetch_fill 0
Core_0_ITLB_prefetch_too_early 0
Core_0_ITLB_prefetch_too_early_among_fill 0
Core_0_ITLB_prefetch_too_early_among_useless 0
Core_0_ITLB_prefetch_pollution_evict 0
Core_0_ITLB_prefetch_pollution_demand 0
Core_0_ITLB_prefetch_pollution_among_prefetch_fill 0
Core_0_ITLB_prefetch_accuracy 0
Core_0_ITLB_prefetch_coverage 0

Core_0_DTLB_total_access 20561986
Core_0_DTLB_total_hit 20473516
Core_0_DTLB_total_miss 88470
Core_0_DTLB_total_MPKI 0.8847
Core_0_DTLB_total_miss_rate 0.0043026
Core_0_DTLB_demand_access 20561986
Core_0_DTLB_demand_hit 20473516
Core_0_DTLB_demand_miss 88470
Core_0_DTLB_demand_MPKI 0.8847
Core_0_DTLB_demand_miss_rate 0.0043026
Core_0_DTLB_load_access 20561986
Core_0_DTLB_load_hit 20473516
Core_0_DTLB_load_miss 88470
Core_0_DTLB_load_MPKI 0.8847
Core_0_DTLB_load_miss_rate 0.0043026
Core_0_DTLB_rfo_access 0
Core_0_DTLB_rfo_hit 0
Core_0_DTLB_rfo_miss 0
Core_0_DTLB_rfo_MPKI 0
Core_0_DTLB_rfo_miss_rate 0
Core_0_DTLB_prefetch_access 0
Core_0_DTLB_prefetch_hit 0
Core_0_DTLB_prefetch_miss 0
Core_0_DTLB_prefetch_MPKI 0
Core_0_DTLB_prefetch_miss_rate 0
Core_0_DTLB_writeback_access 0
Core_0_DTLB_writeback_hit 0
Core_0_DTLB_writeback_miss 0
Core_0_DTLB_writeback_MPKI 0
Core_0_DTLB_writeback_miss_rate 0
Core_0_DTLB_prefetch_requested 0
Core_0_DTLB_prefetch_issued 0
Core_0_DTLB_prefetch_useful 0
Core_0_DTLB_prefetch_useless 0
Core_0_DTLB_prefetch_late 0
Core_0_DTLB_prefetch_fill 0
Core_0_DTLB_prefetch_too_early 0
Core_0_DTLB_prefetch_too_early_among_fill 0
Core_0_DTLB_prefetch_too_early_among_useless 0
Core_0_DTLB_prefetch_pollution_evict 0
Core_0_DTLB_prefetch_pollution_demand 0
Core_0_DTLB_prefetch_pollution_among_prefetch_fill 0
Core_0_DTLB_prefetch_accuracy 0
Core_0_DTLB_prefetch_coverage 0

Core_0_STLB_total_access 59446
Core_0_STLB_total_hit 47440
Core_0_STLB_total_miss 12006
Core_0_STLB_total_MPKI 0.12006
Core_0_STLB_total_miss_rate 0.201965
Core_0_STLB_demand_access 59446
Core_0_STLB_demand_hit 47440
Core_0_STLB_demand_miss 12006
Core_0_STLB_demand_MPKI 0.12006
Core_0_STLB_demand_miss_rate 0.201965
Core_0_STLB_load_access 59446
Core_0_STLB_load_hit 47440
Core_0_STLB_load_miss 12006
Core_0_STLB_load_MPKI 0.12006
Core_0_STLB_load_miss_rate 0.201965
Core_0_STLB_rfo_access 0
Core_0_STLB_rfo_hit 0
Core_0_STLB_rfo_miss 0
Core_0_STLB_rfo_MPKI 0
Core_0_STLB_rfo_miss_rate 0
Core_0_STLB_prefetch_access 0
Core_0_STLB_prefetch_hit 0
Core_0_STLB_prefetch_miss 0
Core_0_STLB_prefetch_MPKI 0
Core_0_STLB_prefetch_miss_rate 0
Core_0_STLB_writeback_access 0
Core_0_STLB_writeback_hit 0
Core_0_STLB_writeback_miss 0
Core_0_STLB_writeback_MPKI 0
Core_0_STLB_writeback_miss_rate 0
Core_0_STLB_prefetch_requested 0
Core_0_STLB_prefetch_issued 0
Core_0_STLB_prefetch_useful 0
Core_0_STLB_prefetch_useless 0
Core_0_STLB_prefetch_late 0
Core_0_STLB_prefetch_fill 0
Core_0_STLB_prefetch_too_early 0
Core_0_STLB_prefetch_too_early_among_fill 0
Core_0_STLB_prefetch_too_early_among_useless 0
Core_0_STLB_prefetch_pollution_evict 0
Core_0_STLB_prefetch_pollution_demand 0
Core_0_STLB_prefetch_pollution_among_prefetch_fill 0
Core_0_STLB_prefetch_accuracy 0
Core_0_STLB_prefetch_coverage 0

Core_0_L1I_total_access 13085203
Core_0_L1I_total_hit 13084652
Core_0_L1I_total_miss 551
Core_0_L1I_total_MPKI 0.00551
Core_0_L1I_total_miss_rate 4.21086e-05
Core_0_L1I_demand_access 13085203
Core_0_L1I_demand_hit 13084652
Core_0_L1I_demand_miss 551
Core_0_L1I_demand_MPKI 0.00551
Core_0_L1I_demand_miss_rate 4.21086e-05
Core_0_L1I_load_access 13085203
Core_0_L1I_load_hit 13084652
Core_0_L1I_load_miss 551
Core_0_L1I_load_MPKI 0.00551
Core_0_L1I_load_miss_rate 4.21086e-05
Core_0_L1I_rfo_access 0
Core_0_L1I_rfo_hit 0
Core_0_L1I_rfo_miss 0
Core_0_L1I_rfo_MPKI 0
Core_0_L1I_rfo_miss_rate 0
Core_0_L1I_prefetch_access 0
Core_0_L1I_prefetch_hit 0
Core_0_L1I_prefetch_miss 0
Core_0_L1I_prefetch_MPKI 0
Core_0_L1I_prefetch_miss_rate 0
Core_0_L1I_writeback_access 0
Core_0_L1I_writeback_hit 0
Core_0_L1I_writeback_miss 0
Core_0_L1I_writeback_MPKI 0
Core_0_L1I_writeback_miss_rate 0
Core_0_L1I_prefetch_requested 0
Core_0_L1I_prefetch_issued 0
Core_0_L1I_prefetch_useful 0
Core_0_L1I_prefetch_useless 0
Core_0_L1I_prefetch_late 0
Core_0_L1I_prefetch_fill 0
Core_0_L1I_prefetch_too_early 0
Core_0_L1I_prefetch_too_early_among_fill 0
Core_0_L1I_prefetch_too_early_among_useless 0
Core_0_L1I_prefetch_pollution_evict 0
Core_0_L1I_prefetch_pollution_demand 0
Core_0_L1I_prefetch_pollution_among_prefetch_fill 0
Core_0_L1I_prefetch_accuracy 0
Core_0_L1I_prefetch_coverage 0

Core_0_L1D_total_access 25168665
Core_0_L1D_total_hit 23166643
Core_0_L1D_total_miss 2002022
Core_0_L1D_total_MPKI 20.0202
Core_0_L1D_total_miss_rate 0.0795442
Core_0_L1D_demand_access 13685045
Core_0_L1D_demand_hit 13466850
Core_0_L1D_demand_miss 218195
Core_0_L1D_demand_MPKI 2.18195
Core_0_L1D_demand_miss_rate 0.015944
Core_0_L1D_load_access 13685045
Core_0_L1D_load_hit 13466850
Core_0_L1D_load_miss 218195
Core_0_L1D_load_MPKI 2.18195
Core_0_L1D_load_miss_rate 0.015944
Core_0_L1D_rfo_access 0
Core_0_L1D_rfo_hit 0
Core_0_L1D_rfo_miss 0
Core_0_L1D_rfo_MPKI 0
Core_0_L1D_rfo_miss_rate 0
Core_0_L1D_prefetch_access 7603446
Core_0_L1D_prefetch_hit 5932370
Core_0_L1D_prefetch_miss 1671076
Core_0_L1D_prefetch_MPKI 16.7108
Core_0_L1D_prefetch_miss_rate 0.219779
Core_0_L1D_writeback_access 3880174
Core_0_L1D_writeback_hit 3767423
Core_0_L1D_writeback_miss 112751
Core_0_L1D_writeback_MPKI 1.12751
Core_0_L1D_writeback_miss_rate 0.0290582
Core_0_L1D_prefetch_requested 62402343
Core_0_L1D_prefetch_issued 7603444
Core_0_L1D_prefetch_useful 1182185
Core_0_L1D_prefetch_useless 9171
Core_0_L1D_prefetch_late 18124
Core_0_L1D_prefetch_fill 1173249
Core_0_L1D_prefetch_too_early 201
Core_0_L1D_prefetch_too_early_among_fill 0.000171319
Core_0_L1D_prefetch_too_early_among_useless 0.0219169
Core_0_L1D_prefetch_pollution_evict 3817
Core_0_L1D_prefetch_pollution_demand 3701
Core_0_L1D_prefetch_pollution_among_prefetch_fill 0.00325336
Core_0_L1D_prefetch_accuracy 0.15548
Core_0_L1D_prefetch_coverage 0.844189

Core_0_L2C_total_access 3272644
Core_0_L2C_total_hit 2160253
Core_0_L2C_total_miss 1112391
Core_0_L2C_total_MPKI 11.1239
Core_0_L2C_total_miss_rate 0.339906
Core_0_L2C_demand_access 132591
Core_0_L2C_demand_hit 84749
Core_0_L2C_demand_miss 47842
Core_0_L2C_demand_MPKI 0.47842
Core_0_L2C_demand_miss_rate 0.360824
Core_0_L2C_load_access 117659
Core_0_L2C_load_hit 79752
Core_0_L2C_load_miss 37907
Core_0_L2C_load_MPKI 0.37907
Core_0_L2C_load_miss_rate 0.322177
Core_0_L2C_rfo_access 14932
Core_0_L2C_rfo_hit 4997
Core_0_L2C_rfo_miss 9935
Core_0_L2C_rfo_MPKI 0.09935
Core_0_L2C_rfo_miss_rate 0.66535
Core_0_L2C_prefetch_access 2730429
Core_0_L2C_prefetch_hit 1668684
Core_0_L2C_prefetch_miss 1061745
Core_0_L2C_prefetch_MPKI 10.6174
Core_0_L2C_prefetch_miss_rate 0.388856
Core_0_L2C_writeback_access 409624
Core_0_L2C_writeback_hit 406820
Core_0_L2C_writeback_miss 2804
Core_0_L2C_writeback_MPKI 0.02804
Core_0_L2C_writeback_miss_rate 0.0068453
Core_0_L2C_prefetch_requested 1104558
Core_0_L2C_prefetch_issued 1084734
Core_0_L2C_prefetch_useful 194426
Core_0_L2C_prefetch_useless 13288
Core_0_L2C_prefetch_late 740
Core_0_L2C_prefetch_fill 700663
Core_0_L2C_prefetch_too_early 882
Core_0_L2C_prefetch_too_early_among_fill 0.00125881
Core_0_L2C_prefetch_too_early_among_useless 0.0663757
Core_0_L2C_prefetch_pollution_evict 17349
Core_0_L2C_prefetch_pollution_demand 17200
Core_0_L2C_prefetch_pollution_among_prefetch_fill 0.0247608
Core_0_L2C_prefetch_accuracy 0.179238
Core_0_L2C_prefetch_coverage 0.802524

Core_0_LLC_total_access 957774
Core_0_LLC_total_hit 825840
Core_0_LLC_total_miss 131934
Core_0_LLC_total_MPKI 1.31934
Core_0_LLC_total_miss_rate 0.137751
Core_0_LLC_demand_access 39672
Core_0_LLC_demand_hit 31845
Core_0_LLC_demand_miss 7827
Core_0_LLC_demand_MPKI 0.07827
Core_0_LLC_demand_miss_rate 0.197293
Core_0_LLC_load_access 36613
Core_0_LLC_load_hit 31126
Core_0_LLC_load_miss 5487
Core_0_LLC_load_MPKI 0.05487
Core_0_LLC_load_miss_rate 0.149865
Core_0_LLC_rfo_access 3059
Core_0_LLC_rfo_hit 719
Core_0_LLC_rfo_miss 2340
Core_0_LLC_rfo_MPKI 0.0234
Core_0_LLC_rfo_miss_rate 0.764956
Core_0_LLC_prefetch_access 716124
Core_0_LLC_prefetch_hit 602447
Core_0_LLC_prefetch_miss 113677
Core_0_LLC_prefetch_MPKI 1.13677
Core_0_LLC_prefetch_miss_rate 0.158739
Core_0_LLC_writeback_access 201978
Core_0_LLC_writeback_hit 191548
Core_0_LLC_writeback_miss 10430
Core_0_LLC_writeback_MPKI 0.1043
Core_0_LLC_writeback_miss_rate 0.0516393
Core_0_LLC_prefetch_requested 0
Core_0_LLC_prefetch_issued 0
Core_0_LLC_prefetch_useful 0
Core_0_LLC_prefetch_useless 0
Core_0_LLC_prefetch_late 0
Core_0_LLC_prefetch_fill 108404
Core_0_LLC_prefetch_too_early 0
Core_0_LLC_prefetch_too_early_among_fill 0
Core_0_LLC_prefetch_too_early_among_useless 0
Core_0_LLC_prefetch_pollution_evict 3156
Core_0_LLC_prefetch_pollution_demand 3156
Core_0_LLC_prefetch_pollution_among_prefetch_fill 0.0291133
Core_0_LLC_prefetch_accuracy 0
Core_0_LLC_prefetch_coverage 0

[DRAM Statistics]
Channel_0_RQ_row_buffer_hit 19150
Channel_0_RQ_row_buffer_miss 97383
Channel_0_WQ_row_buffer_hit 3390
Channel_0_WQ_row_buffer_miss 23713
Channel_0_WQ_full 0
Channel_0_dbus_congested 346087
DRAM_total_RQ_row_buffer_hit 19150
DRAM_total_RQ_row_buffer_miss 97383
DRAM_total_WQ_row_buffer_hit 3390
DRAM_total_WQ_row_buffer_miss 23713
DRAM_total_WQ_full 0
DRAM_total_dbus_congested 346087
DRAM_avg_congested_cycle 8.44398

====== DRAM_RQ_TRAFFIC ========
DRAM_RQ_READ_TRAFFIC_BREAKDOWN:
data_demand_read.count = 6979
data_demand_read.share = 5.99%

inst_demand_read.count = 465
inst_demand_read.share = 0.40%

cache_inst_prefetch.count = 0
cache_inst_prefetch.share = 0.00%

cache_data_prefetch.count = 108788
cache_data_prefetch.share = 93.35%

stlb_data_demand.count = 121
stlb_data_demand.share = 0.10%

stlb_inst_demand.count = 14
stlb_inst_demand.share = 0.01%

stlb_l1i_pref.count = 0
stlb_l1i_pref.share = 0.00%

stlb_l1d_pref.count = 173
stlb_l1d_pref.share = 0.15%

DRAM_RQ_READ_TRAFFIC_SUMMARY:
cache_demand.count = 7444
cache_demand.share = 6.39%

cache_prefetch.count = 108788
cache_prefetch.share = 93.35%

stlb_demand.count = 135
stlb_demand.share = 0.12%

stlb_prefetch.count = 173
stlb_prefetch.share = 0.15%

DRAM_RQ_READ_TRAFFIC_DEBUG:
total_classified_read.count = 116540
unclassified_read.count = 0
total_read_with_other.count = 116540

classified_plus_unclassified_check.count = 116540
dram_rq_read_total_observed.count = 116540
dram_rq_read_total_observed.per_1K_instructions = 1.1654

STLB_MISS_PTW_DRAM_TOUCH_BREAKDOWN:
stlb_miss_total.count = 11885

stlb_miss_touch_dram.count = 302
stlb_miss_touch_dram.share = 2.54%

stlb_miss_no_dram_touch.count = 11583
stlb_miss_no_dram_touch.share = 97.46%

STLB_MISS_PTW_DRAM_TOUCH_DEBUG:
stlb_miss_touch_plus_no_touch.count = 11885
stlb_miss_total_check.count = 11885

======STLB miss causes ========
Core_0_STLB_miss_cause_breakdown
Core_0_STLB_cause_Demand_Data_miss 326
Core_0_STLB_cause_Demand_Data_miss_rate 0.00548397
Core_0_STLB_cause_Demand_Instruction_miss 34
Core_0_STLB_cause_Demand_Instruction_miss_rate 0.000571948
Core_0_STLB_cause_L1D_Prefetch_miss 11646
Core_0_STLB_cause_L1D_Prefetch_miss_rate 0.195909
Core_0_STLB_cause_L1D_Prefetch_Same_Page_miss 0
Core_0_STLB_cause_L1D_Prefetch_Same_Page_miss_rate 0
Core_0_STLB_cause_L1D_Prefetch_Cross_Page_miss 11646
Core_0_STLB_cause_L1D_Prefetch_Cross_Page_miss_rate 0.195909
Core_0_STLB_cause_L1I_Prefetch_miss 0
Core_0_STLB_cause_L1I_Prefetch_miss_rate 0
Core_0_STLB_cause_Other_miss 0
Core_0_STLB_cause_Other_miss_rate 0
Core_0_STLB_Demand_miss 360
Core_0_STLB_Demand_miss_rate 0.00605592
Core_0_STLB_L1D_Prefetch_miss 11646
Core_0_STLB_L1D_Prefetch_miss_rate 0.195909
Core_0_STLB_Other_miss 0
Core_0_STLB_Other_miss_rate 0

========== vBerti-TLB Cross-page Flow Stats ==========

Core_0_vBerti_Requested 62402343
Core_0_vBerti_Cross_page_prefetch_in_Requested 13441646
Core_0_vBerti_Same_page_prefetch_in_Requested 48960697
Core_0_vBerti_Cross_page_prefetch_of_Requested 0.215403
Core_0_vBerti_Issued 7603444
Core_0_vBerti_PQ_Drop_Rate 0.878155
Core_0_vBerti_InPQ_Cross_page_prefetch_of_Requested 0.0151397
Core_0_vBerti_Cross_page_PQ_Drop_rate 0.929715
Core_0_vBerti_Cross_page_prefetch_of_Issued 0.124253

========= DTLB_vBerti Prefetch Stats =========
Core_0_DTLB_demand_access 15400763
Core_0_DTLB_demand_hit 15355169
Core_0_DTLB_demand_miss 45594
Core_0_DTLB_demand_mshr_merge 3893
Core_0_DTLB_demand_fill 41849
Core_0_DTLB_demand_miss_rate 0.0029605
Core_0_DTLB_demand_mpki 0.45594
Core_0_DTLB_vberti_prefetch_access 5161223
Core_0_DTLB_vberti_prefetch_hit 5118347
Core_0_DTLB_vberti_prefetch_miss 42876
Core_0_DTLB_vberti_prefetch_mshr_merge 25166
Core_0_DTLB_vberti_prefetch_fill 17562
Core_0_DTLB_vberti_prefetch_miss_rate 0.00830733
Core_0_DTLB_vberti_prefetch_mpki 0.42876

=== DTLB_vBerti Same/Cross-page Prefetch Stats ===
Core_0_DTLB_vberti_same_page_prefetch 4397867
Core_0_DTLB_vberti_same_page_prefetch_hit 4397867
Core_0_DTLB_vberti_same_page_prefetch_miss 0
Core_0_DTLB_vberti_same_page_prefetch_mshr_merge 0
Core_0_DTLB_vberti_same_page_prefetch_fill 0
Core_0_DTLB_vberti_same_page_prefetch_miss_rate 0
Core_0_DTLB_vberti_same_page_prefetch_mpki 0
Core_0_DTLB_vberti_cross_page_prefetch 763356
Core_0_DTLB_vberti_cross_page_prefetch_hit 720480
Core_0_DTLB_vberti_cross_page_prefetch_miss 42876
Core_0_DTLB_vberti_cross_page_prefetch_mshr_merge 25166
Core_0_DTLB_vberti_cross_page_prefetch_fill 17562
Core_0_DTLB_vberti_cross_page_prefetch_miss_rate 0.0561678
Core_0_DTLB_vberti_cross_page_prefetch_mpki 0.42876
Core_0_DTLB_same_page_prefetch_miss_rate 0
Core_0_DTLB_same_page_prefetch_mpki 0
Core_0_DTLB_cross_page_prefetch_miss_rate 0.0561678
Core_0_DTLB_cross_page_prefetch_mpki 0.42876
Core_0_DTLB_cross_page_prefetch_issued 763356
Core_0_DTLB_cross_page_prefetch_lookups 763356
Core_0_DTLB_cross_page_prefetch_useful 17498
Core_0_DTLB_cross_page_prefetch_useless 212
Core_0_DTLB_cross_page_prefetch_late 148
Core_0_DTLB_cross_page_prefetch_too_early 13
Core_0_DTLB_cross_page_prefetch_too_early_among_fill 0.000740235
Core_0_DTLB_cross_page_prefetch_too_early_among_useless 0.0613208
Core_0_DTLB_cross_page_prefetch_pollution_evict 1763
Core_0_DTLB_cross_page_prefetch_pollution_demand 1359
Core_0_DTLB_cross_page_prefetch_pollution_among_prefetch_fill 0.100387
Core_0_DTLB_cross_page_prefetch_accuracy 0.0229225
Core_0_DTLB_cross_page_prefetch_coverage 0.277341

========= STLB_vBerti Prefetch Stats =========
Core_0_STLB_demand_access 41736
Core_0_STLB_demand_hit 41376
Core_0_STLB_demand_miss 360
Core_0_STLB_demand_mshr_merge 0
Core_0_STLB_demand_fill 360
Core_0_STLB_demand_miss_rate 0.00862565
Core_0_STLB_demand_mpki 0.0036
Core_0_STLB_vberti_prefetch_access 17710
Core_0_STLB_vberti_prefetch_hit 6064
Core_0_STLB_vberti_prefetch_miss 11646
Core_0_STLB_vberti_prefetch_mshr_merge 0
Core_0_STLB_vberti_prefetch_fill 0
Core_0_STLB_vberti_prefetch_miss_rate 0.657595
Core_0_STLB_vberti_prefetch_mpki 0.11646

=== STLB_vBerti Same/Cross-page Prefetch Stats ===
Core_0_STLB_vberti_same_page_prefetch 0
Core_0_STLB_vberti_same_page_prefetch_hit 0
Core_0_STLB_vberti_same_page_prefetch_miss 0
Core_0_STLB_vberti_same_page_prefetch_mshr_merge 0
Core_0_STLB_vberti_same_page_prefetch_fill 0
Core_0_STLB_vberti_same_page_prefetch_miss_rate 0
Core_0_STLB_vberti_same_page_prefetch_mpki 0
Core_0_STLB_vberti_cross_page_prefetch 17710
Core_0_STLB_vberti_cross_page_prefetch_hit 6064
Core_0_STLB_vberti_cross_page_prefetch_miss 11646
Core_0_STLB_vberti_cross_page_prefetch_mshr_merge 0
Core_0_STLB_vberti_cross_page_prefetch_fill 0
Core_0_STLB_vberti_cross_page_prefetch_miss_rate 0.657595
Core_0_STLB_vberti_cross_page_prefetch_mpki 0.11646
Core_0_STLB_same_page_prefetch_miss_rate 0
Core_0_STLB_same_page_prefetch_mpki 0
Core_0_STLB_cross_page_prefetch_miss_rate 0.657595
Core_0_STLB_cross_page_prefetch_mpki 0.11646
Core_0_STLB_cross_page_prefetch_issued 17710
Core_0_STLB_cross_page_prefetch_lookups 17710
Core_0_STLB_cross_page_prefetch_useful 121
Core_0_STLB_cross_page_prefetch_useless 10605
Core_0_STLB_cross_page_prefetch_late 121
Core_0_STLB_cross_page_prefetch_too_early 0
Core_0_STLB_cross_page_prefetch_too_early_among_fill 0
Core_0_STLB_cross_page_prefetch_too_early_among_useless 0
Core_0_STLB_cross_page_prefetch_pollution_evict 0
Core_0_STLB_cross_page_prefetch_pollution_demand 0
Core_0_STLB_cross_page_prefetch_pollution_among_prefetch_fill 0
Core_0_STLB_cross_page_prefetch_accuracy 0.0068323
Core_0_STLB_cross_page_prefetch_coverage 0.251559

========= STLB Cross-page Prefetch Buffer Stats =========
Core_0_STLB_raw_demand_miss 326
Core_0_CP_PB_insert 11646
Core_0_CP_PB_demand_hit 121
Core_0_STLB_PB_demand_miss 205
Core_0_CP_PB_coverage 0.371166
Core_0_STLB_raw_demand_mpki 0.00326
Core_0_STLB_PB_demand_mpki 0.00205
Core_0_CP_PB_demand_hit_mpki 0.00121

Core_0_TLB_demand_miss_rate 2.33755e-05
Core_0_TLB_demand_mpki 0.0036
Core_0_TLB_same_page_prefetch_miss_rate 0
Core_0_TLB_same_page_prefetch_mpki 0
Core_0_TLB_cross_page_prefetch_miss_rate 0.0152563
Core_0_TLB_cross_page_prefetch_mpki 0.11646
Core_0_TLB_cross_page_prefetch_issued 763356
Core_0_TLB_cross_page_prefetch_lookups 763356
Core_0_TLB_cross_page_prefetch_useful 1115
Core_0_TLB_cross_page_prefetch_useless 168
Core_0_TLB_cross_page_prefetch_late 91
Core_0_TLB_cross_page_prefetch_too_early 3
Core_0_TLB_cross_page_prefetch_too_early_among_fill 0.000170823
Core_0_TLB_cross_page_prefetch_too_early_among_useless 0.0178571
Core_0_TLB_cross_page_prefetch_accuracy 0.00146066
Core_0_TLB_cross_page_prefetch_coverage 0.755932
BERTI TO_L1: 55252613 TO_L2: 38078080 TO_L2_BC_MSHR: 429392
BERTI AVG_LAT: 63.2331 NUM_TRACK_LATENCY: 1924338 NUM_CANT_TRACK_LATENCY: 0
BERTI CROSS_PAGE 21867803 NO_CROSS_PAGE: 71462890
BERTI FOUND_BERTI: 15746650 NO_FOUND_BERTI: 11169006
BERTI AVERAGE_ISSUED: 1.90339
