[VMEM] WARNING: physical memory size is smaller than virtual memory size.

*** ChampSim Multicore Out-of-Order Simulator ***
Warmup Instructions: 50000000
Simulation Instructions: 100000000
Number of CPUs: 1
Page size: 4096
Core 0: /data0/tzh/champsim_traces/SPEC06/459.GemsFDTD-1491B.champsimtrace.xz
VBerti Prefetcher
BERTI HASH ENTANGLING
BERTI IP MASK ffff
Off-chip DRAM Size: 16 GiB Channels: 1 Width: 64-bit Data Rate: 3205 MT/s
Warmup halting CPU 0 at instruction 50000002 cycle 10831321 for remainder of phase
Warmup finished CPU 0 instructions: 50000002 cycles: 10831321 cumulative IPC: 4.616 (Simulation time: 00 hr 02 min 35 sec)
Warmup complete CPU 0 instructions: 50000002 cycles: 10831321 cumulative IPC: 4.616 (Simulation time: 00 hr 02 min 35 sec)
Simulation finished CPU 0 instructions: 100000003 cycles: 95779728 cumulative IPC: 1.044 (Simulation time: 00 hr 17 min 10 sec)
Simulation complete CPU 0 instructions: 100000003 cycles: 95779728 cumulative IPC: 1.044 (Simulation time: 00 hr 17 min 10 sec)

ChampSim completed all CPUs

=== Simulation ===
CPU 0 runs /data0/tzh/champsim_traces/SPEC06/459.GemsFDTD-1491B.champsimtrace.xz

Region of Interest Statistics

CPU 0 cumulative IPC: 1.044 instructions: 100000003 cycles: 95779728
CPU 0 Branch Prediction Accuracy: 99.53% MPKI: 0.1139 Average ROB Occupancy at Mispredict: 349.6
Branch type MPKI
BRANCH_DIRECT_JUMP: 0
BRANCH_INDIRECT: 0
BRANCH_CONDITIONAL: 0.1139
BRANCH_DIRECT_CALL: 0
BRANCH_INDIRECT_CALL: 0
BRANCH_RETURN: 0

cpu0->cpu0_STLB TOTAL        ACCESS:      42734 HIT:       3206 MISS:      39528 MSHR_MERGE:          0
cpu0->cpu0_STLB LOAD         ACCESS:      42734 HIT:       3206 MISS:      39528 MSHR_MERGE:          0
cpu0->cpu0_STLB RFO          ACCESS:          0 HIT:          0 MISS:          0 MSHR_MERGE:          0
cpu0->cpu0_STLB PREFETCH     ACCESS:          0 HIT:          0 MISS:          0 MSHR_MERGE:          0
cpu0->cpu0_STLB WRITE        ACCESS:          0 HIT:          0 MISS:          0 MSHR_MERGE:          0
cpu0->cpu0_STLB TRANSLATION  ACCESS:          0 HIT:          0 MISS:          0 MSHR_MERGE:          0
cpu0->cpu0_STLB PREFETCH REQUESTED:          0 ISSUED:          0 USEFUL:          0 USELESS:          0 LATE:          0 TOO_EARLY:          0
cpu0->cpu0_STLB AVERAGE MISS LATENCY: 238.9 cycles
cpu0->cpu0_L2C TOTAL        ACCESS:    5778702 HIT:    1998844 MISS:    3779858 MSHR_MERGE:     822838
cpu0->cpu0_L2C LOAD         ACCESS:     442130 HIT:     158573 MISS:     283557 MSHR_MERGE:      13549
cpu0->cpu0_L2C RFO          ACCESS:          0 HIT:          0 MISS:          0 MSHR_MERGE:          0
cpu0->cpu0_L2C PREFETCH     ACCESS:    4409681 HIT:     919083 MISS:    3490598 MSHR_MERGE:     809289
cpu0->cpu0_L2C WRITE        ACCESS:     918065 HIT:     918065 MISS:          0 MSHR_MERGE:          0
cpu0->cpu0_L2C TRANSLATION  ACCESS:       8826 HIT:       3123 MISS:       5703 MSHR_MERGE:          0
cpu0->cpu0_L2C PREFETCH REQUESTED:    1558222 ISSUED:    1557039 USEFUL:     596889 USELESS:      81515 LATE:       5092 TOO_EARLY:       2459
cpu0->cpu0_L2C AVERAGE MISS LATENCY: 338.2 cycles
cpu0->cpu0_L1I TOTAL        ACCESS:   15964297 HIT:   15964297 MISS:          0 MSHR_MERGE:          0
cpu0->cpu0_L1I LOAD         ACCESS:   15964297 HIT:   15964297 MISS:          0 MSHR_MERGE:          0
cpu0->cpu0_L1I RFO          ACCESS:          0 HIT:          0 MISS:          0 MSHR_MERGE:          0
cpu0->cpu0_L1I PREFETCH     ACCESS:          0 HIT:          0 MISS:          0 MSHR_MERGE:          0
cpu0->cpu0_L1I WRITE        ACCESS:          0 HIT:          0 MISS:          0 MSHR_MERGE:          0
cpu0->cpu0_L1I TRANSLATION  ACCESS:          0 HIT:          0 MISS:          0 MSHR_MERGE:          0
cpu0->cpu0_L1I PREFETCH REQUESTED:          0 ISSUED:          0 USEFUL:          0 USELESS:          0 LATE:          0 TOO_EARLY:          0
cpu0->cpu0_L1I AVERAGE MISS LATENCY: - cycles
cpu0->cpu0_L1D TOTAL        ACCESS:   33217098 HIT:   28949955 MISS:    4267143 MSHR_MERGE:     938281
cpu0->cpu0_L1D LOAD         ACCESS:   17031905 HIT:   15719166 MISS:    1312739 MSHR_MERGE:     870609
cpu0->cpu0_L1D RFO          ACCESS:          0 HIT:          0 MISS:          0 MSHR_MERGE:          0
cpu0->cpu0_L1D PREFETCH     ACCESS:    8921338 HIT:    5975792 MISS:    2945546 MSHR_MERGE:      67640
cpu0->cpu0_L1D WRITE        ACCESS:    7186659 HIT:    7186659 MISS:          0 MSHR_MERGE:          0
cpu0->cpu0_L1D TRANSLATION  ACCESS:      77196 HIT:      68338 MISS:       8858 MSHR_MERGE:         32
cpu0->cpu0_L1D PREFETCH REQUESTED:   89413225 ISSUED:    8921338 USEFUL:    2008974 USELESS:     176925 LATE:     145457 TOO_EARLY:          0
cpu0->cpu0_L1D AVERAGE MISS LATENCY: 223.8 cycles
cpu0->cpu0_ITLB TOTAL        ACCESS:   13513891 HIT:   13513891 MISS:          0 MSHR_MERGE:          0
cpu0->cpu0_ITLB LOAD         ACCESS:   13513891 HIT:   13513891 MISS:          0 MSHR_MERGE:          0
cpu0->cpu0_ITLB RFO          ACCESS:          0 HIT:          0 MISS:          0 MSHR_MERGE:          0
cpu0->cpu0_ITLB PREFETCH     ACCESS:          0 HIT:          0 MISS:          0 MSHR_MERGE:          0
cpu0->cpu0_ITLB WRITE        ACCESS:          0 HIT:          0 MISS:          0 MSHR_MERGE:          0
cpu0->cpu0_ITLB TRANSLATION  ACCESS:          0 HIT:          0 MISS:          0 MSHR_MERGE:          0
cpu0->cpu0_ITLB PREFETCH REQUESTED:          0 ISSUED:          0 USEFUL:          0 USELESS:          0 LATE:          0 TOO_EARLY:          0
cpu0->cpu0_ITLB AVERAGE MISS LATENCY: - cycles
cpu0->cpu0_DTLB TOTAL        ACCESS:   30810024 HIT:   30700847 MISS:     109177 MSHR_MERGE:      66443
cpu0->cpu0_DTLB LOAD         ACCESS:   30810024 HIT:   30700847 MISS:     109177 MSHR_MERGE:      66443
cpu0->cpu0_DTLB RFO          ACCESS:          0 HIT:          0 MISS:          0 MSHR_MERGE:          0
cpu0->cpu0_DTLB PREFETCH     ACCESS:          0 HIT:          0 MISS:          0 MSHR_MERGE:          0
cpu0->cpu0_DTLB WRITE        ACCESS:          0 HIT:          0 MISS:          0 MSHR_MERGE:          0
cpu0->cpu0_DTLB TRANSLATION  ACCESS:          0 HIT:          0 MISS:          0 MSHR_MERGE:          0
cpu0->cpu0_DTLB PREFETCH REQUESTED:          0 ISSUED:          0 USEFUL:          0 USELESS:          0 LATE:          0 TOO_EARLY:          0
cpu0->cpu0_DTLB AVERAGE MISS LATENCY: 221.6 cycles
cpu0->LLC TOTAL        ACCESS:    3875202 HIT:     839132 MISS:    3036070 MSHR_MERGE:     119710
cpu0->LLC LOAD         ACCESS:     270008 HIT:      22610 MISS:     247398 MSHR_MERGE:        371
cpu0->LLC RFO          ACCESS:          0 HIT:          0 MISS:          0 MSHR_MERGE:          0
cpu0->LLC PREFETCH     ACCESS:    2681137 HIT:     191085 MISS:    2490052 MSHR_MERGE:     119339
cpu0->LLC WRITE        ACCESS:     918354 HIT:     625364 MISS:     292990 MSHR_MERGE:          0
cpu0->LLC TRANSLATION  ACCESS:       5703 HIT:         73 MISS:       5630 MSHR_MERGE:          0
cpu0->LLC PREFETCH REQUESTED:          0 ISSUED:          0 USEFUL:          0 USELESS:          0 LATE:          0 TOO_EARLY:          0
cpu0->LLC AVERAGE MISS LATENCY: 168.8 cycles

DRAM Statistics

Channel 0 RQ ROW_BUFFER_HIT:      65428
  ROW_BUFFER_MISS:    2557939
  AVG DBUS CONGESTED CYCLE: 5.886
Channel 0 WQ ROW_BUFFER_HIT:     109637
  ROW_BUFFER_MISS:     823158
  FULL:          0
Channel 0 REFRESHES ISSUED:       7982

[ROI Statistics]
[System Configuration]
num_cpus 1
cpu_freq 4000
fetch_width 6
decode_width 6
dispatch_width 6
execute_width 6
lq_width 2
sq_width 2
retire_width 6
scheduler_size 128
branch_mispredict_penalty 15
rob_size 352
lq_size 128
sq_size 72
ifetch_buffer_size 64
decode_buffer_size 32
dispatch_buffer_size 32
register_file_size 288
decode_latency 1
dispatch_latency 1
schedule_latency 1
execute_latency 1
page_size 4096
block_size 64
core_0_itlb_set 16
core_0_itlb_way 4
core_0_itlb_rq_size 16
core_0_itlb_wq_size 16
core_0_itlb_pq_size 0
core_0_itlb_mshr_size 8
core_0_itlb_hit_latency 1
core_0_itlb_fill_latency 1
core_0_itlb_max_tag_check 2
core_0_itlb_max_fill 2
core_0_dtlb_set 16
core_0_dtlb_way 4
core_0_dtlb_rq_size 16
core_0_dtlb_wq_size 16
core_0_dtlb_pq_size 0
core_0_dtlb_mshr_size 8
core_0_dtlb_hit_latency 1
core_0_dtlb_fill_latency 1
core_0_dtlb_max_tag_check 2
core_0_dtlb_max_fill 2
core_0_stlb_set 128
core_0_stlb_way 12
core_0_stlb_rq_size 32
core_0_stlb_wq_size 32
core_0_stlb_pq_size 0
core_0_stlb_mshr_size 16
core_0_stlb_hit_latency 4
core_0_stlb_fill_latency 4
core_0_stlb_max_tag_check 1
core_0_stlb_max_fill 1
core_0_l1i_set 64
core_0_l1i_way 8
core_0_l1i_rq_size 64
core_0_l1i_wq_size 64
core_0_l1i_pq_size 32
core_0_l1i_mshr_size 8
core_0_l1i_hit_latency 2
core_0_l1i_fill_latency 2
core_0_l1i_max_tag_check 2
core_0_l1i_max_fill 2
core_0_l1d_set 64
core_0_l1d_way 12
core_0_l1d_rq_size 64
core_0_l1d_wq_size 64
core_0_l1d_pq_size 8
core_0_l1d_mshr_size 16
core_0_l1d_hit_latency 2
core_0_l1d_fill_latency 3
core_0_l1d_max_tag_check 2
core_0_l1d_max_fill 2
core_0_l2c_set 1024
core_0_l2c_way 8
core_0_l2c_rq_size 32
core_0_l2c_wq_size 32
core_0_l2c_pq_size 16
core_0_l2c_mshr_size 32
core_0_l2c_hit_latency 5
core_0_l2c_fill_latency 5
core_0_l2c_max_tag_check 1
core_0_l2c_max_fill 1
llc_set 2048
llc_way 16
llc_rq_size 32
llc_wq_size 32
llc_pq_size 32
llc_mshr_size 64
llc_hit_latency 10
llc_fill_latency 10
llc_max_tag_check 1
llc_max_fill 1
dram_channels 1
dram_ranks 1
dram_bankgroups 8
dram_banks 4
dram_rows 65536
dram_columns 1024
dram_channel_width 8
dram_rq_size 64
dram_wq_size 64
dram_size 17179869184
core_0_itlb_prefetcher no
core_0_dtlb_prefetcher no
core_0_stlb_prefetcher no
core_0_l1i_prefetcher next_line
core_0_l1d_prefetcher vberti
core_0_l2c_prefetcher ip_stride
llc_prefetcher no
llc_replacement drrip

Core_0_instructions 100000003
Core_0_cycles 95779728
Core_0_IPC 1.04406
Core_0_branch_prediction_accuracy 99.5261
Core_0_branch_MPKI 0.11387
Core_0_average_ROB_occupancy_at_mispredict 349.608

Core_0_ITLB_total_access 13513891
Core_0_ITLB_total_hit 13513891
Core_0_ITLB_total_miss 0
Core_0_ITLB_total_MPKI 0
Core_0_ITLB_total_miss_rate 0
Core_0_ITLB_demand_access 13513891
Core_0_ITLB_demand_hit 13513891
Core_0_ITLB_demand_miss 0
Core_0_ITLB_demand_MPKI 0
Core_0_ITLB_demand_miss_rate 0
Core_0_ITLB_load_access 13513891
Core_0_ITLB_load_hit 13513891
Core_0_ITLB_load_miss 0
Core_0_ITLB_load_MPKI 0
Core_0_ITLB_load_miss_rate 0
Core_0_ITLB_rfo_access 0
Core_0_ITLB_rfo_hit 0
Core_0_ITLB_rfo_miss 0
Core_0_ITLB_rfo_MPKI 0
Core_0_ITLB_rfo_miss_rate 0
Core_0_ITLB_prefetch_access 0
Core_0_ITLB_prefetch_hit 0
Core_0_ITLB_prefetch_miss 0
Core_0_ITLB_prefetch_MPKI 0
Core_0_ITLB_prefetch_miss_rate 0
Core_0_ITLB_writeback_access 0
Core_0_ITLB_writeback_hit 0
Core_0_ITLB_writeback_miss 0
Core_0_ITLB_writeback_MPKI 0
Core_0_ITLB_writeback_miss_rate 0
Core_0_ITLB_prefetch_requested 0
Core_0_ITLB_prefetch_issued 0
Core_0_ITLB_prefetch_useful 0
Core_0_ITLB_prefetch_useless 0
Core_0_ITLB_prefetch_late 0
Core_0_ITLB_prefetch_fill 0
Core_0_ITLB_prefetch_too_early 0
Core_0_ITLB_prefetch_too_early_among_fill 0
Core_0_ITLB_prefetch_too_early_among_useless 0
Core_0_ITLB_prefetch_pollution_evict 0
Core_0_ITLB_prefetch_pollution_demand 0
Core_0_ITLB_prefetch_pollution_among_prefetch_fill 0
Core_0_ITLB_prefetch_accuracy 0
Core_0_ITLB_prefetch_coverage 0

Core_0_DTLB_total_access 30810024
Core_0_DTLB_total_hit 30700847
Core_0_DTLB_total_miss 109177
Core_0_DTLB_total_MPKI 1.09177
Core_0_DTLB_total_miss_rate 0.00354355
Core_0_DTLB_demand_access 30810024
Core_0_DTLB_demand_hit 30700847
Core_0_DTLB_demand_miss 109177
Core_0_DTLB_demand_MPKI 1.09177
Core_0_DTLB_demand_miss_rate 0.00354355
Core_0_DTLB_load_access 30810024
Core_0_DTLB_load_hit 30700847
Core_0_DTLB_load_miss 109177
Core_0_DTLB_load_MPKI 1.09177
Core_0_DTLB_load_miss_rate 0.00354355
Core_0_DTLB_rfo_access 0
Core_0_DTLB_rfo_hit 0
Core_0_DTLB_rfo_miss 0
Core_0_DTLB_rfo_MPKI 0
Core_0_DTLB_rfo_miss_rate 0
Core_0_DTLB_prefetch_access 0
Core_0_DTLB_prefetch_hit 0
Core_0_DTLB_prefetch_miss 0
Core_0_DTLB_prefetch_MPKI 0
Core_0_DTLB_prefetch_miss_rate 0
Core_0_DTLB_writeback_access 0
Core_0_DTLB_writeback_hit 0
Core_0_DTLB_writeback_miss 0
Core_0_DTLB_writeback_MPKI 0
Core_0_DTLB_writeback_miss_rate 0
Core_0_DTLB_prefetch_requested 0
Core_0_DTLB_prefetch_issued 0
Core_0_DTLB_prefetch_useful 0
Core_0_DTLB_prefetch_useless 0
Core_0_DTLB_prefetch_late 0
Core_0_DTLB_prefetch_fill 0
Core_0_DTLB_prefetch_too_early 0
Core_0_DTLB_prefetch_too_early_among_fill 0
Core_0_DTLB_prefetch_too_early_among_useless 0
Core_0_DTLB_prefetch_pollution_evict 0
Core_0_DTLB_prefetch_pollution_demand 0
Core_0_DTLB_prefetch_pollution_among_prefetch_fill 0
Core_0_DTLB_prefetch_accuracy 0
Core_0_DTLB_prefetch_coverage 0

Core_0_STLB_total_access 42734
Core_0_STLB_total_hit 3206
Core_0_STLB_total_miss 39528
Core_0_STLB_total_MPKI 0.39528
Core_0_STLB_total_miss_rate 0.924978
Core_0_STLB_demand_access 42734
Core_0_STLB_demand_hit 3206
Core_0_STLB_demand_miss 39528
Core_0_STLB_demand_MPKI 0.39528
Core_0_STLB_demand_miss_rate 0.924978
Core_0_STLB_load_access 42734
Core_0_STLB_load_hit 3206
Core_0_STLB_load_miss 39528
Core_0_STLB_load_MPKI 0.39528
Core_0_STLB_load_miss_rate 0.924978
Core_0_STLB_rfo_access 0
Core_0_STLB_rfo_hit 0
Core_0_STLB_rfo_miss 0
Core_0_STLB_rfo_MPKI 0
Core_0_STLB_rfo_miss_rate 0
Core_0_STLB_prefetch_access 0
Core_0_STLB_prefetch_hit 0
Core_0_STLB_prefetch_miss 0
Core_0_STLB_prefetch_MPKI 0
Core_0_STLB_prefetch_miss_rate 0
Core_0_STLB_writeback_access 0
Core_0_STLB_writeback_hit 0
Core_0_STLB_writeback_miss 0
Core_0_STLB_writeback_MPKI 0
Core_0_STLB_writeback_miss_rate 0
Core_0_STLB_prefetch_requested 0
Core_0_STLB_prefetch_issued 0
Core_0_STLB_prefetch_useful 0
Core_0_STLB_prefetch_useless 0
Core_0_STLB_prefetch_late 0
Core_0_STLB_prefetch_fill 0
Core_0_STLB_prefetch_too_early 0
Core_0_STLB_prefetch_too_early_among_fill 0
Core_0_STLB_prefetch_too_early_among_useless 0
Core_0_STLB_prefetch_pollution_evict 0
Core_0_STLB_prefetch_pollution_demand 0
Core_0_STLB_prefetch_pollution_among_prefetch_fill 0
Core_0_STLB_prefetch_accuracy 0
Core_0_STLB_prefetch_coverage 0

Core_0_L1I_total_access 15964297
Core_0_L1I_total_hit 15964297
Core_0_L1I_total_miss 0
Core_0_L1I_total_MPKI 0
Core_0_L1I_total_miss_rate 0
Core_0_L1I_demand_access 15964297
Core_0_L1I_demand_hit 15964297
Core_0_L1I_demand_miss 0
Core_0_L1I_demand_MPKI 0
Core_0_L1I_demand_miss_rate 0
Core_0_L1I_load_access 15964297
Core_0_L1I_load_hit 15964297
Core_0_L1I_load_miss 0
Core_0_L1I_load_MPKI 0
Core_0_L1I_load_miss_rate 0
Core_0_L1I_rfo_access 0
Core_0_L1I_rfo_hit 0
Core_0_L1I_rfo_miss 0
Core_0_L1I_rfo_MPKI 0
Core_0_L1I_rfo_miss_rate 0
Core_0_L1I_prefetch_access 0
Core_0_L1I_prefetch_hit 0
Core_0_L1I_prefetch_miss 0
Core_0_L1I_prefetch_MPKI 0
Core_0_L1I_prefetch_miss_rate 0
Core_0_L1I_writeback_access 0
Core_0_L1I_writeback_hit 0
Core_0_L1I_writeback_miss 0
Core_0_L1I_writeback_MPKI 0
Core_0_L1I_writeback_miss_rate 0
Core_0_L1I_prefetch_requested 0
Core_0_L1I_prefetch_issued 0
Core_0_L1I_prefetch_useful 0
Core_0_L1I_prefetch_useless 0
Core_0_L1I_prefetch_late 0
Core_0_L1I_prefetch_fill 0
Core_0_L1I_prefetch_too_early 0
Core_0_L1I_prefetch_too_early_among_fill 0
Core_0_L1I_prefetch_too_early_among_useless 0
Core_0_L1I_prefetch_pollution_evict 0
Core_0_L1I_prefetch_pollution_demand 0
Core_0_L1I_prefetch_pollution_among_prefetch_fill 0
Core_0_L1I_prefetch_accuracy 0
Core_0_L1I_prefetch_coverage 0

Core_0_L1D_total_access 33139902
Core_0_L1D_total_hit 28881617
Core_0_L1D_total_miss 4258285
Core_0_L1D_total_MPKI 42.5828
Core_0_L1D_total_miss_rate 0.128494
Core_0_L1D_demand_access 17031905
Core_0_L1D_demand_hit 15719166
Core_0_L1D_demand_miss 1312739
Core_0_L1D_demand_MPKI 13.1274
Core_0_L1D_demand_miss_rate 0.0770753
Core_0_L1D_load_access 17031905
Core_0_L1D_load_hit 15719166
Core_0_L1D_load_miss 1312739
Core_0_L1D_load_MPKI 13.1274
Core_0_L1D_load_miss_rate 0.0770753
Core_0_L1D_rfo_access 0
Core_0_L1D_rfo_hit 0
Core_0_L1D_rfo_miss 0
Core_0_L1D_rfo_MPKI 0
Core_0_L1D_rfo_miss_rate 0
Core_0_L1D_prefetch_access 8921338
Core_0_L1D_prefetch_hit 5975792
Core_0_L1D_prefetch_miss 2945546
Core_0_L1D_prefetch_MPKI 29.4555
Core_0_L1D_prefetch_miss_rate 0.330169
Core_0_L1D_writeback_access 7186659
Core_0_L1D_writeback_hit 7186659
Core_0_L1D_writeback_miss 0
Core_0_L1D_writeback_MPKI 0
Core_0_L1D_writeback_miss_rate 0
Core_0_L1D_prefetch_requested 89413225
Core_0_L1D_prefetch_issued 8921338
Core_0_L1D_prefetch_useful 2008974
Core_0_L1D_prefetch_useless 176925
Core_0_L1D_prefetch_late 145457
Core_0_L1D_prefetch_fill 2040485
Core_0_L1D_prefetch_too_early 0
Core_0_L1D_prefetch_too_early_among_fill 0
Core_0_L1D_prefetch_too_early_among_useless 0
Core_0_L1D_prefetch_pollution_evict 0
Core_0_L1D_prefetch_pollution_demand 0
Core_0_L1D_prefetch_pollution_among_prefetch_fill 0
Core_0_L1D_prefetch_accuracy 0.225188
Core_0_L1D_prefetch_coverage 0.604801

Core_0_L2C_total_access 5769876
Core_0_L2C_total_hit 1995721
Core_0_L2C_total_miss 3774155
Core_0_L2C_total_MPKI 37.7415
Core_0_L2C_total_miss_rate 0.654114
Core_0_L2C_demand_access 442130
Core_0_L2C_demand_hit 158573
Core_0_L2C_demand_miss 283557
Core_0_L2C_demand_MPKI 2.83557
Core_0_L2C_demand_miss_rate 0.641343
Core_0_L2C_load_access 442130
Core_0_L2C_load_hit 158573
Core_0_L2C_load_miss 283557
Core_0_L2C_load_MPKI 2.83557
Core_0_L2C_load_miss_rate 0.641343
Core_0_L2C_rfo_access 0
Core_0_L2C_rfo_hit 0
Core_0_L2C_rfo_miss 0
Core_0_L2C_rfo_MPKI 0
Core_0_L2C_rfo_miss_rate 0
Core_0_L2C_prefetch_access 4409681
Core_0_L2C_prefetch_hit 919083
Core_0_L2C_prefetch_miss 3490598
Core_0_L2C_prefetch_MPKI 34.906
Core_0_L2C_prefetch_miss_rate 0.791576
Core_0_L2C_writeback_access 918065
Core_0_L2C_writeback_hit 918065
Core_0_L2C_writeback_miss 0
Core_0_L2C_writeback_MPKI 0
Core_0_L2C_writeback_miss_rate 0
Core_0_L2C_prefetch_requested 1558222
Core_0_L2C_prefetch_issued 1557039
Core_0_L2C_prefetch_useful 596889
Core_0_L2C_prefetch_useless 81515
Core_0_L2C_prefetch_late 5092
Core_0_L2C_prefetch_fill 2369046
Core_0_L2C_prefetch_too_early 2459
Core_0_L2C_prefetch_too_early_among_fill 0.00103797
Core_0_L2C_prefetch_too_early_among_useless 0.0301662
Core_0_L2C_prefetch_pollution_evict 1818
Core_0_L2C_prefetch_pollution_demand 1811
Core_0_L2C_prefetch_pollution_among_prefetch_fill 0.000767398
Core_0_L2C_prefetch_accuracy 0.383349
Core_0_L2C_prefetch_coverage 0.677939

Core_0_LLC_total_access 3869499
Core_0_LLC_total_hit 839059
Core_0_LLC_total_miss 3030440
Core_0_LLC_total_MPKI 30.3044
Core_0_LLC_total_miss_rate 0.783161
Core_0_LLC_demand_access 270008
Core_0_LLC_demand_hit 22610
Core_0_LLC_demand_miss 247398
Core_0_LLC_demand_MPKI 2.47398
Core_0_LLC_demand_miss_rate 0.916262
Core_0_LLC_load_access 270008
Core_0_LLC_load_hit 22610
Core_0_LLC_load_miss 247398
Core_0_LLC_load_MPKI 2.47398
Core_0_LLC_load_miss_rate 0.916262
Core_0_LLC_rfo_access 0
Core_0_LLC_rfo_hit 0
Core_0_LLC_rfo_miss 0
Core_0_LLC_rfo_MPKI 0
Core_0_LLC_rfo_miss_rate 0
Core_0_LLC_prefetch_access 2681137
Core_0_LLC_prefetch_hit 191085
Core_0_LLC_prefetch_miss 2490052
Core_0_LLC_prefetch_MPKI 24.9005
Core_0_LLC_prefetch_miss_rate 0.92873
Core_0_LLC_writeback_access 918354
Core_0_LLC_writeback_hit 625364
Core_0_LLC_writeback_miss 292990
Core_0_LLC_writeback_MPKI 2.9299
Core_0_LLC_writeback_miss_rate 0.319038
Core_0_LLC_prefetch_requested 0
Core_0_LLC_prefetch_issued 0
Core_0_LLC_prefetch_useful 0
Core_0_LLC_prefetch_useless 0
Core_0_LLC_prefetch_late 0
Core_0_LLC_prefetch_fill 2370342
Core_0_LLC_prefetch_too_early 0
Core_0_LLC_prefetch_too_early_among_fill 0
Core_0_LLC_prefetch_too_early_among_useless 0
Core_0_LLC_prefetch_pollution_evict 41935
Core_0_LLC_prefetch_pollution_demand 41935
Core_0_LLC_prefetch_pollution_among_prefetch_fill 0.0176915
Core_0_LLC_prefetch_accuracy 0
Core_0_LLC_prefetch_coverage 0

[DRAM Statistics]
Channel_0_RQ_row_buffer_hit 65428
Channel_0_RQ_row_buffer_miss 2557939
Channel_0_WQ_row_buffer_hit 109637
Channel_0_WQ_row_buffer_miss 823158
Channel_0_WQ_full 0
Channel_0_dbus_congested 10231949
DRAM_total_RQ_row_buffer_hit 65428
DRAM_total_RQ_row_buffer_miss 2557939
DRAM_total_WQ_row_buffer_hit 109637
DRAM_total_WQ_row_buffer_miss 823158
DRAM_total_WQ_full 0
DRAM_total_dbus_congested 10231949
DRAM_avg_congested_cycle 5.88617

====== DRAM_RQ_TRAFFIC ========
DRAM_RQ_READ_TRAFFIC_BREAKDOWN:
data_demand_read.count = 247027
data_demand_read.share = 9.42%

inst_demand_read.count = 0
inst_demand_read.share = 0.00%

cache_inst_prefetch.count = 0
cache_inst_prefetch.share = 0.00%

cache_data_prefetch.count = 2370713
cache_data_prefetch.share = 90.37%

stlb_data_demand.count = 775
stlb_data_demand.share = 0.03%

stlb_inst_demand.count = 0
stlb_inst_demand.share = 0.00%

stlb_l1i_pref.count = 0
stlb_l1i_pref.share = 0.00%

stlb_l1d_pref.count = 4855
stlb_l1d_pref.share = 0.19%

DRAM_RQ_READ_TRAFFIC_SUMMARY:
cache_demand.count = 247027
cache_demand.share = 9.42%

cache_prefetch.count = 2370713
cache_prefetch.share = 90.37%

stlb_demand.count = 775
stlb_demand.share = 0.03%

stlb_prefetch.count = 4855
stlb_prefetch.share = 0.19%

DRAM_RQ_READ_TRAFFIC_DEBUG:
total_classified_read.count = 2623370
unclassified_read.count = 0
total_read_with_other.count = 2623370

classified_plus_unclassified_check.count = 2623370
dram_rq_read_total_observed.count = 2623370
dram_rq_read_total_observed.per_1K_instructions = 26.2337

STLB_MISS_PTW_DRAM_TOUCH_BREAKDOWN:
stlb_miss_total.count = 38582

stlb_miss_touch_dram.count = 5563
stlb_miss_touch_dram.share = 14.42%

stlb_miss_no_dram_touch.count = 33019
stlb_miss_no_dram_touch.share = 85.58%

STLB_MISS_PTW_DRAM_TOUCH_DEBUG:
stlb_miss_touch_plus_no_touch.count = 38582
stlb_miss_total_check.count = 38582

======STLB miss causes ========
Core_0_STLB_miss_cause_breakdown
Core_0_STLB_cause_Demand_Data_miss 4755
Core_0_STLB_cause_Demand_Data_miss_rate 0.11127
Core_0_STLB_cause_Demand_Instruction_miss 0
Core_0_STLB_cause_Demand_Instruction_miss_rate 0
Core_0_STLB_cause_L1D_Prefetch_miss 34773
Core_0_STLB_cause_L1D_Prefetch_miss_rate 0.813708
Core_0_STLB_cause_L1D_Prefetch_Same_Page_miss 0
Core_0_STLB_cause_L1D_Prefetch_Same_Page_miss_rate 0
Core_0_STLB_cause_L1D_Prefetch_Cross_Page_miss 34773
Core_0_STLB_cause_L1D_Prefetch_Cross_Page_miss_rate 0.813708
Core_0_STLB_cause_L1I_Prefetch_miss 0
Core_0_STLB_cause_L1I_Prefetch_miss_rate 0
Core_0_STLB_cause_Other_miss 0
Core_0_STLB_cause_Other_miss_rate 0
Core_0_STLB_Demand_miss 4755
Core_0_STLB_Demand_miss_rate 0.11127
Core_0_STLB_L1D_Prefetch_miss 34773
Core_0_STLB_L1D_Prefetch_miss_rate 0.813708
Core_0_STLB_Other_miss 0
Core_0_STLB_Other_miss_rate 0

========== vBerti-TLB Cross-page Flow Stats ==========

Core_0_vBerti_Requested 89413225
Core_0_vBerti_Cross_page_prefetch_in_Requested 7200973
Core_0_vBerti_Same_page_prefetch_in_Requested 82212252
Core_0_vBerti_Cross_page_prefetch_of_Requested 0.0805359
Core_0_vBerti_Issued 8921338
Core_0_vBerti_PQ_Drop_Rate 0.900224
Core_0_vBerti_InPQ_Cross_page_prefetch_of_Requested 0.00591598
Core_0_vBerti_Cross_page_PQ_Drop_rate 0.926542
Core_0_vBerti_Cross_page_prefetch_of_Issued 0.0592923

========= DTLB_vBerti Prefetch Stats =========
Core_0_DTLB_demand_access 23473083
Core_0_DTLB_demand_hit 23451541
Core_0_DTLB_demand_miss 21542
Core_0_DTLB_demand_mshr_merge 16016
Core_0_DTLB_demand_fill 8455
Core_0_DTLB_demand_miss_rate 0.000917732
Core_0_DTLB_demand_mpki 0.21542
Core_0_DTLB_vberti_prefetch_access 7336941
Core_0_DTLB_vberti_prefetch_hit 7249306
Core_0_DTLB_vberti_prefetch_miss 87635
Core_0_DTLB_vberti_prefetch_mshr_merge 50427
Core_0_DTLB_vberti_prefetch_fill 34279
Core_0_DTLB_vberti_prefetch_miss_rate 0.0119444
Core_0_DTLB_vberti_prefetch_mpki 0.87635

=== DTLB_vBerti Same/Cross-page Prefetch Stats ===
Core_0_DTLB_vberti_same_page_prefetch 6872152
Core_0_DTLB_vberti_same_page_prefetch_hit 6872152
Core_0_DTLB_vberti_same_page_prefetch_miss 0
Core_0_DTLB_vberti_same_page_prefetch_mshr_merge 0
Core_0_DTLB_vberti_same_page_prefetch_fill 0
Core_0_DTLB_vberti_same_page_prefetch_miss_rate 0
Core_0_DTLB_vberti_same_page_prefetch_mpki 0
Core_0_DTLB_vberti_cross_page_prefetch 464789
Core_0_DTLB_vberti_cross_page_prefetch_hit 377154
Core_0_DTLB_vberti_cross_page_prefetch_miss 87635
Core_0_DTLB_vberti_cross_page_prefetch_mshr_merge 50427
Core_0_DTLB_vberti_cross_page_prefetch_fill 34279
Core_0_DTLB_vberti_cross_page_prefetch_miss_rate 0.188548
Core_0_DTLB_vberti_cross_page_prefetch_mpki 0.87635
Core_0_DTLB_same_page_prefetch_miss_rate 0
Core_0_DTLB_same_page_prefetch_mpki 0
Core_0_DTLB_cross_page_prefetch_miss_rate 0.188548
Core_0_DTLB_cross_page_prefetch_mpki 0.87635
Core_0_DTLB_cross_page_prefetch_issued 464789
Core_0_DTLB_cross_page_prefetch_lookups 464789
Core_0_DTLB_cross_page_prefetch_useful 36496
Core_0_DTLB_cross_page_prefetch_useless 712
Core_0_DTLB_cross_page_prefetch_late 2929
Core_0_DTLB_cross_page_prefetch_too_early 199
Core_0_DTLB_cross_page_prefetch_too_early_among_fill 0.0058053
Core_0_DTLB_cross_page_prefetch_too_early_among_useless 0.279494
Core_0_DTLB_cross_page_prefetch_pollution_evict 96
Core_0_DTLB_cross_page_prefetch_pollution_demand 0
Core_0_DTLB_cross_page_prefetch_pollution_among_prefetch_fill 0.00280055
Core_0_DTLB_cross_page_prefetch_accuracy 0.0785217
Core_0_DTLB_cross_page_prefetch_coverage 0.628829

========= STLB_vBerti Prefetch Stats =========
Core_0_STLB_demand_access 5526
Core_0_STLB_demand_hit 771
Core_0_STLB_demand_miss 4755
Core_0_STLB_demand_mshr_merge 0
Core_0_STLB_demand_fill 4755
Core_0_STLB_demand_miss_rate 0.860478
Core_0_STLB_demand_mpki 0.04755
Core_0_STLB_vberti_prefetch_access 37208
Core_0_STLB_vberti_prefetch_hit 2435
Core_0_STLB_vberti_prefetch_miss 34773
Core_0_STLB_vberti_prefetch_mshr_merge 0
Core_0_STLB_vberti_prefetch_fill 0
Core_0_STLB_vberti_prefetch_miss_rate 0.934557
Core_0_STLB_vberti_prefetch_mpki 0.34773

=== STLB_vBerti Same/Cross-page Prefetch Stats ===
Core_0_STLB_vberti_same_page_prefetch 0
Core_0_STLB_vberti_same_page_prefetch_hit 0
Core_0_STLB_vberti_same_page_prefetch_miss 0
Core_0_STLB_vberti_same_page_prefetch_mshr_merge 0
Core_0_STLB_vberti_same_page_prefetch_fill 0
Core_0_STLB_vberti_same_page_prefetch_miss_rate 0
Core_0_STLB_vberti_same_page_prefetch_mpki 0
Core_0_STLB_vberti_cross_page_prefetch 37208
Core_0_STLB_vberti_cross_page_prefetch_hit 2435
Core_0_STLB_vberti_cross_page_prefetch_miss 34773
Core_0_STLB_vberti_cross_page_prefetch_mshr_merge 0
Core_0_STLB_vberti_cross_page_prefetch_fill 0
Core_0_STLB_vberti_cross_page_prefetch_miss_rate 0.934557
Core_0_STLB_vberti_cross_page_prefetch_mpki 0.34773
Core_0_STLB_same_page_prefetch_miss_rate 0
Core_0_STLB_same_page_prefetch_mpki 0
Core_0_STLB_cross_page_prefetch_miss_rate 0.934557
Core_0_STLB_cross_page_prefetch_mpki 0.34773
Core_0_STLB_cross_page_prefetch_issued 37208
Core_0_STLB_cross_page_prefetch_lookups 37208
Core_0_STLB_cross_page_prefetch_useful 946
Core_0_STLB_cross_page_prefetch_useless 33746
Core_0_STLB_cross_page_prefetch_late 946
Core_0_STLB_cross_page_prefetch_too_early 0
Core_0_STLB_cross_page_prefetch_too_early_among_fill 0
Core_0_STLB_cross_page_prefetch_too_early_among_useless 0
Core_0_STLB_cross_page_prefetch_pollution_evict 0
Core_0_STLB_cross_page_prefetch_pollution_demand 0
Core_0_STLB_cross_page_prefetch_pollution_among_prefetch_fill 0
Core_0_STLB_cross_page_prefetch_accuracy 0.0254246
Core_0_STLB_cross_page_prefetch_coverage 0.165936

========= STLB Cross-page Prefetch Buffer Stats =========
Core_0_STLB_raw_demand_miss 4755
Core_0_CP_PB_insert 34773
Core_0_CP_PB_demand_hit 946
Core_0_STLB_PB_demand_miss 3809
Core_0_CP_PB_coverage 0.198948
Core_0_STLB_raw_demand_mpki 0.04755
Core_0_STLB_PB_demand_mpki 0.03809
Core_0_CP_PB_demand_hit_mpki 0.00946

Core_0_TLB_demand_miss_rate 0.000202572
Core_0_TLB_demand_mpki 0.04755
Core_0_TLB_same_page_prefetch_miss_rate 0
Core_0_TLB_same_page_prefetch_mpki 0
Core_0_TLB_cross_page_prefetch_miss_rate 0.0748146
Core_0_TLB_cross_page_prefetch_mpki 0.34773
Core_0_TLB_cross_page_prefetch_issued 464789
Core_0_TLB_cross_page_prefetch_lookups 464789
Core_0_TLB_cross_page_prefetch_useful 30039
Core_0_TLB_cross_page_prefetch_useless 708
Core_0_TLB_cross_page_prefetch_late 2580
Core_0_TLB_cross_page_prefetch_too_early 199
Core_0_TLB_cross_page_prefetch_too_early_among_fill 0.0058053
Core_0_TLB_cross_page_prefetch_too_early_among_useless 0.281073
Core_0_TLB_cross_page_prefetch_accuracy 0.0646293
Core_0_TLB_cross_page_prefetch_coverage 0.863339
BERTI TO_L1: 100485907 TO_L2: 24218898 TO_L2_BC_MSHR: 4233827
BERTI AVG_LAT: 197.6 NUM_TRACK_LATENCY: 3871872 NUM_CANT_TRACK_LATENCY: 0
BERTI CROSS_PAGE 10731914 NO_CROSS_PAGE: 113972891
BERTI FOUND_BERTI: 20989597 NO_FOUND_BERTI: 12785008
BERTI AVERAGE_ISSUED: 1.71714
