[VMEM] WARNING: physical memory size is smaller than virtual memory size.

*** ChampSim Multicore Out-of-Order Simulator ***
Warmup Instructions: 50000000
Simulation Instructions: 100000000
Number of CPUs: 1
Page size: 4096
Core 0: /data0/tzh/champsim_traces/SPEC06/459.GemsFDTD-1320B.champsimtrace.xz
VBerti Prefetcher
BERTI HASH ENTANGLING
BERTI IP MASK ffff
Off-chip DRAM Size: 16 GiB Channels: 1 Width: 64-bit Data Rate: 3205 MT/s
Warmup halting CPU 0 at instruction 50000004 cycle 16080733 for remainder of phase
Warmup finished CPU 0 instructions: 50000004 cycles: 16080733 cumulative IPC: 3.109 (Simulation time: 00 hr 03 min 45 sec)
Warmup complete CPU 0 instructions: 50000004 cycles: 16080733 cumulative IPC: 3.109 (Simulation time: 00 hr 03 min 45 sec)
Simulation finished CPU 0 instructions: 100000002 cycles: 87350300 cumulative IPC: 1.145 (Simulation time: 00 hr 17 min 38 sec)
Simulation complete CPU 0 instructions: 100000002 cycles: 87350300 cumulative IPC: 1.145 (Simulation time: 00 hr 17 min 38 sec)

ChampSim completed all CPUs

=== Simulation ===
CPU 0 runs /data0/tzh/champsim_traces/SPEC06/459.GemsFDTD-1320B.champsimtrace.xz

Region of Interest Statistics

CPU 0 cumulative IPC: 1.145 instructions: 100000002 cycles: 87350300
CPU 0 Branch Prediction Accuracy: 99.62% MPKI: 0.03142 Average ROB Occupancy at Mispredict: 343.1
Branch type MPKI
BRANCH_DIRECT_JUMP: 0.0001
BRANCH_INDIRECT: 2e-05
BRANCH_CONDITIONAL: 0.03108
BRANCH_DIRECT_CALL: 0.00011
BRANCH_INDIRECT_CALL: 0
BRANCH_RETURN: 0.00011

cpu0->cpu0_STLB TOTAL        ACCESS:    1636745 HIT:    1375890 MISS:     260855 MSHR_MERGE:          0
cpu0->cpu0_STLB LOAD         ACCESS:    1636745 HIT:    1375890 MISS:     260855 MSHR_MERGE:          0
cpu0->cpu0_STLB RFO          ACCESS:          0 HIT:          0 MISS:          0 MSHR_MERGE:          0
cpu0->cpu0_STLB PREFETCH     ACCESS:          0 HIT:          0 MISS:          0 MSHR_MERGE:          0
cpu0->cpu0_STLB WRITE        ACCESS:          0 HIT:          0 MISS:          0 MSHR_MERGE:          0
cpu0->cpu0_STLB TRANSLATION  ACCESS:          0 HIT:          0 MISS:          0 MSHR_MERGE:          0
cpu0->cpu0_STLB PREFETCH REQUESTED:          0 ISSUED:          0 USEFUL:          0 USELESS:          0 LATE:          0 TOO_EARLY:          0
cpu0->cpu0_STLB AVERAGE MISS LATENCY: 71.55 cycles
cpu0->cpu0_L2C TOTAL        ACCESS:    7037107 HIT:    5375806 MISS:    1661301 MSHR_MERGE:     295590
cpu0->cpu0_L2C LOAD         ACCESS:     929336 HIT:     647468 MISS:     281868 MSHR_MERGE:       3771
cpu0->cpu0_L2C RFO          ACCESS:         28 HIT:          0 MISS:         28 MSHR_MERGE:          0
cpu0->cpu0_L2C PREFETCH     ACCESS:    5357839 HIT:    3996424 MISS:    1361415 MSHR_MERGE:     291819
cpu0->cpu0_L2C WRITE        ACCESS:     652927 HIT:     652908 MISS:         19 MSHR_MERGE:          0
cpu0->cpu0_L2C TRANSLATION  ACCESS:      96977 HIT:      79006 MISS:      17971 MSHR_MERGE:          0
cpu0->cpu0_L2C PREFETCH REQUESTED:     693153 ISSUED:     691021 USEFUL:     151687 USELESS:      31144 LATE:        668 TOO_EARLY:        980
cpu0->cpu0_L2C AVERAGE MISS LATENCY: 219.5 cycles
cpu0->cpu0_L1I TOTAL        ACCESS:   19350248 HIT:   19350084 MISS:        164 MSHR_MERGE:         53
cpu0->cpu0_L1I LOAD         ACCESS:   19350248 HIT:   19350084 MISS:        164 MSHR_MERGE:         53
cpu0->cpu0_L1I RFO          ACCESS:          0 HIT:          0 MISS:          0 MSHR_MERGE:          0
cpu0->cpu0_L1I PREFETCH     ACCESS:          0 HIT:          0 MISS:          0 MSHR_MERGE:          0
cpu0->cpu0_L1I WRITE        ACCESS:          0 HIT:          0 MISS:          0 MSHR_MERGE:          0
cpu0->cpu0_L1I TRANSLATION  ACCESS:          0 HIT:          0 MISS:          0 MSHR_MERGE:          0
cpu0->cpu0_L1I PREFETCH REQUESTED:          0 ISSUED:          0 USEFUL:          0 USELESS:          0 LATE:          0 TOO_EARLY:          0
cpu0->cpu0_L1I AVERAGE MISS LATENCY: 222.8 cycles
cpu0->cpu0_L1D TOTAL        ACCESS:   46308513 HIT:   40301813 MISS:    6006700 MSHR_MERGE:     306859
cpu0->cpu0_L1D LOAD         ACCESS:   32312750 HIT:   31085629 MISS:    1227121 MSHR_MERGE:     297896
cpu0->cpu0_L1D RFO          ACCESS:          0 HIT:          0 MISS:          0 MSHR_MERGE:          0
cpu0->cpu0_L1D PREFETCH     ACCESS:    9148810 HIT:    4467760 MISS:    4681050 MSHR_MERGE:       7439
cpu0->cpu0_L1D WRITE        ACCESS:    4322902 HIT:    4322832 MISS:         70 MSHR_MERGE:         42
cpu0->cpu0_L1D TRANSLATION  ACCESS:     524051 HIT:     425592 MISS:      98459 MSHR_MERGE:       1482
cpu0->cpu0_L1D PREFETCH REQUESTED:   49529391 ISSUED:    9148812 USEFUL:    2273092 USELESS:     547122 LATE:      33908 TOO_EARLY:      15306
cpu0->cpu0_L1D AVERAGE MISS LATENCY: 77.64 cycles
cpu0->cpu0_ITLB TOTAL        ACCESS:   16255189 HIT:   16255166 MISS:         23 MSHR_MERGE:         10
cpu0->cpu0_ITLB LOAD         ACCESS:   16255189 HIT:   16255166 MISS:         23 MSHR_MERGE:         10
cpu0->cpu0_ITLB RFO          ACCESS:          0 HIT:          0 MISS:          0 MSHR_MERGE:          0
cpu0->cpu0_ITLB PREFETCH     ACCESS:          0 HIT:          0 MISS:          0 MSHR_MERGE:          0
cpu0->cpu0_ITLB WRITE        ACCESS:          0 HIT:          0 MISS:          0 MSHR_MERGE:          0
cpu0->cpu0_ITLB TRANSLATION  ACCESS:          0 HIT:          0 MISS:          0 MSHR_MERGE:          0
cpu0->cpu0_ITLB PREFETCH REQUESTED:          0 ISSUED:          0 USEFUL:          0 USELESS:          0 LATE:          0 TOO_EARLY:          0
cpu0->cpu0_ITLB AVERAGE MISS LATENCY: 342.3 cycles
cpu0->cpu0_DTLB TOTAL        ACCESS:   43269729 HIT:   41295237 MISS:    1974492 MSHR_MERGE:     337760
cpu0->cpu0_DTLB LOAD         ACCESS:   43269729 HIT:   41295237 MISS:    1974492 MSHR_MERGE:     337760
cpu0->cpu0_DTLB RFO          ACCESS:          0 HIT:          0 MISS:          0 MSHR_MERGE:          0
cpu0->cpu0_DTLB PREFETCH     ACCESS:          0 HIT:          0 MISS:          0 MSHR_MERGE:          0
cpu0->cpu0_DTLB WRITE        ACCESS:          0 HIT:          0 MISS:          0 MSHR_MERGE:          0
cpu0->cpu0_DTLB TRANSLATION  ACCESS:          0 HIT:          0 MISS:          0 MSHR_MERGE:          0
cpu0->cpu0_DTLB PREFETCH REQUESTED:          0 ISSUED:          0 USEFUL:          0 USELESS:          0 LATE:          0 TOO_EARLY:          0
cpu0->cpu0_DTLB AVERAGE MISS LATENCY: 16.48 cycles
cpu0->LLC TOTAL        ACCESS:    1622136 HIT:     428218 MISS:    1193918 MSHR_MERGE:      52434
cpu0->LLC LOAD         ACCESS:     278097 HIT:      15298 MISS:     262799 MSHR_MERGE:         75
cpu0->LLC RFO          ACCESS:         28 HIT:          1 MISS:         27 MSHR_MERGE:          0
cpu0->LLC PREFETCH     ACCESS:    1069473 HIT:     174746 MISS:     894727 MSHR_MERGE:      52359
cpu0->LLC WRITE        ACCESS:     256567 HIT:     230334 MISS:      26233 MSHR_MERGE:          0
cpu0->LLC TRANSLATION  ACCESS:      17971 HIT:       7839 MISS:      10132 MSHR_MERGE:          0
cpu0->LLC PREFETCH REQUESTED:          0 ISSUED:          0 USEFUL:          0 USELESS:          0 LATE:          0 TOO_EARLY:          0
cpu0->LLC AVERAGE MISS LATENCY: 201.3 cycles

DRAM Statistics

Channel 0 RQ ROW_BUFFER_HIT:      18080
  ROW_BUFFER_MISS:    1097160
  AVG DBUS CONGESTED CYCLE: 5.789
Channel 0 WQ ROW_BUFFER_HIT:      22969
  ROW_BUFFER_MISS:     207503
  FULL:          0
Channel 0 REFRESHES ISSUED:       7279

[ROI Statistics]
[System Configuration]
num_cpus 1
cpu_freq 4000
fetch_width 6
decode_width 6
dispatch_width 6
execute_width 6
lq_width 2
sq_width 2
retire_width 6
scheduler_size 128
branch_mispredict_penalty 15
rob_size 352
lq_size 128
sq_size 72
ifetch_buffer_size 64
decode_buffer_size 32
dispatch_buffer_size 32
register_file_size 288
decode_latency 1
dispatch_latency 1
schedule_latency 1
execute_latency 1
page_size 4096
block_size 64
core_0_itlb_set 16
core_0_itlb_way 4
core_0_itlb_rq_size 16
core_0_itlb_wq_size 16
core_0_itlb_pq_size 0
core_0_itlb_mshr_size 8
core_0_itlb_hit_latency 1
core_0_itlb_fill_latency 1
core_0_itlb_max_tag_check 2
core_0_itlb_max_fill 2
core_0_dtlb_set 16
core_0_dtlb_way 4
core_0_dtlb_rq_size 16
core_0_dtlb_wq_size 16
core_0_dtlb_pq_size 0
core_0_dtlb_mshr_size 8
core_0_dtlb_hit_latency 1
core_0_dtlb_fill_latency 1
core_0_dtlb_max_tag_check 2
core_0_dtlb_max_fill 2
core_0_stlb_set 128
core_0_stlb_way 12
core_0_stlb_rq_size 32
core_0_stlb_wq_size 32
core_0_stlb_pq_size 0
core_0_stlb_mshr_size 16
core_0_stlb_hit_latency 4
core_0_stlb_fill_latency 4
core_0_stlb_max_tag_check 1
core_0_stlb_max_fill 1
core_0_l1i_set 64
core_0_l1i_way 8
core_0_l1i_rq_size 64
core_0_l1i_wq_size 64
core_0_l1i_pq_size 32
core_0_l1i_mshr_size 8
core_0_l1i_hit_latency 2
core_0_l1i_fill_latency 2
core_0_l1i_max_tag_check 2
core_0_l1i_max_fill 2
core_0_l1d_set 64
core_0_l1d_way 12
core_0_l1d_rq_size 64
core_0_l1d_wq_size 64
core_0_l1d_pq_size 8
core_0_l1d_mshr_size 16
core_0_l1d_hit_latency 2
core_0_l1d_fill_latency 3
core_0_l1d_max_tag_check 2
core_0_l1d_max_fill 2
core_0_l2c_set 1024
core_0_l2c_way 8
core_0_l2c_rq_size 32
core_0_l2c_wq_size 32
core_0_l2c_pq_size 16
core_0_l2c_mshr_size 32
core_0_l2c_hit_latency 5
core_0_l2c_fill_latency 5
core_0_l2c_max_tag_check 1
core_0_l2c_max_fill 1
llc_set 2048
llc_way 16
llc_rq_size 32
llc_wq_size 32
llc_pq_size 32
llc_mshr_size 64
llc_hit_latency 10
llc_fill_latency 10
llc_max_tag_check 1
llc_max_fill 1
dram_channels 1
dram_ranks 1
dram_bankgroups 8
dram_banks 4
dram_rows 65536
dram_columns 1024
dram_channel_width 8
dram_rq_size 64
dram_wq_size 64
dram_size 17179869184
core_0_itlb_prefetcher no
core_0_dtlb_prefetcher no
core_0_stlb_prefetcher no
core_0_l1i_prefetcher next_line
core_0_l1d_prefetcher vberti
core_0_l2c_prefetcher ip_stride
llc_prefetcher no
llc_replacement drrip

Core_0_instructions 100000002
Core_0_cycles 87350300
Core_0_IPC 1.14482
Core_0_branch_prediction_accuracy 99.6159
Core_0_branch_MPKI 0.03142
Core_0_average_ROB_occupancy_at_mispredict 343.14

Core_0_ITLB_total_access 16255189
Core_0_ITLB_total_hit 16255166
Core_0_ITLB_total_miss 23
Core_0_ITLB_total_MPKI 0.00023
Core_0_ITLB_total_miss_rate 1.41493e-06
Core_0_ITLB_demand_access 16255189
Core_0_ITLB_demand_hit 16255166
Core_0_ITLB_demand_miss 23
Core_0_ITLB_demand_MPKI 0.00023
Core_0_ITLB_demand_miss_rate 1.41493e-06
Core_0_ITLB_load_access 16255189
Core_0_ITLB_load_hit 16255166
Core_0_ITLB_load_miss 23
Core_0_ITLB_load_MPKI 0.00023
Core_0_ITLB_load_miss_rate 1.41493e-06
Core_0_ITLB_rfo_access 0
Core_0_ITLB_rfo_hit 0
Core_0_ITLB_rfo_miss 0
Core_0_ITLB_rfo_MPKI 0
Core_0_ITLB_rfo_miss_rate 0
Core_0_ITLB_prefetch_access 0
Core_0_ITLB_prefetch_hit 0
Core_0_ITLB_prefetch_miss 0
Core_0_ITLB_prefetch_MPKI 0
Core_0_ITLB_prefetch_miss_rate 0
Core_0_ITLB_writeback_access 0
Core_0_ITLB_writeback_hit 0
Core_0_ITLB_writeback_miss 0
Core_0_ITLB_writeback_MPKI 0
Core_0_ITLB_writeback_miss_rate 0
Core_0_ITLB_prefetch_requested 0
Core_0_ITLB_prefetch_issued 0
Core_0_ITLB_prefetch_useful 0
Core_0_ITLB_prefetch_useless 0
Core_0_ITLB_prefetch_late 0
Core_0_ITLB_prefetch_fill 0
Core_0_ITLB_prefetch_too_early 0
Core_0_ITLB_prefetch_too_early_among_fill 0
Core_0_ITLB_prefetch_too_early_among_useless 0
Core_0_ITLB_prefetch_pollution_evict 0
Core_0_ITLB_prefetch_pollution_demand 0
Core_0_ITLB_prefetch_pollution_among_prefetch_fill 0
Core_0_ITLB_prefetch_accuracy 0
Core_0_ITLB_prefetch_coverage 0

Core_0_DTLB_total_access 43269729
Core_0_DTLB_total_hit 41295237
Core_0_DTLB_total_miss 1974492
Core_0_DTLB_total_MPKI 19.7449
Core_0_DTLB_total_miss_rate 0.0456322
Core_0_DTLB_demand_access 43269729
Core_0_DTLB_demand_hit 41295237
Core_0_DTLB_demand_miss 1974492
Core_0_DTLB_demand_MPKI 19.7449
Core_0_DTLB_demand_miss_rate 0.0456322
Core_0_DTLB_load_access 43269729
Core_0_DTLB_load_hit 41295237
Core_0_DTLB_load_miss 1974492
Core_0_DTLB_load_MPKI 19.7449
Core_0_DTLB_load_miss_rate 0.0456322
Core_0_DTLB_rfo_access 0
Core_0_DTLB_rfo_hit 0
Core_0_DTLB_rfo_miss 0
Core_0_DTLB_rfo_MPKI 0
Core_0_DTLB_rfo_miss_rate 0
Core_0_DTLB_prefetch_access 0
Core_0_DTLB_prefetch_hit 0
Core_0_DTLB_prefetch_miss 0
Core_0_DTLB_prefetch_MPKI 0
Core_0_DTLB_prefetch_miss_rate 0
Core_0_DTLB_writeback_access 0
Core_0_DTLB_writeback_hit 0
Core_0_DTLB_writeback_miss 0
Core_0_DTLB_writeback_MPKI 0
Core_0_DTLB_writeback_miss_rate 0
Core_0_DTLB_prefetch_requested 0
Core_0_DTLB_prefetch_issued 0
Core_0_DTLB_prefetch_useful 0
Core_0_DTLB_prefetch_useless 0
Core_0_DTLB_prefetch_late 0
Core_0_DTLB_prefetch_fill 0
Core_0_DTLB_prefetch_too_early 0
Core_0_DTLB_prefetch_too_early_among_fill 0
Core_0_DTLB_prefetch_too_early_among_useless 0
Core_0_DTLB_prefetch_pollution_evict 0
Core_0_DTLB_prefetch_pollution_demand 0
Core_0_DTLB_prefetch_pollution_among_prefetch_fill 0
Core_0_DTLB_prefetch_accuracy 0
Core_0_DTLB_prefetch_coverage 0

Core_0_STLB_total_access 1636745
Core_0_STLB_total_hit 1375890
Core_0_STLB_total_miss 260855
Core_0_STLB_total_MPKI 2.60855
Core_0_STLB_total_miss_rate 0.159374
Core_0_STLB_demand_access 1636745
Core_0_STLB_demand_hit 1375890
Core_0_STLB_demand_miss 260855
Core_0_STLB_demand_MPKI 2.60855
Core_0_STLB_demand_miss_rate 0.159374
Core_0_STLB_load_access 1636745
Core_0_STLB_load_hit 1375890
Core_0_STLB_load_miss 260855
Core_0_STLB_load_MPKI 2.60855
Core_0_STLB_load_miss_rate 0.159374
Core_0_STLB_rfo_access 0
Core_0_STLB_rfo_hit 0
Core_0_STLB_rfo_miss 0
Core_0_STLB_rfo_MPKI 0
Core_0_STLB_rfo_miss_rate 0
Core_0_STLB_prefetch_access 0
Core_0_STLB_prefetch_hit 0
Core_0_STLB_prefetch_miss 0
Core_0_STLB_prefetch_MPKI 0
Core_0_STLB_prefetch_miss_rate 0
Core_0_STLB_writeback_access 0
Core_0_STLB_writeback_hit 0
Core_0_STLB_writeback_miss 0
Core_0_STLB_writeback_MPKI 0
Core_0_STLB_writeback_miss_rate 0
Core_0_STLB_prefetch_requested 0
Core_0_STLB_prefetch_issued 0
Core_0_STLB_prefetch_useful 0
Core_0_STLB_prefetch_useless 0
Core_0_STLB_prefetch_late 0
Core_0_STLB_prefetch_fill 0
Core_0_STLB_prefetch_too_early 0
Core_0_STLB_prefetch_too_early_among_fill 0
Core_0_STLB_prefetch_too_early_among_useless 0
Core_0_STLB_prefetch_pollution_evict 0
Core_0_STLB_prefetch_pollution_demand 0
Core_0_STLB_prefetch_pollution_among_prefetch_fill 0
Core_0_STLB_prefetch_accuracy 0
Core_0_STLB_prefetch_coverage 0

Core_0_L1I_total_access 19350248
Core_0_L1I_total_hit 19350084
Core_0_L1I_total_miss 164
Core_0_L1I_total_MPKI 0.00164
Core_0_L1I_total_miss_rate 8.47534e-06
Core_0_L1I_demand_access 19350248
Core_0_L1I_demand_hit 19350084
Core_0_L1I_demand_miss 164
Core_0_L1I_demand_MPKI 0.00164
Core_0_L1I_demand_miss_rate 8.47534e-06
Core_0_L1I_load_access 19350248
Core_0_L1I_load_hit 19350084
Core_0_L1I_load_miss 164
Core_0_L1I_load_MPKI 0.00164
Core_0_L1I_load_miss_rate 8.47534e-06
Core_0_L1I_rfo_access 0
Core_0_L1I_rfo_hit 0
Core_0_L1I_rfo_miss 0
Core_0_L1I_rfo_MPKI 0
Core_0_L1I_rfo_miss_rate 0
Core_0_L1I_prefetch_access 0
Core_0_L1I_prefetch_hit 0
Core_0_L1I_prefetch_miss 0
Core_0_L1I_prefetch_MPKI 0
Core_0_L1I_prefetch_miss_rate 0
Core_0_L1I_writeback_access 0
Core_0_L1I_writeback_hit 0
Core_0_L1I_writeback_miss 0
Core_0_L1I_writeback_MPKI 0
Core_0_L1I_writeback_miss_rate 0
Core_0_L1I_prefetch_requested 0
Core_0_L1I_prefetch_issued 0
Core_0_L1I_prefetch_useful 0
Core_0_L1I_prefetch_useless 0
Core_0_L1I_prefetch_late 0
Core_0_L1I_prefetch_fill 0
Core_0_L1I_prefetch_too_early 0
Core_0_L1I_prefetch_too_early_among_fill 0
Core_0_L1I_prefetch_too_early_among_useless 0
Core_0_L1I_prefetch_pollution_evict 0
Core_0_L1I_prefetch_pollution_demand 0
Core_0_L1I_prefetch_pollution_among_prefetch_fill 0
Core_0_L1I_prefetch_accuracy 0
Core_0_L1I_prefetch_coverage 0

Core_0_L1D_total_access 45784462
Core_0_L1D_total_hit 39876221
Core_0_L1D_total_miss 5908241
Core_0_L1D_total_MPKI 59.0824
Core_0_L1D_total_miss_rate 0.129045
Core_0_L1D_demand_access 32312750
Core_0_L1D_demand_hit 31085629
Core_0_L1D_demand_miss 1227121
Core_0_L1D_demand_MPKI 12.2712
Core_0_L1D_demand_miss_rate 0.0379764
Core_0_L1D_load_access 32312750
Core_0_L1D_load_hit 31085629
Core_0_L1D_load_miss 1227121
Core_0_L1D_load_MPKI 12.2712
Core_0_L1D_load_miss_rate 0.0379764
Core_0_L1D_rfo_access 0
Core_0_L1D_rfo_hit 0
Core_0_L1D_rfo_miss 0
Core_0_L1D_rfo_MPKI 0
Core_0_L1D_rfo_miss_rate 0
Core_0_L1D_prefetch_access 9148810
Core_0_L1D_prefetch_hit 4467760
Core_0_L1D_prefetch_miss 4681050
Core_0_L1D_prefetch_MPKI 46.8105
Core_0_L1D_prefetch_miss_rate 0.511657
Core_0_L1D_writeback_access 4322902
Core_0_L1D_writeback_hit 4322832
Core_0_L1D_writeback_miss 70
Core_0_L1D_writeback_MPKI 0.0007
Core_0_L1D_writeback_miss_rate 1.61928e-05
Core_0_L1D_prefetch_requested 49529391
Core_0_L1D_prefetch_issued 9148812
Core_0_L1D_prefetch_useful 2273092
Core_0_L1D_prefetch_useless 547122
Core_0_L1D_prefetch_late 33908
Core_0_L1D_prefetch_fill 2786288
Core_0_L1D_prefetch_too_early 15306
Core_0_L1D_prefetch_too_early_among_fill 0.00549333
Core_0_L1D_prefetch_too_early_among_useless 0.0279755
Core_0_L1D_prefetch_pollution_evict 15
Core_0_L1D_prefetch_pollution_demand 2
Core_0_L1D_prefetch_pollution_among_prefetch_fill 5.38351e-06
Core_0_L1D_prefetch_accuracy 0.248458
Core_0_L1D_prefetch_coverage 0.649415

Core_0_L2C_total_access 6940130
Core_0_L2C_total_hit 5296800
Core_0_L2C_total_miss 1643330
Core_0_L2C_total_MPKI 16.4333
Core_0_L2C_total_miss_rate 0.236787
Core_0_L2C_demand_access 929364
Core_0_L2C_demand_hit 647468
Core_0_L2C_demand_miss 281896
Core_0_L2C_demand_MPKI 2.81896
Core_0_L2C_demand_miss_rate 0.303321
Core_0_L2C_load_access 929336
Core_0_L2C_load_hit 647468
Core_0_L2C_load_miss 281868
Core_0_L2C_load_MPKI 2.81868
Core_0_L2C_load_miss_rate 0.3033
Core_0_L2C_rfo_access 28
Core_0_L2C_rfo_hit 0
Core_0_L2C_rfo_miss 28
Core_0_L2C_rfo_MPKI 0.00028
Core_0_L2C_rfo_miss_rate 1
Core_0_L2C_prefetch_access 5357839
Core_0_L2C_prefetch_hit 3996424
Core_0_L2C_prefetch_miss 1361415
Core_0_L2C_prefetch_MPKI 13.6141
Core_0_L2C_prefetch_miss_rate 0.254098
Core_0_L2C_writeback_access 652927
Core_0_L2C_writeback_hit 652908
Core_0_L2C_writeback_miss 19
Core_0_L2C_writeback_MPKI 0.00019
Core_0_L2C_writeback_miss_rate 2.90997e-05
Core_0_L2C_prefetch_requested 693153
Core_0_L2C_prefetch_issued 691021
Core_0_L2C_prefetch_useful 151687
Core_0_L2C_prefetch_useless 31144
Core_0_L2C_prefetch_late 668
Core_0_L2C_prefetch_fill 940684
Core_0_L2C_prefetch_too_early 980
Core_0_L2C_prefetch_too_early_among_fill 0.0010418
Core_0_L2C_prefetch_too_early_among_useless 0.0314667
Core_0_L2C_prefetch_pollution_evict 6739
Core_0_L2C_prefetch_pollution_demand 6739
Core_0_L2C_prefetch_pollution_among_prefetch_fill 0.00716394
Core_0_L2C_prefetch_accuracy 0.219511
Core_0_L2C_prefetch_coverage 0.349845

Core_0_LLC_total_access 1604165
Core_0_LLC_total_hit 420379
Core_0_LLC_total_miss 1183786
Core_0_LLC_total_MPKI 11.8379
Core_0_LLC_total_miss_rate 0.737945
Core_0_LLC_demand_access 278125
Core_0_LLC_demand_hit 15299
Core_0_LLC_demand_miss 262826
Core_0_LLC_demand_MPKI 2.62826
Core_0_LLC_demand_miss_rate 0.944992
Core_0_LLC_load_access 278097
Core_0_LLC_load_hit 15298
Core_0_LLC_load_miss 262799
Core_0_LLC_load_MPKI 2.62799
Core_0_LLC_load_miss_rate 0.94499
Core_0_LLC_rfo_access 28
Core_0_LLC_rfo_hit 1
Core_0_LLC_rfo_miss 27
Core_0_LLC_rfo_MPKI 0.00027
Core_0_LLC_rfo_miss_rate 0.964286
Core_0_LLC_prefetch_access 1069473
Core_0_LLC_prefetch_hit 174746
Core_0_LLC_prefetch_miss 894727
Core_0_LLC_prefetch_MPKI 8.94727
Core_0_LLC_prefetch_miss_rate 0.836606
Core_0_LLC_writeback_access 256567
Core_0_LLC_writeback_hit 230334
Core_0_LLC_writeback_miss 26233
Core_0_LLC_writeback_MPKI 0.26233
Core_0_LLC_writeback_miss_rate 0.102246
Core_0_LLC_prefetch_requested 0
Core_0_LLC_prefetch_issued 0
Core_0_LLC_prefetch_useful 0
Core_0_LLC_prefetch_useless 0
Core_0_LLC_prefetch_late 0
Core_0_LLC_prefetch_fill 842283
Core_0_LLC_prefetch_too_early 0
Core_0_LLC_prefetch_too_early_among_fill 0
Core_0_LLC_prefetch_too_early_among_useless 0
Core_0_LLC_prefetch_pollution_evict 13562
Core_0_LLC_prefetch_pollution_demand 13562
Core_0_LLC_prefetch_pollution_among_prefetch_fill 0.0161015
Core_0_LLC_prefetch_accuracy 0
Core_0_LLC_prefetch_coverage 0

[DRAM Statistics]
Channel_0_RQ_row_buffer_hit 18080
Channel_0_RQ_row_buffer_miss 1097160
Channel_0_WQ_row_buffer_hit 22969
Channel_0_WQ_row_buffer_miss 207503
Channel_0_WQ_full 0
Channel_0_dbus_congested 2806362
DRAM_total_RQ_row_buffer_hit 18080
DRAM_total_RQ_row_buffer_miss 1097160
DRAM_total_WQ_row_buffer_hit 22969
DRAM_total_WQ_row_buffer_miss 207503
DRAM_total_WQ_full 0
DRAM_total_dbus_congested 2806362
DRAM_avg_congested_cycle 5.78945

====== DRAM_RQ_TRAFFIC ========
DRAM_RQ_READ_TRAFFIC_BREAKDOWN:
data_demand_read.count = 262640
data_demand_read.share = 23.55%

inst_demand_read.count = 111
inst_demand_read.share = 0.01%

cache_inst_prefetch.count = 0
cache_inst_prefetch.share = 0.00%

cache_data_prefetch.count = 842368
cache_data_prefetch.share = 75.53%

stlb_data_demand.count = 8197
stlb_data_demand.share = 0.73%

stlb_inst_demand.count = 8
stlb_inst_demand.share = 0.00%

stlb_l1i_pref.count = 0
stlb_l1i_pref.share = 0.00%

stlb_l1d_pref.count = 1927
stlb_l1d_pref.share = 0.17%

DRAM_RQ_READ_TRAFFIC_SUMMARY:
cache_demand.count = 262751
cache_demand.share = 23.56%

cache_prefetch.count = 842368
cache_prefetch.share = 75.53%

stlb_demand.count = 8205
stlb_demand.share = 0.74%

stlb_prefetch.count = 1927
stlb_prefetch.share = 0.17%

DRAM_RQ_READ_TRAFFIC_DEBUG:
total_classified_read.count = 1115251
unclassified_read.count = 0
total_read_with_other.count = 1115251

classified_plus_unclassified_check.count = 1115251
dram_rq_read_total_observed.count = 1115251
dram_rq_read_total_observed.per_1K_instructions = 11.1525

STLB_MISS_PTW_DRAM_TOUCH_BREAKDOWN:
stlb_miss_total.count = 259005

stlb_miss_touch_dram.count = 10070
stlb_miss_touch_dram.share = 3.89%

stlb_miss_no_dram_touch.count = 248935
stlb_miss_no_dram_touch.share = 96.11%

STLB_MISS_PTW_DRAM_TOUCH_DEBUG:
stlb_miss_touch_plus_no_touch.count = 259005
stlb_miss_total_check.count = 259005

======STLB miss causes ========
Core_0_STLB_miss_cause_breakdown
Core_0_STLB_cause_Demand_Data_miss 47563
Core_0_STLB_cause_Demand_Data_miss_rate 0.0290595
Core_0_STLB_cause_Demand_Instruction_miss 13
Core_0_STLB_cause_Demand_Instruction_miss_rate 7.94259e-06
Core_0_STLB_cause_L1D_Prefetch_miss 213279
Core_0_STLB_cause_L1D_Prefetch_miss_rate 0.130307
Core_0_STLB_cause_L1D_Prefetch_Same_Page_miss 1
Core_0_STLB_cause_L1D_Prefetch_Same_Page_miss_rate 6.10969e-07
Core_0_STLB_cause_L1D_Prefetch_Cross_Page_miss 213278
Core_0_STLB_cause_L1D_Prefetch_Cross_Page_miss_rate 0.130306
Core_0_STLB_cause_L1I_Prefetch_miss 0
Core_0_STLB_cause_L1I_Prefetch_miss_rate 0
Core_0_STLB_cause_Other_miss 0
Core_0_STLB_cause_Other_miss_rate 0
Core_0_STLB_Demand_miss 47576
Core_0_STLB_Demand_miss_rate 0.0290674
Core_0_STLB_L1D_Prefetch_miss 213279
Core_0_STLB_L1D_Prefetch_miss_rate 0.130307
Core_0_STLB_Other_miss 0
Core_0_STLB_Other_miss_rate 0

========== vBerti-TLB Cross-page Flow Stats ==========

Core_0_vBerti_Requested 49529391
Core_0_vBerti_Cross_page_prefetch_in_Requested 12620007
Core_0_vBerti_Same_page_prefetch_in_Requested 36909384
Core_0_vBerti_Cross_page_prefetch_of_Requested 0.254798
Core_0_vBerti_Issued 9148812
Core_0_vBerti_PQ_Drop_Rate 0.815285
Core_0_vBerti_InPQ_Cross_page_prefetch_of_Requested 0.0908527
Core_0_vBerti_Cross_page_PQ_Drop_rate 0.643433
Core_0_vBerti_Cross_page_prefetch_of_Issued 0.491854

========= DTLB_vBerti Prefetch Stats =========
Core_0_DTLB_demand_access 34988128
Core_0_DTLB_demand_hit 34192416
Core_0_DTLB_demand_miss 795712
Core_0_DTLB_demand_mshr_merge 39275
Core_0_DTLB_demand_fill 757315
Core_0_DTLB_demand_miss_rate 0.0227423
Core_0_DTLB_demand_mpki 7.95712
Core_0_DTLB_vberti_prefetch_access 8281601
Core_0_DTLB_vberti_prefetch_hit 7102821
Core_0_DTLB_vberti_prefetch_miss 1178780
Core_0_DTLB_vberti_prefetch_mshr_merge 298485
Core_0_DTLB_vberti_prefetch_fill 879416
Core_0_DTLB_vberti_prefetch_miss_rate 0.142337
Core_0_DTLB_vberti_prefetch_mpki 11.7878

=== DTLB_vBerti Same/Cross-page Prefetch Stats ===
Core_0_DTLB_vberti_same_page_prefetch 4052897
Core_0_DTLB_vberti_same_page_prefetch_hit 4051082
Core_0_DTLB_vberti_same_page_prefetch_miss 1815
Core_0_DTLB_vberti_same_page_prefetch_mshr_merge 348
Core_0_DTLB_vberti_same_page_prefetch_fill 1440
Core_0_DTLB_vberti_same_page_prefetch_miss_rate 0.000447828
Core_0_DTLB_vberti_same_page_prefetch_mpki 0.01815
Core_0_DTLB_vberti_cross_page_prefetch 4228704
Core_0_DTLB_vberti_cross_page_prefetch_hit 3051739
Core_0_DTLB_vberti_cross_page_prefetch_miss 1176965
Core_0_DTLB_vberti_cross_page_prefetch_mshr_merge 298137
Core_0_DTLB_vberti_cross_page_prefetch_fill 877976
Core_0_DTLB_vberti_cross_page_prefetch_miss_rate 0.278328
Core_0_DTLB_vberti_cross_page_prefetch_mpki 11.7696
Core_0_DTLB_same_page_prefetch_miss_rate 0.000447828
Core_0_DTLB_same_page_prefetch_mpki 0.01815
Core_0_DTLB_cross_page_prefetch_miss_rate 0.278328
Core_0_DTLB_cross_page_prefetch_mpki 11.7696
Core_0_DTLB_cross_page_prefetch_issued 4228704
Core_0_DTLB_cross_page_prefetch_lookups 4228704
Core_0_DTLB_cross_page_prefetch_useful 431327
Core_0_DTLB_cross_page_prefetch_useless 447501
Core_0_DTLB_cross_page_prefetch_late 851
Core_0_DTLB_cross_page_prefetch_too_early 79135
Core_0_DTLB_cross_page_prefetch_too_early_among_fill 0.0901334
Core_0_DTLB_cross_page_prefetch_too_early_among_useless 0.176838
Core_0_DTLB_cross_page_prefetch_pollution_evict 192081
Core_0_DTLB_cross_page_prefetch_pollution_demand 114545
Core_0_DTLB_cross_page_prefetch_pollution_among_prefetch_fill 0.218777
Core_0_DTLB_cross_page_prefetch_accuracy 0.102
Core_0_DTLB_cross_page_prefetch_coverage 0.351519

========= STLB_vBerti Prefetch Stats =========
Core_0_STLB_demand_access 756450
Core_0_STLB_demand_hit 708874
Core_0_STLB_demand_miss 47576
Core_0_STLB_demand_mshr_merge 0
Core_0_STLB_demand_fill 47576
Core_0_STLB_demand_miss_rate 0.0628938
Core_0_STLB_demand_mpki 0.47576
Core_0_STLB_vberti_prefetch_access 880295
Core_0_STLB_vberti_prefetch_hit 667016
Core_0_STLB_vberti_prefetch_miss 213279
Core_0_STLB_vberti_prefetch_mshr_merge 0
Core_0_STLB_vberti_prefetch_fill 1
Core_0_STLB_vberti_prefetch_miss_rate 0.242281
Core_0_STLB_vberti_prefetch_mpki 2.13279

=== STLB_vBerti Same/Cross-page Prefetch Stats ===
Core_0_STLB_vberti_same_page_prefetch 1467
Core_0_STLB_vberti_same_page_prefetch_hit 1466
Core_0_STLB_vberti_same_page_prefetch_miss 1
Core_0_STLB_vberti_same_page_prefetch_mshr_merge 0
Core_0_STLB_vberti_same_page_prefetch_fill 1
Core_0_STLB_vberti_same_page_prefetch_miss_rate 0.000681663
Core_0_STLB_vberti_same_page_prefetch_mpki 1e-05
Core_0_STLB_vberti_cross_page_prefetch 878828
Core_0_STLB_vberti_cross_page_prefetch_hit 665550
Core_0_STLB_vberti_cross_page_prefetch_miss 213278
Core_0_STLB_vberti_cross_page_prefetch_mshr_merge 0
Core_0_STLB_vberti_cross_page_prefetch_fill 0
Core_0_STLB_vberti_cross_page_prefetch_miss_rate 0.242685
Core_0_STLB_vberti_cross_page_prefetch_mpki 2.13278
Core_0_STLB_same_page_prefetch_miss_rate 0.000681663
Core_0_STLB_same_page_prefetch_mpki 1e-05
Core_0_STLB_cross_page_prefetch_miss_rate 0.242685
Core_0_STLB_cross_page_prefetch_mpki 2.13278
Core_0_STLB_cross_page_prefetch_issued 878828
Core_0_STLB_cross_page_prefetch_lookups 878828
Core_0_STLB_cross_page_prefetch_useful 1849
Core_0_STLB_cross_page_prefetch_useless 163428
Core_0_STLB_cross_page_prefetch_late 1849
Core_0_STLB_cross_page_prefetch_too_early 0
Core_0_STLB_cross_page_prefetch_too_early_among_fill 0
Core_0_STLB_cross_page_prefetch_too_early_among_useless 0
Core_0_STLB_cross_page_prefetch_pollution_evict 0
Core_0_STLB_cross_page_prefetch_pollution_demand 0
Core_0_STLB_cross_page_prefetch_pollution_among_prefetch_fill 0
Core_0_STLB_cross_page_prefetch_accuracy 0.00210394
Core_0_STLB_cross_page_prefetch_coverage 0.0374102

========= STLB Cross-page Prefetch Buffer Stats =========
Core_0_STLB_raw_demand_miss 47563
Core_0_CP_PB_insert 213277
Core_0_CP_PB_demand_hit 1849
Core_0_STLB_PB_demand_miss 45714
Core_0_CP_PB_coverage 0.0388748
Core_0_STLB_raw_demand_mpki 0.47563
Core_0_STLB_PB_demand_mpki 0.45714
Core_0_CP_PB_demand_hit_mpki 0.01849

Core_0_TLB_demand_miss_rate 0.00135978
Core_0_TLB_demand_mpki 0.47576
Core_0_TLB_same_page_prefetch_miss_rate 2.46737e-07
Core_0_TLB_same_page_prefetch_mpki 1e-05
Core_0_TLB_cross_page_prefetch_miss_rate 0.0504358
Core_0_TLB_cross_page_prefetch_mpki 2.13278
Core_0_TLB_cross_page_prefetch_issued 4228704
Core_0_TLB_cross_page_prefetch_lookups 4228704
Core_0_TLB_cross_page_prefetch_useful 10867
Core_0_TLB_cross_page_prefetch_useless 48855
Core_0_TLB_cross_page_prefetch_late 728
Core_0_TLB_cross_page_prefetch_too_early 6811
Core_0_TLB_cross_page_prefetch_too_early_among_fill 0.00775762
Core_0_TLB_cross_page_prefetch_too_early_among_useless 0.139413
Core_0_TLB_cross_page_prefetch_accuracy 0.00256982
Core_0_TLB_cross_page_prefetch_coverage 0.185942
BERTI TO_L1: 37266993 TO_L2: 21290737 TO_L2_BC_MSHR: 2813774
BERTI AVG_LAT: 80.257 NUM_TRACK_LATENCY: 5369605 NUM_CANT_TRACK_LATENCY: 0
BERTI CROSS_PAGE 19200419 NO_CROSS_PAGE: 39357311
BERTI FOUND_BERTI: 8585394 NO_FOUND_BERTI: 41966418
BERTI AVERAGE_ISSUED: 2.69266
