[VMEM] WARNING: physical memory size is smaller than virtual memory size.

*** ChampSim Multicore Out-of-Order Simulator ***
Warmup Instructions: 50000000
Simulation Instructions: 100000000
Number of CPUs: 1
Page size: 4096
Core 0: /data0/tzh/champsim_traces/SPEC06/473.astar-153B.champsimtrace.xz
VBerti Prefetcher
BERTI HASH ENTANGLING
BERTI IP MASK ffff
Off-chip DRAM Size: 16 GiB Channels: 1 Width: 64-bit Data Rate: 3205 MT/s
Warmup halting CPU 0 at instruction 50000000 cycle 10467999 for remainder of phase
Warmup finished CPU 0 instructions: 50000000 cycles: 10467999 cumulative IPC: 4.776 (Simulation time: 00 hr 02 min 20 sec)
Warmup complete CPU 0 instructions: 50000000 cycles: 10467999 cumulative IPC: 4.776 (Simulation time: 00 hr 02 min 20 sec)
Simulation finished CPU 0 instructions: 100000003 cycles: 43109630 cumulative IPC: 2.32 (Simulation time: 00 hr 12 min 15 sec)
Simulation complete CPU 0 instructions: 100000003 cycles: 43109630 cumulative IPC: 2.32 (Simulation time: 00 hr 12 min 15 sec)

ChampSim completed all CPUs

=== Simulation ===
CPU 0 runs /data0/tzh/champsim_traces/SPEC06/473.astar-153B.champsimtrace.xz

Region of Interest Statistics

CPU 0 cumulative IPC: 2.32 instructions: 100000003 cycles: 43109630
CPU 0 Branch Prediction Accuracy: 99.27% MPKI: 0.9518 Average ROB Occupancy at Mispredict: 169.2
Branch type MPKI
BRANCH_DIRECT_JUMP: 0
BRANCH_INDIRECT: 0
BRANCH_CONDITIONAL: 0.9518
BRANCH_DIRECT_CALL: 0
BRANCH_INDIRECT_CALL: 0
BRANCH_RETURN: 0

cpu0->cpu0_STLB TOTAL        ACCESS:     419734 HIT:     390009 MISS:      29725 MSHR_MERGE:          0
cpu0->cpu0_STLB LOAD         ACCESS:     419734 HIT:     390009 MISS:      29725 MSHR_MERGE:          0
cpu0->cpu0_STLB RFO          ACCESS:          0 HIT:          0 MISS:          0 MSHR_MERGE:          0
cpu0->cpu0_STLB PREFETCH     ACCESS:          0 HIT:          0 MISS:          0 MSHR_MERGE:          0
cpu0->cpu0_STLB WRITE        ACCESS:          0 HIT:          0 MISS:          0 MSHR_MERGE:          0
cpu0->cpu0_STLB TRANSLATION  ACCESS:          0 HIT:          0 MISS:          0 MSHR_MERGE:          0
cpu0->cpu0_STLB PREFETCH REQUESTED:          0 ISSUED:          0 USEFUL:          0 USELESS:          0 LATE:          0 TOO_EARLY:          0
cpu0->cpu0_STLB AVERAGE MISS LATENCY: 35.84 cycles
cpu0->cpu0_L2C TOTAL        ACCESS:    3035656 HIT:    2736497 MISS:     299159 MSHR_MERGE:      64451
cpu0->cpu0_L2C LOAD         ACCESS:     175603 HIT:     151524 MISS:      24079 MSHR_MERGE:        700
cpu0->cpu0_L2C RFO          ACCESS:       5040 HIT:       3665 MISS:       1375 MSHR_MERGE:         13
cpu0->cpu0_L2C PREFETCH     ACCESS:    2666352 HIT:    2395787 MISS:     270565 MSHR_MERGE:      63738
cpu0->cpu0_L2C WRITE        ACCESS:     181661 HIT:     181608 MISS:         53 MSHR_MERGE:          0
cpu0->cpu0_L2C TRANSLATION  ACCESS:       7000 HIT:       3913 MISS:       3087 MSHR_MERGE:          0
cpu0->cpu0_L2C PREFETCH REQUESTED:     380876 ISSUED:     380866 USEFUL:      38391 USELESS:       4063 LATE:          1 TOO_EARLY:         52
cpu0->cpu0_L2C AVERAGE MISS LATENCY: 85.74 cycles
cpu0->cpu0_L1I TOTAL        ACCESS:   13739753 HIT:   13739753 MISS:          0 MSHR_MERGE:          0
cpu0->cpu0_L1I LOAD         ACCESS:   13739753 HIT:   13739753 MISS:          0 MSHR_MERGE:          0
cpu0->cpu0_L1I RFO          ACCESS:          0 HIT:          0 MISS:          0 MSHR_MERGE:          0
cpu0->cpu0_L1I PREFETCH     ACCESS:          0 HIT:          0 MISS:          0 MSHR_MERGE:          0
cpu0->cpu0_L1I WRITE        ACCESS:          0 HIT:          0 MISS:          0 MSHR_MERGE:          0
cpu0->cpu0_L1I TRANSLATION  ACCESS:          0 HIT:          0 MISS:          0 MSHR_MERGE:          0
cpu0->cpu0_L1I PREFETCH REQUESTED:          0 ISSUED:          0 USEFUL:          0 USELESS:          0 LATE:          0 TOO_EARLY:          0
cpu0->cpu0_L1I AVERAGE MISS LATENCY: - cycles
cpu0->cpu0_L1D TOTAL        ACCESS:   36912305 HIT:   34347711 MISS:    2564594 MSHR_MERGE:      82219
cpu0->cpu0_L1D LOAD         ACCESS:   13953694 HIT:   13706152 MISS:     247542 MSHR_MERGE:      71840
cpu0->cpu0_L1D RFO          ACCESS:          0 HIT:          0 MISS:          0 MSHR_MERGE:          0
cpu0->cpu0_L1D PREFETCH     ACCESS:    9989435 HIT:    7689985 MISS:    2299450 MSHR_MERGE:       4932
cpu0->cpu0_L1D WRITE        ACCESS:   12924994 HIT:   12916196 MISS:       8798 MSHR_MERGE:       3643
cpu0->cpu0_L1D TRANSLATION  ACCESS:      44182 HIT:      35378 MISS:       8804 MSHR_MERGE:       1804
cpu0->cpu0_L1D PREFETCH REQUESTED:   23947629 ISSUED:    9989433 USEFUL:     187672 USELESS:     216148 LATE:       1160 TOO_EARLY:      15096
cpu0->cpu0_L1D AVERAGE MISS LATENCY: 21.61 cycles
cpu0->cpu0_ITLB TOTAL        ACCESS:   11501655 HIT:   11501655 MISS:          0 MSHR_MERGE:          0
cpu0->cpu0_ITLB LOAD         ACCESS:   11501655 HIT:   11501655 MISS:          0 MSHR_MERGE:          0
cpu0->cpu0_ITLB RFO          ACCESS:          0 HIT:          0 MISS:          0 MSHR_MERGE:          0
cpu0->cpu0_ITLB PREFETCH     ACCESS:          0 HIT:          0 MISS:          0 MSHR_MERGE:          0
cpu0->cpu0_ITLB WRITE        ACCESS:          0 HIT:          0 MISS:          0 MSHR_MERGE:          0
cpu0->cpu0_ITLB TRANSLATION  ACCESS:          0 HIT:          0 MISS:          0 MSHR_MERGE:          0
cpu0->cpu0_ITLB PREFETCH REQUESTED:          0 ISSUED:          0 USEFUL:          0 USELESS:          0 LATE:          0 TOO_EARLY:          0
cpu0->cpu0_ITLB AVERAGE MISS LATENCY: - cycles
cpu0->cpu0_DTLB TOTAL        ACCESS:   32961872 HIT:   32478088 MISS:     483784 MSHR_MERGE:      64050
cpu0->cpu0_DTLB LOAD         ACCESS:   32961872 HIT:   32478088 MISS:     483784 MSHR_MERGE:      64050
cpu0->cpu0_DTLB RFO          ACCESS:          0 HIT:          0 MISS:          0 MSHR_MERGE:          0
cpu0->cpu0_DTLB PREFETCH     ACCESS:          0 HIT:          0 MISS:          0 MSHR_MERGE:          0
cpu0->cpu0_DTLB WRITE        ACCESS:          0 HIT:          0 MISS:          0 MSHR_MERGE:          0
cpu0->cpu0_DTLB TRANSLATION  ACCESS:          0 HIT:          0 MISS:          0 MSHR_MERGE:          0
cpu0->cpu0_DTLB PREFETCH REQUESTED:          0 ISSUED:          0 USEFUL:          0 USELESS:          0 LATE:          0 TOO_EARLY:          0
cpu0->cpu0_DTLB AVERAGE MISS LATENCY: 7.293 cycles
cpu0->LLC TOTAL        ACCESS:     352794 HIT:     185825 MISS:     166969 MSHR_MERGE:        102
cpu0->LLC LOAD         ACCESS:      23379 HIT:      14279 MISS:       9100 MSHR_MERGE:          0
cpu0->LLC RFO          ACCESS:       1362 HIT:        743 MISS:        619 MSHR_MERGE:          0
cpu0->LLC PREFETCH     ACCESS:     206826 HIT:      96258 MISS:     110568 MSHR_MERGE:        102
cpu0->LLC WRITE        ACCESS:     118140 HIT:      72195 MISS:      45945 MSHR_MERGE:          0
cpu0->LLC TRANSLATION  ACCESS:       3087 HIT:       2350 MISS:        737 MSHR_MERGE:          0
cpu0->LLC PREFETCH REQUESTED:          0 ISSUED:          0 USEFUL:          0 USELESS:          0 LATE:          0 TOO_EARLY:          0
cpu0->LLC AVERAGE MISS LATENCY: 41.9 cycles

DRAM Statistics

Channel 0 RQ ROW_BUFFER_HIT:       4794
  ROW_BUFFER_MISS:     116086
  AVG DBUS CONGESTED CYCLE: 14.55
Channel 0 WQ ROW_BUFFER_HIT:       7741
  ROW_BUFFER_MISS:      49135
  FULL:          0
Channel 0 REFRESHES ISSUED:       3592

[ROI Statistics]
[System Configuration]
num_cpus 1
cpu_freq 4000
fetch_width 6
decode_width 6
dispatch_width 6
execute_width 6
lq_width 2
sq_width 2
retire_width 6
scheduler_size 128
branch_mispredict_penalty 15
rob_size 352
lq_size 128
sq_size 72
ifetch_buffer_size 64
decode_buffer_size 32
dispatch_buffer_size 32
register_file_size 288
decode_latency 1
dispatch_latency 1
schedule_latency 1
execute_latency 1
page_size 4096
block_size 64
core_0_itlb_set 16
core_0_itlb_way 4
core_0_itlb_rq_size 16
core_0_itlb_wq_size 16
core_0_itlb_pq_size 0
core_0_itlb_mshr_size 8
core_0_itlb_hit_latency 1
core_0_itlb_fill_latency 1
core_0_itlb_max_tag_check 2
core_0_itlb_max_fill 2
core_0_dtlb_set 16
core_0_dtlb_way 4
core_0_dtlb_rq_size 16
core_0_dtlb_wq_size 16
core_0_dtlb_pq_size 0
core_0_dtlb_mshr_size 8
core_0_dtlb_hit_latency 1
core_0_dtlb_fill_latency 1
core_0_dtlb_max_tag_check 2
core_0_dtlb_max_fill 2
core_0_stlb_set 128
core_0_stlb_way 12
core_0_stlb_rq_size 32
core_0_stlb_wq_size 32
core_0_stlb_pq_size 0
core_0_stlb_mshr_size 16
core_0_stlb_hit_latency 4
core_0_stlb_fill_latency 4
core_0_stlb_max_tag_check 1
core_0_stlb_max_fill 1
core_0_l1i_set 64
core_0_l1i_way 8
core_0_l1i_rq_size 64
core_0_l1i_wq_size 64
core_0_l1i_pq_size 32
core_0_l1i_mshr_size 8
core_0_l1i_hit_latency 2
core_0_l1i_fill_latency 2
core_0_l1i_max_tag_check 2
core_0_l1i_max_fill 2
core_0_l1d_set 64
core_0_l1d_way 12
core_0_l1d_rq_size 64
core_0_l1d_wq_size 64
core_0_l1d_pq_size 8
core_0_l1d_mshr_size 16
core_0_l1d_hit_latency 2
core_0_l1d_fill_latency 3
core_0_l1d_max_tag_check 2
core_0_l1d_max_fill 2
core_0_l2c_set 1024
core_0_l2c_way 8
core_0_l2c_rq_size 32
core_0_l2c_wq_size 32
core_0_l2c_pq_size 16
core_0_l2c_mshr_size 32
core_0_l2c_hit_latency 5
core_0_l2c_fill_latency 5
core_0_l2c_max_tag_check 1
core_0_l2c_max_fill 1
llc_set 2048
llc_way 16
llc_rq_size 32
llc_wq_size 32
llc_pq_size 32
llc_mshr_size 64
llc_hit_latency 10
llc_fill_latency 10
llc_max_tag_check 1
llc_max_fill 1
dram_channels 1
dram_ranks 1
dram_bankgroups 8
dram_banks 4
dram_rows 65536
dram_columns 1024
dram_channel_width 8
dram_rq_size 64
dram_wq_size 64
dram_size 17179869184
core_0_itlb_prefetcher no
core_0_dtlb_prefetcher no
core_0_stlb_prefetcher no
core_0_l1i_prefetcher next_line
core_0_l1d_prefetcher vberti
core_0_l2c_prefetcher ip_stride
llc_prefetcher no
llc_replacement drrip

Core_0_instructions 100000003
Core_0_cycles 43109630
Core_0_IPC 2.31967
Core_0_branch_prediction_accuracy 99.2703
Core_0_branch_MPKI 0.95178
Core_0_average_ROB_occupancy_at_mispredict 169.172

Core_0_ITLB_total_access 11501655
Core_0_ITLB_total_hit 11501655
Core_0_ITLB_total_miss 0
Core_0_ITLB_total_MPKI 0
Core_0_ITLB_total_miss_rate 0
Core_0_ITLB_demand_access 11501655
Core_0_ITLB_demand_hit 11501655
Core_0_ITLB_demand_miss 0
Core_0_ITLB_demand_MPKI 0
Core_0_ITLB_demand_miss_rate 0
Core_0_ITLB_load_access 11501655
Core_0_ITLB_load_hit 11501655
Core_0_ITLB_load_miss 0
Core_0_ITLB_load_MPKI 0
Core_0_ITLB_load_miss_rate 0
Core_0_ITLB_rfo_access 0
Core_0_ITLB_rfo_hit 0
Core_0_ITLB_rfo_miss 0
Core_0_ITLB_rfo_MPKI 0
Core_0_ITLB_rfo_miss_rate 0
Core_0_ITLB_prefetch_access 0
Core_0_ITLB_prefetch_hit 0
Core_0_ITLB_prefetch_miss 0
Core_0_ITLB_prefetch_MPKI 0
Core_0_ITLB_prefetch_miss_rate 0
Core_0_ITLB_writeback_access 0
Core_0_ITLB_writeback_hit 0
Core_0_ITLB_writeback_miss 0
Core_0_ITLB_writeback_MPKI 0
Core_0_ITLB_writeback_miss_rate 0
Core_0_ITLB_prefetch_requested 0
Core_0_ITLB_prefetch_issued 0
Core_0_ITLB_prefetch_useful 0
Core_0_ITLB_prefetch_useless 0
Core_0_ITLB_prefetch_late 0
Core_0_ITLB_prefetch_fill 0
Core_0_ITLB_prefetch_too_early 0
Core_0_ITLB_prefetch_too_early_among_fill 0
Core_0_ITLB_prefetch_too_early_among_useless 0
Core_0_ITLB_prefetch_pollution_evict 0
Core_0_ITLB_prefetch_pollution_demand 0
Core_0_ITLB_prefetch_pollution_among_prefetch_fill 0
Core_0_ITLB_prefetch_accuracy 0
Core_0_ITLB_prefetch_coverage 0

Core_0_DTLB_total_access 32961872
Core_0_DTLB_total_hit 32478088
Core_0_DTLB_total_miss 483784
Core_0_DTLB_total_MPKI 4.83784
Core_0_DTLB_total_miss_rate 0.0146771
Core_0_DTLB_demand_access 32961872
Core_0_DTLB_demand_hit 32478088
Core_0_DTLB_demand_miss 483784
Core_0_DTLB_demand_MPKI 4.83784
Core_0_DTLB_demand_miss_rate 0.0146771
Core_0_DTLB_load_access 32961872
Core_0_DTLB_load_hit 32478088
Core_0_DTLB_load_miss 483784
Core_0_DTLB_load_MPKI 4.83784
Core_0_DTLB_load_miss_rate 0.0146771
Core_0_DTLB_rfo_access 0
Core_0_DTLB_rfo_hit 0
Core_0_DTLB_rfo_miss 0
Core_0_DTLB_rfo_MPKI 0
Core_0_DTLB_rfo_miss_rate 0
Core_0_DTLB_prefetch_access 0
Core_0_DTLB_prefetch_hit 0
Core_0_DTLB_prefetch_miss 0
Core_0_DTLB_prefetch_MPKI 0
Core_0_DTLB_prefetch_miss_rate 0
Core_0_DTLB_writeback_access 0
Core_0_DTLB_writeback_hit 0
Core_0_DTLB_writeback_miss 0
Core_0_DTLB_writeback_MPKI 0
Core_0_DTLB_writeback_miss_rate 0
Core_0_DTLB_prefetch_requested 0
Core_0_DTLB_prefetch_issued 0
Core_0_DTLB_prefetch_useful 0
Core_0_DTLB_prefetch_useless 0
Core_0_DTLB_prefetch_late 0
Core_0_DTLB_prefetch_fill 0
Core_0_DTLB_prefetch_too_early 0
Core_0_DTLB_prefetch_too_early_among_fill 0
Core_0_DTLB_prefetch_too_early_among_useless 0
Core_0_DTLB_prefetch_pollution_evict 0
Core_0_DTLB_prefetch_pollution_demand 0
Core_0_DTLB_prefetch_pollution_among_prefetch_fill 0
Core_0_DTLB_prefetch_accuracy 0
Core_0_DTLB_prefetch_coverage 0

Core_0_STLB_total_access 419734
Core_0_STLB_total_hit 390009
Core_0_STLB_total_miss 29725
Core_0_STLB_total_MPKI 0.29725
Core_0_STLB_total_miss_rate 0.0708187
Core_0_STLB_demand_access 419734
Core_0_STLB_demand_hit 390009
Core_0_STLB_demand_miss 29725
Core_0_STLB_demand_MPKI 0.29725
Core_0_STLB_demand_miss_rate 0.0708187
Core_0_STLB_load_access 419734
Core_0_STLB_load_hit 390009
Core_0_STLB_load_miss 29725
Core_0_STLB_load_MPKI 0.29725
Core_0_STLB_load_miss_rate 0.0708187
Core_0_STLB_rfo_access 0
Core_0_STLB_rfo_hit 0
Core_0_STLB_rfo_miss 0
Core_0_STLB_rfo_MPKI 0
Core_0_STLB_rfo_miss_rate 0
Core_0_STLB_prefetch_access 0
Core_0_STLB_prefetch_hit 0
Core_0_STLB_prefetch_miss 0
Core_0_STLB_prefetch_MPKI 0
Core_0_STLB_prefetch_miss_rate 0
Core_0_STLB_writeback_access 0
Core_0_STLB_writeback_hit 0
Core_0_STLB_writeback_miss 0
Core_0_STLB_writeback_MPKI 0
Core_0_STLB_writeback_miss_rate 0
Core_0_STLB_prefetch_requested 0
Core_0_STLB_prefetch_issued 0
Core_0_STLB_prefetch_useful 0
Core_0_STLB_prefetch_useless 0
Core_0_STLB_prefetch_late 0
Core_0_STLB_prefetch_fill 0
Core_0_STLB_prefetch_too_early 0
Core_0_STLB_prefetch_too_early_among_fill 0
Core_0_STLB_prefetch_too_early_among_useless 0
Core_0_STLB_prefetch_pollution_evict 0
Core_0_STLB_prefetch_pollution_demand 0
Core_0_STLB_prefetch_pollution_among_prefetch_fill 0
Core_0_STLB_prefetch_accuracy 0
Core_0_STLB_prefetch_coverage 0

Core_0_L1I_total_access 13739753
Core_0_L1I_total_hit 13739753
Core_0_L1I_total_miss 0
Core_0_L1I_total_MPKI 0
Core_0_L1I_total_miss_rate 0
Core_0_L1I_demand_access 13739753
Core_0_L1I_demand_hit 13739753
Core_0_L1I_demand_miss 0
Core_0_L1I_demand_MPKI 0
Core_0_L1I_demand_miss_rate 0
Core_0_L1I_load_access 13739753
Core_0_L1I_load_hit 13739753
Core_0_L1I_load_miss 0
Core_0_L1I_load_MPKI 0
Core_0_L1I_load_miss_rate 0
Core_0_L1I_rfo_access 0
Core_0_L1I_rfo_hit 0
Core_0_L1I_rfo_miss 0
Core_0_L1I_rfo_MPKI 0
Core_0_L1I_rfo_miss_rate 0
Core_0_L1I_prefetch_access 0
Core_0_L1I_prefetch_hit 0
Core_0_L1I_prefetch_miss 0
Core_0_L1I_prefetch_MPKI 0
Core_0_L1I_prefetch_miss_rate 0
Core_0_L1I_writeback_access 0
Core_0_L1I_writeback_hit 0
Core_0_L1I_writeback_miss 0
Core_0_L1I_writeback_MPKI 0
Core_0_L1I_writeback_miss_rate 0
Core_0_L1I_prefetch_requested 0
Core_0_L1I_prefetch_issued 0
Core_0_L1I_prefetch_useful 0
Core_0_L1I_prefetch_useless 0
Core_0_L1I_prefetch_late 0
Core_0_L1I_prefetch_fill 0
Core_0_L1I_prefetch_too_early 0
Core_0_L1I_prefetch_too_early_among_fill 0
Core_0_L1I_prefetch_too_early_among_useless 0
Core_0_L1I_prefetch_pollution_evict 0
Core_0_L1I_prefetch_pollution_demand 0
Core_0_L1I_prefetch_pollution_among_prefetch_fill 0
Core_0_L1I_prefetch_accuracy 0
Core_0_L1I_prefetch_coverage 0

Core_0_L1D_total_access 36868123
Core_0_L1D_total_hit 34312333
Core_0_L1D_total_miss 2555790
Core_0_L1D_total_MPKI 25.5579
Core_0_L1D_total_miss_rate 0.0693225
Core_0_L1D_demand_access 13953694
Core_0_L1D_demand_hit 13706152
Core_0_L1D_demand_miss 247542
Core_0_L1D_demand_MPKI 2.47542
Core_0_L1D_demand_miss_rate 0.0177402
Core_0_L1D_load_access 13953694
Core_0_L1D_load_hit 13706152
Core_0_L1D_load_miss 247542
Core_0_L1D_load_MPKI 2.47542
Core_0_L1D_load_miss_rate 0.0177402
Core_0_L1D_rfo_access 0
Core_0_L1D_rfo_hit 0
Core_0_L1D_rfo_miss 0
Core_0_L1D_rfo_MPKI 0
Core_0_L1D_rfo_miss_rate 0
Core_0_L1D_prefetch_access 9989435
Core_0_L1D_prefetch_hit 7689985
Core_0_L1D_prefetch_miss 2299450
Core_0_L1D_prefetch_MPKI 22.9945
Core_0_L1D_prefetch_miss_rate 0.230188
Core_0_L1D_writeback_access 12924994
Core_0_L1D_writeback_hit 12916196
Core_0_L1D_writeback_miss 8798
Core_0_L1D_writeback_MPKI 0.08798
Core_0_L1D_writeback_miss_rate 0.000680697
Core_0_L1D_prefetch_requested 23947629
Core_0_L1D_prefetch_issued 9989433
Core_0_L1D_prefetch_useful 187672
Core_0_L1D_prefetch_useless 216148
Core_0_L1D_prefetch_late 1160
Core_0_L1D_prefetch_fill 402803
Core_0_L1D_prefetch_too_early 15096
Core_0_L1D_prefetch_too_early_among_fill 0.0374774
Core_0_L1D_prefetch_too_early_among_useless 0.069841
Core_0_L1D_prefetch_pollution_evict 85368
Core_0_L1D_prefetch_pollution_demand 76990
Core_0_L1D_prefetch_pollution_among_prefetch_fill 0.211935
Core_0_L1D_prefetch_accuracy 0.0187871
Core_0_L1D_prefetch_coverage 0.431218

Core_0_L2C_total_access 3028656
Core_0_L2C_total_hit 2732584
Core_0_L2C_total_miss 296072
Core_0_L2C_total_MPKI 2.96072
Core_0_L2C_total_miss_rate 0.0977569
Core_0_L2C_demand_access 180643
Core_0_L2C_demand_hit 155189
Core_0_L2C_demand_miss 25454
Core_0_L2C_demand_MPKI 0.25454
Core_0_L2C_demand_miss_rate 0.140908
Core_0_L2C_load_access 175603
Core_0_L2C_load_hit 151524
Core_0_L2C_load_miss 24079
Core_0_L2C_load_MPKI 0.24079
Core_0_L2C_load_miss_rate 0.137122
Core_0_L2C_rfo_access 5040
Core_0_L2C_rfo_hit 3665
Core_0_L2C_rfo_miss 1375
Core_0_L2C_rfo_MPKI 0.01375
Core_0_L2C_rfo_miss_rate 0.272817
Core_0_L2C_prefetch_access 2666352
Core_0_L2C_prefetch_hit 2395787
Core_0_L2C_prefetch_miss 270565
Core_0_L2C_prefetch_MPKI 2.70565
Core_0_L2C_prefetch_miss_rate 0.101474
Core_0_L2C_writeback_access 181661
Core_0_L2C_writeback_hit 181608
Core_0_L2C_writeback_miss 53
Core_0_L2C_writeback_MPKI 0.00053
Core_0_L2C_writeback_miss_rate 0.000291752
Core_0_L2C_prefetch_requested 380876
Core_0_L2C_prefetch_issued 380866
Core_0_L2C_prefetch_useful 38391
Core_0_L2C_prefetch_useless 4063
Core_0_L2C_prefetch_late 1
Core_0_L2C_prefetch_fill 205855
Core_0_L2C_prefetch_too_early 52
Core_0_L2C_prefetch_too_early_among_fill 0.000252605
Core_0_L2C_prefetch_too_early_among_useless 0.0127984
Core_0_L2C_prefetch_pollution_evict 3782
Core_0_L2C_prefetch_pollution_demand 3781
Core_0_L2C_prefetch_pollution_among_prefetch_fill 0.0183722
Core_0_L2C_prefetch_accuracy 0.100799
Core_0_L2C_prefetch_coverage 0.601316

Core_0_LLC_total_access 349707
Core_0_LLC_total_hit 183475
Core_0_LLC_total_miss 166232
Core_0_LLC_total_MPKI 1.66232
Core_0_LLC_total_miss_rate 0.475347
Core_0_LLC_demand_access 24741
Core_0_LLC_demand_hit 15022
Core_0_LLC_demand_miss 9719
Core_0_LLC_demand_MPKI 0.09719
Core_0_LLC_demand_miss_rate 0.39283
Core_0_LLC_load_access 23379
Core_0_LLC_load_hit 14279
Core_0_LLC_load_miss 9100
Core_0_LLC_load_MPKI 0.091
Core_0_LLC_load_miss_rate 0.389238
Core_0_LLC_rfo_access 1362
Core_0_LLC_rfo_hit 743
Core_0_LLC_rfo_miss 619
Core_0_LLC_rfo_MPKI 0.00619
Core_0_LLC_rfo_miss_rate 0.454479
Core_0_LLC_prefetch_access 206826
Core_0_LLC_prefetch_hit 96258
Core_0_LLC_prefetch_miss 110568
Core_0_LLC_prefetch_MPKI 1.10568
Core_0_LLC_prefetch_miss_rate 0.534594
Core_0_LLC_writeback_access 118140
Core_0_LLC_writeback_hit 72195
Core_0_LLC_writeback_miss 45945
Core_0_LLC_writeback_MPKI 0.45945
Core_0_LLC_writeback_miss_rate 0.388903
Core_0_LLC_prefetch_requested 0
Core_0_LLC_prefetch_issued 0
Core_0_LLC_prefetch_useful 0
Core_0_LLC_prefetch_useless 0
Core_0_LLC_prefetch_late 0
Core_0_LLC_prefetch_fill 110466
Core_0_LLC_prefetch_too_early 0
Core_0_LLC_prefetch_too_early_among_fill 0
Core_0_LLC_prefetch_too_early_among_useless 0
Core_0_LLC_prefetch_pollution_evict 4450
Core_0_LLC_prefetch_pollution_demand 4450
Core_0_LLC_prefetch_pollution_among_prefetch_fill 0.0402839
Core_0_LLC_prefetch_accuracy 0
Core_0_LLC_prefetch_coverage 0

[DRAM Statistics]
Channel_0_RQ_row_buffer_hit 4794
Channel_0_RQ_row_buffer_miss 116086
Channel_0_WQ_row_buffer_hit 7741
Channel_0_WQ_row_buffer_miss 49135
Channel_0_WQ_full 0
Channel_0_dbus_congested 374164
DRAM_total_RQ_row_buffer_hit 4794
DRAM_total_RQ_row_buffer_miss 116086
DRAM_total_WQ_row_buffer_hit 7741
DRAM_total_WQ_row_buffer_miss 49135
DRAM_total_WQ_full 0
DRAM_total_dbus_congested 374164
DRAM_avg_congested_cycle 14.5456

====== DRAM_RQ_TRAFFIC ========
DRAM_RQ_READ_TRAFFIC_BREAKDOWN:
data_demand_read.count = 9719
data_demand_read.share = 8.04%

inst_demand_read.count = 0
inst_demand_read.share = 0.00%

cache_inst_prefetch.count = 0
cache_inst_prefetch.share = 0.00%

cache_data_prefetch.count = 110466
cache_data_prefetch.share = 91.35%

stlb_data_demand.count = 201
stlb_data_demand.share = 0.17%

stlb_inst_demand.count = 0
stlb_inst_demand.share = 0.00%

stlb_l1i_pref.count = 0
stlb_l1i_pref.share = 0.00%

stlb_l1d_pref.count = 536
stlb_l1d_pref.share = 0.44%

DRAM_RQ_READ_TRAFFIC_SUMMARY:
cache_demand.count = 9719
cache_demand.share = 8.04%

cache_prefetch.count = 110466
cache_prefetch.share = 91.35%

stlb_demand.count = 201
stlb_demand.share = 0.17%

stlb_prefetch.count = 536
stlb_prefetch.share = 0.44%

DRAM_RQ_READ_TRAFFIC_DEBUG:
total_classified_read.count = 120922
unclassified_read.count = 0
total_read_with_other.count = 120922

classified_plus_unclassified_check.count = 120922
dram_rq_read_total_observed.count = 120922
dram_rq_read_total_observed.per_1K_instructions = 1.20922

STLB_MISS_PTW_DRAM_TOUCH_BREAKDOWN:
stlb_miss_total.count = 25227

stlb_miss_touch_dram.count = 778
stlb_miss_touch_dram.share = 3.08%

stlb_miss_no_dram_touch.count = 24449
stlb_miss_no_dram_touch.share = 96.92%

STLB_MISS_PTW_DRAM_TOUCH_DEBUG:
stlb_miss_touch_plus_no_touch.count = 25227
stlb_miss_total_check.count = 25227

======STLB miss causes ========
Core_0_STLB_miss_cause_breakdown
Core_0_STLB_cause_Demand_Data_miss 6472
Core_0_STLB_cause_Demand_Data_miss_rate 0.0154193
Core_0_STLB_cause_Demand_Instruction_miss 0
Core_0_STLB_cause_Demand_Instruction_miss_rate 0
Core_0_STLB_cause_L1D_Prefetch_miss 23253
Core_0_STLB_cause_L1D_Prefetch_miss_rate 0.0553994
Core_0_STLB_cause_L1D_Prefetch_Same_Page_miss 3
Core_0_STLB_cause_L1D_Prefetch_Same_Page_miss_rate 7.14738e-06
Core_0_STLB_cause_L1D_Prefetch_Cross_Page_miss 23250
Core_0_STLB_cause_L1D_Prefetch_Cross_Page_miss_rate 0.0553922
Core_0_STLB_cause_L1I_Prefetch_miss 0
Core_0_STLB_cause_L1I_Prefetch_miss_rate 0
Core_0_STLB_cause_Other_miss 0
Core_0_STLB_cause_Other_miss_rate 0
Core_0_STLB_Demand_miss 6472
Core_0_STLB_Demand_miss_rate 0.0154193
Core_0_STLB_L1D_Prefetch_miss 23253
Core_0_STLB_L1D_Prefetch_miss_rate 0.0553994
Core_0_STLB_Other_miss 0
Core_0_STLB_Other_miss_rate 0

========== vBerti-TLB Cross-page Flow Stats ==========

Core_0_vBerti_Requested 23947629
Core_0_vBerti_Cross_page_prefetch_in_Requested 11925912
Core_0_vBerti_Same_page_prefetch_in_Requested 12021717
Core_0_vBerti_Cross_page_prefetch_of_Requested 0.498
Core_0_vBerti_Issued 9989433
Core_0_vBerti_PQ_Drop_Rate 0.582863
Core_0_vBerti_InPQ_Cross_page_prefetch_of_Requested 0.158702
Core_0_vBerti_Cross_page_PQ_Drop_rate 0.681321
Core_0_vBerti_Cross_page_prefetch_of_Issued 0.380455

========= DTLB_vBerti Prefetch Stats =========
Core_0_DTLB_demand_access 24727365
Core_0_DTLB_demand_hit 24553526
Core_0_DTLB_demand_miss 173839
Core_0_DTLB_demand_mshr_merge 26201
Core_0_DTLB_demand_fill 147924
Core_0_DTLB_demand_miss_rate 0.00703023
Core_0_DTLB_demand_mpki 1.73839
Core_0_DTLB_vberti_prefetch_access 8234507
Core_0_DTLB_vberti_prefetch_hit 7924562
Core_0_DTLB_vberti_prefetch_miss 309945
Core_0_DTLB_vberti_prefetch_mshr_merge 37849
Core_0_DTLB_vberti_prefetch_fill 271810
Core_0_DTLB_vberti_prefetch_miss_rate 0.0376398
Core_0_DTLB_vberti_prefetch_mpki 3.09945

=== DTLB_vBerti Same/Cross-page Prefetch Stats ===
Core_0_DTLB_vberti_same_page_prefetch 4677702
Core_0_DTLB_vberti_same_page_prefetch_hit 4677685
Core_0_DTLB_vberti_same_page_prefetch_miss 17
Core_0_DTLB_vberti_same_page_prefetch_mshr_merge 8
Core_0_DTLB_vberti_same_page_prefetch_fill 5
Core_0_DTLB_vberti_same_page_prefetch_miss_rate 3.63426e-06
Core_0_DTLB_vberti_same_page_prefetch_mpki 0.00017
Core_0_DTLB_vberti_cross_page_prefetch 3556805
Core_0_DTLB_vberti_cross_page_prefetch_hit 3246877
Core_0_DTLB_vberti_cross_page_prefetch_miss 309928
Core_0_DTLB_vberti_cross_page_prefetch_mshr_merge 37841
Core_0_DTLB_vberti_cross_page_prefetch_fill 271805
Core_0_DTLB_vberti_cross_page_prefetch_miss_rate 0.0871366
Core_0_DTLB_vberti_cross_page_prefetch_mpki 3.09928
Core_0_DTLB_same_page_prefetch_miss_rate 3.63426e-06
Core_0_DTLB_same_page_prefetch_mpki 0.00017
Core_0_DTLB_cross_page_prefetch_miss_rate 0.0871366
Core_0_DTLB_cross_page_prefetch_mpki 3.09928
Core_0_DTLB_cross_page_prefetch_issued 3556805
Core_0_DTLB_cross_page_prefetch_lookups 3556805
Core_0_DTLB_cross_page_prefetch_useful 95726
Core_0_DTLB_cross_page_prefetch_useless 176361
Core_0_DTLB_cross_page_prefetch_late 282
Core_0_DTLB_cross_page_prefetch_too_early 5414
Core_0_DTLB_cross_page_prefetch_too_early_among_fill 0.0199187
Core_0_DTLB_cross_page_prefetch_too_early_among_useless 0.0306984
Core_0_DTLB_cross_page_prefetch_pollution_evict 18427
Core_0_DTLB_cross_page_prefetch_pollution_demand 11050
Core_0_DTLB_cross_page_prefetch_pollution_among_prefetch_fill 0.0677949
Core_0_DTLB_cross_page_prefetch_accuracy 0.0269135
Core_0_DTLB_cross_page_prefetch_coverage 0.355113

========= STLB_vBerti Prefetch Stats =========
Core_0_STLB_demand_access 147638
Core_0_STLB_demand_hit 141166
Core_0_STLB_demand_miss 6472
Core_0_STLB_demand_mshr_merge 0
Core_0_STLB_demand_fill 6472
Core_0_STLB_demand_miss_rate 0.043837
Core_0_STLB_demand_mpki 0.06472
Core_0_STLB_vberti_prefetch_access 272096
Core_0_STLB_vberti_prefetch_hit 248843
Core_0_STLB_vberti_prefetch_miss 23253
Core_0_STLB_vberti_prefetch_mshr_merge 0
Core_0_STLB_vberti_prefetch_fill 3
Core_0_STLB_vberti_prefetch_miss_rate 0.0854588
Core_0_STLB_vberti_prefetch_mpki 0.23253

=== STLB_vBerti Same/Cross-page Prefetch Stats ===
Core_0_STLB_vberti_same_page_prefetch 9
Core_0_STLB_vberti_same_page_prefetch_hit 6
Core_0_STLB_vberti_same_page_prefetch_miss 3
Core_0_STLB_vberti_same_page_prefetch_mshr_merge 0
Core_0_STLB_vberti_same_page_prefetch_fill 3
Core_0_STLB_vberti_same_page_prefetch_miss_rate 0.333333
Core_0_STLB_vberti_same_page_prefetch_mpki 3e-05
Core_0_STLB_vberti_cross_page_prefetch 272087
Core_0_STLB_vberti_cross_page_prefetch_hit 248837
Core_0_STLB_vberti_cross_page_prefetch_miss 23250
Core_0_STLB_vberti_cross_page_prefetch_mshr_merge 0
Core_0_STLB_vberti_cross_page_prefetch_fill 0
Core_0_STLB_vberti_cross_page_prefetch_miss_rate 0.0854506
Core_0_STLB_vberti_cross_page_prefetch_mpki 0.2325
Core_0_STLB_same_page_prefetch_miss_rate 0.333333
Core_0_STLB_same_page_prefetch_mpki 3e-05
Core_0_STLB_cross_page_prefetch_miss_rate 0.0854506
Core_0_STLB_cross_page_prefetch_mpki 0.2325
Core_0_STLB_cross_page_prefetch_issued 272087
Core_0_STLB_cross_page_prefetch_lookups 272087
Core_0_STLB_cross_page_prefetch_useful 4498
Core_0_STLB_cross_page_prefetch_useless 1962
Core_0_STLB_cross_page_prefetch_late 4498
Core_0_STLB_cross_page_prefetch_too_early 0
Core_0_STLB_cross_page_prefetch_too_early_among_fill 0
Core_0_STLB_cross_page_prefetch_too_early_among_useless 0
Core_0_STLB_cross_page_prefetch_pollution_evict 0
Core_0_STLB_cross_page_prefetch_pollution_demand 0
Core_0_STLB_cross_page_prefetch_pollution_among_prefetch_fill 0
Core_0_STLB_cross_page_prefetch_accuracy 0.0165315
Core_0_STLB_cross_page_prefetch_coverage 0.410027

========= STLB Cross-page Prefetch Buffer Stats =========
Core_0_STLB_raw_demand_miss 6472
Core_0_CP_PB_insert 23250
Core_0_CP_PB_demand_hit 4498
Core_0_STLB_PB_demand_miss 1974
Core_0_CP_PB_coverage 0.694994
Core_0_STLB_raw_demand_mpki 0.06472
Core_0_STLB_PB_demand_mpki 0.01974
Core_0_CP_PB_demand_hit_mpki 0.04498

Core_0_TLB_demand_miss_rate 0.000261734
Core_0_TLB_demand_mpki 0.06472
Core_0_TLB_same_page_prefetch_miss_rate 6.41341e-07
Core_0_TLB_same_page_prefetch_mpki 3e-05
Core_0_TLB_cross_page_prefetch_miss_rate 0.00653677
Core_0_TLB_cross_page_prefetch_mpki 0.2325
Core_0_TLB_cross_page_prefetch_issued 3556805
Core_0_TLB_cross_page_prefetch_lookups 3556805
Core_0_TLB_cross_page_prefetch_useful 2714
Core_0_TLB_cross_page_prefetch_useless 10459
Core_0_TLB_cross_page_prefetch_late 13
Core_0_TLB_cross_page_prefetch_too_early 1053
Core_0_TLB_cross_page_prefetch_too_early_among_fill 0.0038741
Core_0_TLB_cross_page_prefetch_too_early_among_useless 0.100679
Core_0_TLB_cross_page_prefetch_accuracy 0.000763044
Core_0_TLB_cross_page_prefetch_coverage 0.29545
BERTI TO_L1: 18573659 TO_L2: 10632660 TO_L2_BC_MSHR: 12773
BERTI AVG_LAT: 53.3175 NUM_TRACK_LATENCY: 748487 NUM_CANT_TRACK_LATENCY: 81
BERTI CROSS_PAGE 13573854 NO_CROSS_PAGE: 15632465
BERTI FOUND_BERTI: 7653699 NO_FOUND_BERTI: 29409586
BERTI AVERAGE_ISSUED: 3.49362
