[VMEM] WARNING: physical memory size is smaller than virtual memory size.

*** ChampSim Multicore Out-of-Order Simulator ***
Warmup Instructions: 50000000
Simulation Instructions: 100000000
Number of CPUs: 1
Page size: 4096
Core 0: /data0/tzh/champsim_traces/SPEC06/481.wrf-196B.champsimtrace.xz
VBerti Prefetcher
BERTI HASH ENTANGLING
BERTI IP MASK ffff
Off-chip DRAM Size: 16 GiB Channels: 1 Width: 64-bit Data Rate: 3205 MT/s
Warmup halting CPU 0 at instruction 50000001 cycle 10374564 for remainder of phase
Warmup finished CPU 0 instructions: 50000001 cycles: 10374564 cumulative IPC: 4.819 (Simulation time: 00 hr 02 min 35 sec)
Warmup complete CPU 0 instructions: 50000001 cycles: 10374564 cumulative IPC: 4.819 (Simulation time: 00 hr 02 min 35 sec)
Simulation finished CPU 0 instructions: 100000001 cycles: 24645022 cumulative IPC: 4.058 (Simulation time: 00 hr 09 min 01 sec)
Simulation complete CPU 0 instructions: 100000001 cycles: 24645022 cumulative IPC: 4.058 (Simulation time: 00 hr 09 min 01 sec)

ChampSim completed all CPUs

=== Simulation ===
CPU 0 runs /data0/tzh/champsim_traces/SPEC06/481.wrf-196B.champsimtrace.xz

Region of Interest Statistics

CPU 0 cumulative IPC: 4.058 instructions: 100000001 cycles: 24645022
CPU 0 Branch Prediction Accuracy: 99.95% MPKI: 0.01742 Average ROB Occupancy at Mispredict: 267.1
Branch type MPKI
BRANCH_DIRECT_JUMP: 0.00036
BRANCH_INDIRECT: 0
BRANCH_CONDITIONAL: 0.01693
BRANCH_DIRECT_CALL: 7e-05
BRANCH_INDIRECT_CALL: 0
BRANCH_RETURN: 6e-05

cpu0->cpu0_STLB TOTAL        ACCESS:       6279 HIT:       1293 MISS:       4986 MSHR_MERGE:          0
cpu0->cpu0_STLB LOAD         ACCESS:       6279 HIT:       1293 MISS:       4986 MSHR_MERGE:          0
cpu0->cpu0_STLB RFO          ACCESS:          0 HIT:          0 MISS:          0 MSHR_MERGE:          0
cpu0->cpu0_STLB PREFETCH     ACCESS:          0 HIT:          0 MISS:          0 MSHR_MERGE:          0
cpu0->cpu0_STLB WRITE        ACCESS:          0 HIT:          0 MISS:          0 MSHR_MERGE:          0
cpu0->cpu0_STLB TRANSLATION  ACCESS:          0 HIT:          0 MISS:          0 MSHR_MERGE:          0
cpu0->cpu0_STLB PREFETCH REQUESTED:          0 ISSUED:          0 USEFUL:          0 USELESS:          0 LATE:          0 TOO_EARLY:          0
cpu0->cpu0_STLB AVERAGE MISS LATENCY: 134 cycles
cpu0->cpu0_L2C TOTAL        ACCESS:    1715714 HIT:    1154476 MISS:     561238 MSHR_MERGE:     210544
cpu0->cpu0_L2C LOAD         ACCESS:      63769 HIT:      56761 MISS:       7008 MSHR_MERGE:        297
cpu0->cpu0_L2C RFO          ACCESS:       5408 HIT:       5229 MISS:        179 MSHR_MERGE:          2
cpu0->cpu0_L2C PREFETCH     ACCESS:    1438573 HIT:     885391 MISS:     553182 MSHR_MERGE:     210245
cpu0->cpu0_L2C WRITE        ACCESS:     206048 HIT:     205897 MISS:        151 MSHR_MERGE:          0
cpu0->cpu0_L2C TRANSLATION  ACCESS:       1916 HIT:       1198 MISS:        718 MSHR_MERGE:          0
cpu0->cpu0_L2C PREFETCH REQUESTED:     520637 ISSUED:     520535 USEFUL:     117591 USELESS:      15270 LATE:        153 TOO_EARLY:         16
cpu0->cpu0_L2C AVERAGE MISS LATENCY: 208.4 cycles
cpu0->cpu0_L1I TOTAL        ACCESS:   15416838 HIT:   15416227 MISS:        611 MSHR_MERGE:        203
cpu0->cpu0_L1I LOAD         ACCESS:   15416838 HIT:   15416227 MISS:        611 MSHR_MERGE:        203
cpu0->cpu0_L1I RFO          ACCESS:          0 HIT:          0 MISS:          0 MSHR_MERGE:          0
cpu0->cpu0_L1I PREFETCH     ACCESS:          0 HIT:          0 MISS:          0 MSHR_MERGE:          0
cpu0->cpu0_L1I WRITE        ACCESS:          0 HIT:          0 MISS:          0 MSHR_MERGE:          0
cpu0->cpu0_L1I TRANSLATION  ACCESS:          0 HIT:          0 MISS:          0 MSHR_MERGE:          0
cpu0->cpu0_L1I PREFETCH REQUESTED:          0 ISSUED:          0 USEFUL:          0 USELESS:          0 LATE:          0 TOO_EARLY:          0
cpu0->cpu0_L1I AVERAGE MISS LATENCY: 251.4 cycles
cpu0->cpu0_L1D TOTAL        ACCESS:   22490815 HIT:   21409911 MISS:    1080904 MSHR_MERGE:      90667
cpu0->cpu0_L1D LOAD         ACCESS:   14560823 HIT:   14419150 MISS:     141673 MSHR_MERGE:      78312
cpu0->cpu0_L1D RFO          ACCESS:          0 HIT:          0 MISS:          0 MSHR_MERGE:          0
cpu0->cpu0_L1D PREFETCH     ACCESS:    4477435 HIT:    3549299 MISS:     928136 MSHR_MERGE:       8589
cpu0->cpu0_L1D WRITE        ACCESS:    3442850 HIT:    3433673 MISS:       9177 MSHR_MERGE:       3764
cpu0->cpu0_L1D TRANSLATION  ACCESS:       9707 HIT:       7789 MISS:       1918 MSHR_MERGE:          2
cpu0->cpu0_L1D PREFETCH REQUESTED:  102028452 ISSUED:    4477435 USEFUL:     781974 USELESS:      16693 LATE:      16116 TOO_EARLY:       1008
cpu0->cpu0_L1D AVERAGE MISS LATENCY: 37.51 cycles
cpu0->cpu0_ITLB TOTAL        ACCESS:   12841737 HIT:   12841681 MISS:         56 MSHR_MERGE:         41
cpu0->cpu0_ITLB LOAD         ACCESS:   12841737 HIT:   12841681 MISS:         56 MSHR_MERGE:         41
cpu0->cpu0_ITLB RFO          ACCESS:          0 HIT:          0 MISS:          0 MSHR_MERGE:          0
cpu0->cpu0_ITLB PREFETCH     ACCESS:          0 HIT:          0 MISS:          0 MSHR_MERGE:          0
cpu0->cpu0_ITLB WRITE        ACCESS:          0 HIT:          0 MISS:          0 MSHR_MERGE:          0
cpu0->cpu0_ITLB TRANSLATION  ACCESS:          0 HIT:          0 MISS:          0 MSHR_MERGE:          0
cpu0->cpu0_ITLB PREFETCH REQUESTED:          0 ISSUED:          0 USEFUL:          0 USELESS:          0 LATE:          0 TOO_EARLY:          0
cpu0->cpu0_ITLB AVERAGE MISS LATENCY: 362.3 cycles
cpu0->cpu0_DTLB TOTAL        ACCESS:   20980788 HIT:   20961330 MISS:      19458 MSHR_MERGE:      13194
cpu0->cpu0_DTLB LOAD         ACCESS:   20980788 HIT:   20961330 MISS:      19458 MSHR_MERGE:      13194
cpu0->cpu0_DTLB RFO          ACCESS:          0 HIT:          0 MISS:          0 MSHR_MERGE:          0
cpu0->cpu0_DTLB PREFETCH     ACCESS:          0 HIT:          0 MISS:          0 MSHR_MERGE:          0
cpu0->cpu0_DTLB WRITE        ACCESS:          0 HIT:          0 MISS:          0 MSHR_MERGE:          0
cpu0->cpu0_DTLB TRANSLATION  ACCESS:          0 HIT:          0 MISS:          0 MSHR_MERGE:          0
cpu0->cpu0_DTLB PREFETCH REQUESTED:          0 ISSUED:          0 USEFUL:          0 USELESS:          0 LATE:          0 TOO_EARLY:          0
cpu0->cpu0_DTLB AVERAGE MISS LATENCY: 108.8 cycles
cpu0->LLC TOTAL        ACCESS:     462321 HIT:      72924 MISS:     389397 MSHR_MERGE:       1736
cpu0->LLC LOAD         ACCESS:       6711 HIT:        415 MISS:       6296 MSHR_MERGE:          6
cpu0->LLC RFO          ACCESS:        177 HIT:         58 MISS:        119 MSHR_MERGE:          0
cpu0->LLC PREFETCH     ACCESS:     342937 HIT:      29660 MISS:     313277 MSHR_MERGE:       1730
cpu0->LLC WRITE        ACCESS:     111778 HIT:      42778 MISS:      69000 MSHR_MERGE:          0
cpu0->LLC TRANSLATION  ACCESS:        718 HIT:         13 MISS:        705 MSHR_MERGE:          0
cpu0->LLC PREFETCH REQUESTED:          0 ISSUED:          0 USEFUL:          0 USELESS:          0 LATE:          0 TOO_EARLY:          0
cpu0->LLC AVERAGE MISS LATENCY: 28.24 cycles

DRAM Statistics

Channel 0 RQ ROW_BUFFER_HIT:      26503
  ROW_BUFFER_MISS:     292153
  AVG DBUS CONGESTED CYCLE: 9.773
Channel 0 WQ ROW_BUFFER_HIT:      14252
  ROW_BUFFER_MISS:      71557
  FULL:          0
Channel 0 REFRESHES ISSUED:       2054

[ROI Statistics]
[System Configuration]
num_cpus 1
cpu_freq 4000
fetch_width 6
decode_width 6
dispatch_width 6
execute_width 6
lq_width 2
sq_width 2
retire_width 6
scheduler_size 128
branch_mispredict_penalty 15
rob_size 352
lq_size 128
sq_size 72
ifetch_buffer_size 64
decode_buffer_size 32
dispatch_buffer_size 32
register_file_size 288
decode_latency 1
dispatch_latency 1
schedule_latency 1
execute_latency 1
page_size 4096
block_size 64
core_0_itlb_set 16
core_0_itlb_way 4
core_0_itlb_rq_size 16
core_0_itlb_wq_size 16
core_0_itlb_pq_size 0
core_0_itlb_mshr_size 8
core_0_itlb_hit_latency 1
core_0_itlb_fill_latency 1
core_0_itlb_max_tag_check 2
core_0_itlb_max_fill 2
core_0_dtlb_set 16
core_0_dtlb_way 4
core_0_dtlb_rq_size 16
core_0_dtlb_wq_size 16
core_0_dtlb_pq_size 0
core_0_dtlb_mshr_size 8
core_0_dtlb_hit_latency 1
core_0_dtlb_fill_latency 1
core_0_dtlb_max_tag_check 2
core_0_dtlb_max_fill 2
core_0_stlb_set 128
core_0_stlb_way 12
core_0_stlb_rq_size 32
core_0_stlb_wq_size 32
core_0_stlb_pq_size 0
core_0_stlb_mshr_size 16
core_0_stlb_hit_latency 4
core_0_stlb_fill_latency 4
core_0_stlb_max_tag_check 1
core_0_stlb_max_fill 1
core_0_l1i_set 64
core_0_l1i_way 8
core_0_l1i_rq_size 64
core_0_l1i_wq_size 64
core_0_l1i_pq_size 32
core_0_l1i_mshr_size 8
core_0_l1i_hit_latency 2
core_0_l1i_fill_latency 2
core_0_l1i_max_tag_check 2
core_0_l1i_max_fill 2
core_0_l1d_set 64
core_0_l1d_way 12
core_0_l1d_rq_size 64
core_0_l1d_wq_size 64
core_0_l1d_pq_size 8
core_0_l1d_mshr_size 16
core_0_l1d_hit_latency 2
core_0_l1d_fill_latency 3
core_0_l1d_max_tag_check 2
core_0_l1d_max_fill 2
core_0_l2c_set 1024
core_0_l2c_way 8
core_0_l2c_rq_size 32
core_0_l2c_wq_size 32
core_0_l2c_pq_size 16
core_0_l2c_mshr_size 32
core_0_l2c_hit_latency 5
core_0_l2c_fill_latency 5
core_0_l2c_max_tag_check 1
core_0_l2c_max_fill 1
llc_set 2048
llc_way 16
llc_rq_size 32
llc_wq_size 32
llc_pq_size 32
llc_mshr_size 64
llc_hit_latency 10
llc_fill_latency 10
llc_max_tag_check 1
llc_max_fill 1
dram_channels 1
dram_ranks 1
dram_bankgroups 8
dram_banks 4
dram_rows 65536
dram_columns 1024
dram_channel_width 8
dram_rq_size 64
dram_wq_size 64
dram_size 17179869184
core_0_itlb_prefetcher no
core_0_dtlb_prefetcher no
core_0_stlb_prefetcher no
core_0_l1i_prefetcher next_line
core_0_l1d_prefetcher vberti
core_0_l2c_prefetcher ip_stride
llc_prefetcher no
llc_replacement drrip

Core_0_instructions 100000001
Core_0_cycles 24645022
Core_0_IPC 4.05761
Core_0_branch_prediction_accuracy 99.9488
Core_0_branch_MPKI 0.01742
Core_0_average_ROB_occupancy_at_mispredict 267.131

Core_0_ITLB_total_access 12841737
Core_0_ITLB_total_hit 12841681
Core_0_ITLB_total_miss 56
Core_0_ITLB_total_MPKI 0.00056
Core_0_ITLB_total_miss_rate 4.36078e-06
Core_0_ITLB_demand_access 12841737
Core_0_ITLB_demand_hit 12841681
Core_0_ITLB_demand_miss 56
Core_0_ITLB_demand_MPKI 0.00056
Core_0_ITLB_demand_miss_rate 4.36078e-06
Core_0_ITLB_load_access 12841737
Core_0_ITLB_load_hit 12841681
Core_0_ITLB_load_miss 56
Core_0_ITLB_load_MPKI 0.00056
Core_0_ITLB_load_miss_rate 4.36078e-06
Core_0_ITLB_rfo_access 0
Core_0_ITLB_rfo_hit 0
Core_0_ITLB_rfo_miss 0
Core_0_ITLB_rfo_MPKI 0
Core_0_ITLB_rfo_miss_rate 0
Core_0_ITLB_prefetch_access 0
Core_0_ITLB_prefetch_hit 0
Core_0_ITLB_prefetch_miss 0
Core_0_ITLB_prefetch_MPKI 0
Core_0_ITLB_prefetch_miss_rate 0
Core_0_ITLB_writeback_access 0
Core_0_ITLB_writeback_hit 0
Core_0_ITLB_writeback_miss 0
Core_0_ITLB_writeback_MPKI 0
Core_0_ITLB_writeback_miss_rate 0
Core_0_ITLB_prefetch_requested 0
Core_0_ITLB_prefetch_issued 0
Core_0_ITLB_prefetch_useful 0
Core_0_ITLB_prefetch_useless 0
Core_0_ITLB_prefetch_late 0
Core_0_ITLB_prefetch_fill 0
Core_0_ITLB_prefetch_too_early 0
Core_0_ITLB_prefetch_too_early_among_fill 0
Core_0_ITLB_prefetch_too_early_among_useless 0
Core_0_ITLB_prefetch_pollution_evict 0
Core_0_ITLB_prefetch_pollution_demand 0
Core_0_ITLB_prefetch_pollution_among_prefetch_fill 0
Core_0_ITLB_prefetch_accuracy 0
Core_0_ITLB_prefetch_coverage 0

Core_0_DTLB_total_access 20980788
Core_0_DTLB_total_hit 20961330
Core_0_DTLB_total_miss 19458
Core_0_DTLB_total_MPKI 0.19458
Core_0_DTLB_total_miss_rate 0.00092742
Core_0_DTLB_demand_access 20980788
Core_0_DTLB_demand_hit 20961330
Core_0_DTLB_demand_miss 19458
Core_0_DTLB_demand_MPKI 0.19458
Core_0_DTLB_demand_miss_rate 0.00092742
Core_0_DTLB_load_access 20980788
Core_0_DTLB_load_hit 20961330
Core_0_DTLB_load_miss 19458
Core_0_DTLB_load_MPKI 0.19458
Core_0_DTLB_load_miss_rate 0.00092742
Core_0_DTLB_rfo_access 0
Core_0_DTLB_rfo_hit 0
Core_0_DTLB_rfo_miss 0
Core_0_DTLB_rfo_MPKI 0
Core_0_DTLB_rfo_miss_rate 0
Core_0_DTLB_prefetch_access 0
Core_0_DTLB_prefetch_hit 0
Core_0_DTLB_prefetch_miss 0
Core_0_DTLB_prefetch_MPKI 0
Core_0_DTLB_prefetch_miss_rate 0
Core_0_DTLB_writeback_access 0
Core_0_DTLB_writeback_hit 0
Core_0_DTLB_writeback_miss 0
Core_0_DTLB_writeback_MPKI 0
Core_0_DTLB_writeback_miss_rate 0
Core_0_DTLB_prefetch_requested 0
Core_0_DTLB_prefetch_issued 0
Core_0_DTLB_prefetch_useful 0
Core_0_DTLB_prefetch_useless 0
Core_0_DTLB_prefetch_late 0
Core_0_DTLB_prefetch_fill 0
Core_0_DTLB_prefetch_too_early 0
Core_0_DTLB_prefetch_too_early_among_fill 0
Core_0_DTLB_prefetch_too_early_among_useless 0
Core_0_DTLB_prefetch_pollution_evict 0
Core_0_DTLB_prefetch_pollution_demand 0
Core_0_DTLB_prefetch_pollution_among_prefetch_fill 0
Core_0_DTLB_prefetch_accuracy 0
Core_0_DTLB_prefetch_coverage 0

Core_0_STLB_total_access 6279
Core_0_STLB_total_hit 1293
Core_0_STLB_total_miss 4986
Core_0_STLB_total_MPKI 0.04986
Core_0_STLB_total_miss_rate 0.794075
Core_0_STLB_demand_access 6279
Core_0_STLB_demand_hit 1293
Core_0_STLB_demand_miss 4986
Core_0_STLB_demand_MPKI 0.04986
Core_0_STLB_demand_miss_rate 0.794075
Core_0_STLB_load_access 6279
Core_0_STLB_load_hit 1293
Core_0_STLB_load_miss 4986
Core_0_STLB_load_MPKI 0.04986
Core_0_STLB_load_miss_rate 0.794075
Core_0_STLB_rfo_access 0
Core_0_STLB_rfo_hit 0
Core_0_STLB_rfo_miss 0
Core_0_STLB_rfo_MPKI 0
Core_0_STLB_rfo_miss_rate 0
Core_0_STLB_prefetch_access 0
Core_0_STLB_prefetch_hit 0
Core_0_STLB_prefetch_miss 0
Core_0_STLB_prefetch_MPKI 0
Core_0_STLB_prefetch_miss_rate 0
Core_0_STLB_writeback_access 0
Core_0_STLB_writeback_hit 0
Core_0_STLB_writeback_miss 0
Core_0_STLB_writeback_MPKI 0
Core_0_STLB_writeback_miss_rate 0
Core_0_STLB_prefetch_requested 0
Core_0_STLB_prefetch_issued 0
Core_0_STLB_prefetch_useful 0
Core_0_STLB_prefetch_useless 0
Core_0_STLB_prefetch_late 0
Core_0_STLB_prefetch_fill 0
Core_0_STLB_prefetch_too_early 0
Core_0_STLB_prefetch_too_early_among_fill 0
Core_0_STLB_prefetch_too_early_among_useless 0
Core_0_STLB_prefetch_pollution_evict 0
Core_0_STLB_prefetch_pollution_demand 0
Core_0_STLB_prefetch_pollution_among_prefetch_fill 0
Core_0_STLB_prefetch_accuracy 0
Core_0_STLB_prefetch_coverage 0

Core_0_L1I_total_access 15416838
Core_0_L1I_total_hit 15416227
Core_0_L1I_total_miss 611
Core_0_L1I_total_MPKI 0.00611
Core_0_L1I_total_miss_rate 3.9632e-05
Core_0_L1I_demand_access 15416838
Core_0_L1I_demand_hit 15416227
Core_0_L1I_demand_miss 611
Core_0_L1I_demand_MPKI 0.00611
Core_0_L1I_demand_miss_rate 3.9632e-05
Core_0_L1I_load_access 15416838
Core_0_L1I_load_hit 15416227
Core_0_L1I_load_miss 611
Core_0_L1I_load_MPKI 0.00611
Core_0_L1I_load_miss_rate 3.9632e-05
Core_0_L1I_rfo_access 0
Core_0_L1I_rfo_hit 0
Core_0_L1I_rfo_miss 0
Core_0_L1I_rfo_MPKI 0
Core_0_L1I_rfo_miss_rate 0
Core_0_L1I_prefetch_access 0
Core_0_L1I_prefetch_hit 0
Core_0_L1I_prefetch_miss 0
Core_0_L1I_prefetch_MPKI 0
Core_0_L1I_prefetch_miss_rate 0
Core_0_L1I_writeback_access 0
Core_0_L1I_writeback_hit 0
Core_0_L1I_writeback_miss 0
Core_0_L1I_writeback_MPKI 0
Core_0_L1I_writeback_miss_rate 0
Core_0_L1I_prefetch_requested 0
Core_0_L1I_prefetch_issued 0
Core_0_L1I_prefetch_useful 0
Core_0_L1I_prefetch_useless 0
Core_0_L1I_prefetch_late 0
Core_0_L1I_prefetch_fill 0
Core_0_L1I_prefetch_too_early 0
Core_0_L1I_prefetch_too_early_among_fill 0
Core_0_L1I_prefetch_too_early_among_useless 0
Core_0_L1I_prefetch_pollution_evict 0
Core_0_L1I_prefetch_pollution_demand 0
Core_0_L1I_prefetch_pollution_among_prefetch_fill 0
Core_0_L1I_prefetch_accuracy 0
Core_0_L1I_prefetch_coverage 0

Core_0_L1D_total_access 22481108
Core_0_L1D_total_hit 21402122
Core_0_L1D_total_miss 1078986
Core_0_L1D_total_MPKI 10.7899
Core_0_L1D_total_miss_rate 0.0479952
Core_0_L1D_demand_access 14560823
Core_0_L1D_demand_hit 14419150
Core_0_L1D_demand_miss 141673
Core_0_L1D_demand_MPKI 1.41673
Core_0_L1D_demand_miss_rate 0.00972974
Core_0_L1D_load_access 14560823
Core_0_L1D_load_hit 14419150
Core_0_L1D_load_miss 141673
Core_0_L1D_load_MPKI 1.41673
Core_0_L1D_load_miss_rate 0.00972974
Core_0_L1D_rfo_access 0
Core_0_L1D_rfo_hit 0
Core_0_L1D_rfo_miss 0
Core_0_L1D_rfo_MPKI 0
Core_0_L1D_rfo_miss_rate 0
Core_0_L1D_prefetch_access 4477435
Core_0_L1D_prefetch_hit 3549299
Core_0_L1D_prefetch_miss 928136
Core_0_L1D_prefetch_MPKI 9.28136
Core_0_L1D_prefetch_miss_rate 0.207292
Core_0_L1D_writeback_access 3442850
Core_0_L1D_writeback_hit 3433673
Core_0_L1D_writeback_miss 9177
Core_0_L1D_writeback_MPKI 0.09177
Core_0_L1D_writeback_miss_rate 0.00266552
Core_0_L1D_prefetch_requested 102028452
Core_0_L1D_prefetch_issued 4477435
Core_0_L1D_prefetch_useful 781974
Core_0_L1D_prefetch_useless 16693
Core_0_L1D_prefetch_late 16116
Core_0_L1D_prefetch_fill 782574
Core_0_L1D_prefetch_too_early 1008
Core_0_L1D_prefetch_too_early_among_fill 0.00128806
Core_0_L1D_prefetch_too_early_among_useless 0.0603846
Core_0_L1D_prefetch_pollution_evict 19278
Core_0_L1D_prefetch_pollution_demand 18737
Core_0_L1D_prefetch_pollution_among_prefetch_fill 0.0246341
Core_0_L1D_prefetch_accuracy 0.174648
Core_0_L1D_prefetch_coverage 0.846616

Core_0_L2C_total_access 1713798
Core_0_L2C_total_hit 1153278
Core_0_L2C_total_miss 560520
Core_0_L2C_total_MPKI 5.6052
Core_0_L2C_total_miss_rate 0.327063
Core_0_L2C_demand_access 69177
Core_0_L2C_demand_hit 61990
Core_0_L2C_demand_miss 7187
Core_0_L2C_demand_MPKI 0.07187
Core_0_L2C_demand_miss_rate 0.103893
Core_0_L2C_load_access 63769
Core_0_L2C_load_hit 56761
Core_0_L2C_load_miss 7008
Core_0_L2C_load_MPKI 0.07008
Core_0_L2C_load_miss_rate 0.109897
Core_0_L2C_rfo_access 5408
Core_0_L2C_rfo_hit 5229
Core_0_L2C_rfo_miss 179
Core_0_L2C_rfo_MPKI 0.00179
Core_0_L2C_rfo_miss_rate 0.0330991
Core_0_L2C_prefetch_access 1438573
Core_0_L2C_prefetch_hit 885391
Core_0_L2C_prefetch_miss 553182
Core_0_L2C_prefetch_MPKI 5.53182
Core_0_L2C_prefetch_miss_rate 0.384535
Core_0_L2C_writeback_access 206048
Core_0_L2C_writeback_hit 205897
Core_0_L2C_writeback_miss 151
Core_0_L2C_writeback_MPKI 0.00151
Core_0_L2C_writeback_miss_rate 0.000732839
Core_0_L2C_prefetch_requested 520637
Core_0_L2C_prefetch_issued 520535
Core_0_L2C_prefetch_useful 117591
Core_0_L2C_prefetch_useless 15270
Core_0_L2C_prefetch_late 153
Core_0_L2C_prefetch_fill 339407
Core_0_L2C_prefetch_too_early 16
Core_0_L2C_prefetch_too_early_among_fill 4.7141e-05
Core_0_L2C_prefetch_too_early_among_useless 0.00104781
Core_0_L2C_prefetch_pollution_evict 25
Core_0_L2C_prefetch_pollution_demand 24
Core_0_L2C_prefetch_pollution_among_prefetch_fill 7.36579e-05
Core_0_L2C_prefetch_accuracy 0.225904
Core_0_L2C_prefetch_coverage 0.942402

Core_0_LLC_total_access 461603
Core_0_LLC_total_hit 72911
Core_0_LLC_total_miss 388692
Core_0_LLC_total_MPKI 3.88692
Core_0_LLC_total_miss_rate 0.842048
Core_0_LLC_demand_access 6888
Core_0_LLC_demand_hit 473
Core_0_LLC_demand_miss 6415
Core_0_LLC_demand_MPKI 0.06415
Core_0_LLC_demand_miss_rate 0.93133
Core_0_LLC_load_access 6711
Core_0_LLC_load_hit 415
Core_0_LLC_load_miss 6296
Core_0_LLC_load_MPKI 0.06296
Core_0_LLC_load_miss_rate 0.938161
Core_0_LLC_rfo_access 177
Core_0_LLC_rfo_hit 58
Core_0_LLC_rfo_miss 119
Core_0_LLC_rfo_MPKI 0.00119
Core_0_LLC_rfo_miss_rate 0.672316
Core_0_LLC_prefetch_access 342937
Core_0_LLC_prefetch_hit 29660
Core_0_LLC_prefetch_miss 313277
Core_0_LLC_prefetch_MPKI 3.13277
Core_0_LLC_prefetch_miss_rate 0.913512
Core_0_LLC_writeback_access 111778
Core_0_LLC_writeback_hit 42778
Core_0_LLC_writeback_miss 69000
Core_0_LLC_writeback_MPKI 0.69
Core_0_LLC_writeback_miss_rate 0.617295
Core_0_LLC_prefetch_requested 0
Core_0_LLC_prefetch_issued 0
Core_0_LLC_prefetch_useful 0
Core_0_LLC_prefetch_useless 0
Core_0_LLC_prefetch_late 0
Core_0_LLC_prefetch_fill 311540
Core_0_LLC_prefetch_too_early 0
Core_0_LLC_prefetch_too_early_among_fill 0
Core_0_LLC_prefetch_too_early_among_useless 0
Core_0_LLC_prefetch_pollution_evict 226
Core_0_LLC_prefetch_pollution_demand 226
Core_0_LLC_prefetch_pollution_among_prefetch_fill 0.000725429
Core_0_LLC_prefetch_accuracy 0
Core_0_LLC_prefetch_coverage 0

[DRAM Statistics]
Channel_0_RQ_row_buffer_hit 26503
Channel_0_RQ_row_buffer_miss 292153
Channel_0_WQ_row_buffer_hit 14252
Channel_0_WQ_row_buffer_miss 71557
Channel_0_WQ_full 0
Channel_0_dbus_congested 851114
DRAM_total_RQ_row_buffer_hit 26503
DRAM_total_RQ_row_buffer_miss 292153
DRAM_total_WQ_row_buffer_hit 14252
DRAM_total_WQ_row_buffer_miss 71557
DRAM_total_WQ_full 0
DRAM_total_dbus_congested 851114
DRAM_avg_congested_cycle 9.77294

====== DRAM_RQ_TRAFFIC ========
DRAM_RQ_READ_TRAFFIC_BREAKDOWN:
data_demand_read.count = 6001
data_demand_read.share = 1.88%

inst_demand_read.count = 408
inst_demand_read.share = 0.13%

cache_inst_prefetch.count = 0
cache_inst_prefetch.share = 0.00%

cache_data_prefetch.count = 311547
cache_data_prefetch.share = 97.77%

stlb_data_demand.count = 16
stlb_data_demand.share = 0.01%

stlb_inst_demand.count = 8
stlb_inst_demand.share = 0.00%

stlb_l1i_pref.count = 0
stlb_l1i_pref.share = 0.00%

stlb_l1d_pref.count = 681
stlb_l1d_pref.share = 0.21%

DRAM_RQ_READ_TRAFFIC_SUMMARY:
cache_demand.count = 6409
cache_demand.share = 2.01%

cache_prefetch.count = 311547
cache_prefetch.share = 97.77%

stlb_demand.count = 24
stlb_demand.share = 0.01%

stlb_prefetch.count = 681
stlb_prefetch.share = 0.21%

DRAM_RQ_READ_TRAFFIC_DEBUG:
total_classified_read.count = 318661
unclassified_read.count = 0
total_read_with_other.count = 318661

classified_plus_unclassified_check.count = 318661
dram_rq_read_total_observed.count = 318661
dram_rq_read_total_observed.per_1K_instructions = 3.18661

STLB_MISS_PTW_DRAM_TOUCH_BREAKDOWN:
stlb_miss_total.count = 4856

stlb_miss_touch_dram.count = 703
stlb_miss_touch_dram.share = 14.48%

stlb_miss_no_dram_touch.count = 4153
stlb_miss_no_dram_touch.share = 85.52%

STLB_MISS_PTW_DRAM_TOUCH_DEBUG:
stlb_miss_touch_plus_no_touch.count = 4856
stlb_miss_total_check.count = 4856

======STLB miss causes ========
Core_0_STLB_miss_cause_breakdown
Core_0_STLB_cause_Demand_Data_miss 197
Core_0_STLB_cause_Demand_Data_miss_rate 0.0313744
Core_0_STLB_cause_Demand_Instruction_miss 15
Core_0_STLB_cause_Demand_Instruction_miss_rate 0.00238892
Core_0_STLB_cause_L1D_Prefetch_miss 4774
Core_0_STLB_cause_L1D_Prefetch_miss_rate 0.760312
Core_0_STLB_cause_L1D_Prefetch_Same_Page_miss 0
Core_0_STLB_cause_L1D_Prefetch_Same_Page_miss_rate 0
Core_0_STLB_cause_L1D_Prefetch_Cross_Page_miss 4774
Core_0_STLB_cause_L1D_Prefetch_Cross_Page_miss_rate 0.760312
Core_0_STLB_cause_L1I_Prefetch_miss 0
Core_0_STLB_cause_L1I_Prefetch_miss_rate 0
Core_0_STLB_cause_Other_miss 0
Core_0_STLB_cause_Other_miss_rate 0
Core_0_STLB_Demand_miss 212
Core_0_STLB_Demand_miss_rate 0.0337633
Core_0_STLB_L1D_Prefetch_miss 4774
Core_0_STLB_L1D_Prefetch_miss_rate 0.760312
Core_0_STLB_Other_miss 0
Core_0_STLB_Other_miss_rate 0

========== vBerti-TLB Cross-page Flow Stats ==========

Core_0_vBerti_Requested 102028452
Core_0_vBerti_Cross_page_prefetch_in_Requested 11776627
Core_0_vBerti_Same_page_prefetch_in_Requested 90251825
Core_0_vBerti_Cross_page_prefetch_of_Requested 0.115425
Core_0_vBerti_Issued 4477435
Core_0_vBerti_PQ_Drop_Rate 0.956116
Core_0_vBerti_InPQ_Cross_page_prefetch_of_Requested 0.00187677
Core_0_vBerti_Cross_page_PQ_Drop_rate 0.98374
Core_0_vBerti_Cross_page_prefetch_of_Issued 0.0427664

========= DTLB_vBerti Prefetch Stats =========
Core_0_DTLB_demand_access 17163507
Core_0_DTLB_demand_hit 17160773
Core_0_DTLB_demand_miss 2734
Core_0_DTLB_demand_mshr_merge 2076
Core_0_DTLB_demand_fill 1061
Core_0_DTLB_demand_miss_rate 0.000159291
Core_0_DTLB_demand_mpki 0.02734
Core_0_DTLB_vberti_prefetch_access 3817281
Core_0_DTLB_vberti_prefetch_hit 3800557
Core_0_DTLB_vberti_prefetch_miss 16724
Core_0_DTLB_vberti_prefetch_mshr_merge 11118
Core_0_DTLB_vberti_prefetch_fill 5203
Core_0_DTLB_vberti_prefetch_miss_rate 0.00438113
Core_0_DTLB_vberti_prefetch_mpki 0.16724

=== DTLB_vBerti Same/Cross-page Prefetch Stats ===
Core_0_DTLB_vberti_same_page_prefetch 3635692
Core_0_DTLB_vberti_same_page_prefetch_hit 3635692
Core_0_DTLB_vberti_same_page_prefetch_miss 0
Core_0_DTLB_vberti_same_page_prefetch_mshr_merge 0
Core_0_DTLB_vberti_same_page_prefetch_fill 0
Core_0_DTLB_vberti_same_page_prefetch_miss_rate 0
Core_0_DTLB_vberti_same_page_prefetch_mpki 0
Core_0_DTLB_vberti_cross_page_prefetch 181589
Core_0_DTLB_vberti_cross_page_prefetch_hit 164865
Core_0_DTLB_vberti_cross_page_prefetch_miss 16724
Core_0_DTLB_vberti_cross_page_prefetch_mshr_merge 11118
Core_0_DTLB_vberti_cross_page_prefetch_fill 5203
Core_0_DTLB_vberti_cross_page_prefetch_miss_rate 0.0920981
Core_0_DTLB_vberti_cross_page_prefetch_mpki 0.16724
Core_0_DTLB_same_page_prefetch_miss_rate 0
Core_0_DTLB_same_page_prefetch_mpki 0
Core_0_DTLB_cross_page_prefetch_miss_rate 0.0920981
Core_0_DTLB_cross_page_prefetch_mpki 0.16724
Core_0_DTLB_cross_page_prefetch_issued 181589
Core_0_DTLB_cross_page_prefetch_lookups 181589
Core_0_DTLB_cross_page_prefetch_useful 5559
Core_0_DTLB_cross_page_prefetch_useless 47
Core_0_DTLB_cross_page_prefetch_late 403
Core_0_DTLB_cross_page_prefetch_too_early 9
Core_0_DTLB_cross_page_prefetch_too_early_among_fill 0.00172977
Core_0_DTLB_cross_page_prefetch_too_early_among_useless 0.191489
Core_0_DTLB_cross_page_prefetch_pollution_evict 264
Core_0_DTLB_cross_page_prefetch_pollution_demand 199
Core_0_DTLB_cross_page_prefetch_pollution_among_prefetch_fill 0.05074
Core_0_DTLB_cross_page_prefetch_accuracy 0.0306131
Core_0_DTLB_cross_page_prefetch_coverage 0.670324

========= STLB_vBerti Prefetch Stats =========
Core_0_STLB_demand_access 673
Core_0_STLB_demand_hit 461
Core_0_STLB_demand_miss 212
Core_0_STLB_demand_mshr_merge 0
Core_0_STLB_demand_fill 212
Core_0_STLB_demand_miss_rate 0.315007
Core_0_STLB_demand_mpki 0.00212
Core_0_STLB_vberti_prefetch_access 5606
Core_0_STLB_vberti_prefetch_hit 832
Core_0_STLB_vberti_prefetch_miss 4774
Core_0_STLB_vberti_prefetch_mshr_merge 0
Core_0_STLB_vberti_prefetch_fill 0
Core_0_STLB_vberti_prefetch_miss_rate 0.851588
Core_0_STLB_vberti_prefetch_mpki 0.04774

=== STLB_vBerti Same/Cross-page Prefetch Stats ===
Core_0_STLB_vberti_same_page_prefetch 0
Core_0_STLB_vberti_same_page_prefetch_hit 0
Core_0_STLB_vberti_same_page_prefetch_miss 0
Core_0_STLB_vberti_same_page_prefetch_mshr_merge 0
Core_0_STLB_vberti_same_page_prefetch_fill 0
Core_0_STLB_vberti_same_page_prefetch_miss_rate 0
Core_0_STLB_vberti_same_page_prefetch_mpki 0
Core_0_STLB_vberti_cross_page_prefetch 5606
Core_0_STLB_vberti_cross_page_prefetch_hit 832
Core_0_STLB_vberti_cross_page_prefetch_miss 4774
Core_0_STLB_vberti_cross_page_prefetch_mshr_merge 0
Core_0_STLB_vberti_cross_page_prefetch_fill 0
Core_0_STLB_vberti_cross_page_prefetch_miss_rate 0.851588
Core_0_STLB_vberti_cross_page_prefetch_mpki 0.04774
Core_0_STLB_same_page_prefetch_miss_rate 0
Core_0_STLB_same_page_prefetch_mpki 0
Core_0_STLB_cross_page_prefetch_miss_rate 0.851588
Core_0_STLB_cross_page_prefetch_mpki 0.04774
Core_0_STLB_cross_page_prefetch_issued 5606
Core_0_STLB_cross_page_prefetch_lookups 5606
Core_0_STLB_cross_page_prefetch_useful 130
Core_0_STLB_cross_page_prefetch_useless 4563
Core_0_STLB_cross_page_prefetch_late 130
Core_0_STLB_cross_page_prefetch_too_early 0
Core_0_STLB_cross_page_prefetch_too_early_among_fill 0
Core_0_STLB_cross_page_prefetch_too_early_among_useless 0
Core_0_STLB_cross_page_prefetch_pollution_evict 0
Core_0_STLB_cross_page_prefetch_pollution_demand 0
Core_0_STLB_cross_page_prefetch_pollution_among_prefetch_fill 0
Core_0_STLB_cross_page_prefetch_accuracy 0.0231894
Core_0_STLB_cross_page_prefetch_coverage 0.380117

========= STLB Cross-page Prefetch Buffer Stats =========
Core_0_STLB_raw_demand_miss 197
Core_0_CP_PB_insert 4774
Core_0_CP_PB_demand_hit 130
Core_0_STLB_PB_demand_miss 67
Core_0_CP_PB_coverage 0.659898
Core_0_STLB_raw_demand_mpki 0.00197
Core_0_STLB_PB_demand_mpki 0.00067
Core_0_CP_PB_demand_hit_mpki 0.0013

Core_0_TLB_demand_miss_rate 1.23518e-05
Core_0_TLB_demand_mpki 0.00212
Core_0_TLB_same_page_prefetch_miss_rate 0
Core_0_TLB_same_page_prefetch_mpki 0
Core_0_TLB_cross_page_prefetch_miss_rate 0.0262901
Core_0_TLB_cross_page_prefetch_mpki 0.04774
Core_0_TLB_cross_page_prefetch_issued 181589
Core_0_TLB_cross_page_prefetch_lookups 181589
Core_0_TLB_cross_page_prefetch_useful 3223
Core_0_TLB_cross_page_prefetch_useless 29
Core_0_TLB_cross_page_prefetch_late 332
Core_0_TLB_cross_page_prefetch_too_early 6
Core_0_TLB_cross_page_prefetch_too_early_among_fill 0.00115318
Core_0_TLB_cross_page_prefetch_too_early_among_useless 0.206897
Core_0_TLB_cross_page_prefetch_accuracy 0.0177489
Core_0_TLB_cross_page_prefetch_coverage 0.938282
BERTI TO_L1: 122809145 TO_L2: 20435341 TO_L2_BC_MSHR: 587645
BERTI AVG_LAT: 91.3826 NUM_TRACK_LATENCY: 1162071 NUM_CANT_TRACK_LATENCY: 2
BERTI CROSS_PAGE 16977298 NO_CROSS_PAGE: 126267188
BERTI FOUND_BERTI: 17008273 NO_FOUND_BERTI: 9931933
BERTI AVERAGE_ISSUED: 1.20635
