[VMEM] WARNING: physical memory size is smaller than virtual memory size.

*** ChampSim Multicore Out-of-Order Simulator ***
Warmup Instructions: 50000000
Simulation Instructions: 100000000
Number of CPUs: 1
Page size: 4096
Core 0: /data0/tzh/champsim_traces/SPEC06/482.sphinx3-1395B.champsimtrace.xz
VBerti Prefetcher
BERTI HASH ENTANGLING
BERTI IP MASK ffff
Off-chip DRAM Size: 16 GiB Channels: 1 Width: 64-bit Data Rate: 3205 MT/s
Warmup halting CPU 0 at instruction 50000001 cycle 10802983 for remainder of phase
Warmup finished CPU 0 instructions: 50000001 cycles: 10802983 cumulative IPC: 4.628 (Simulation time: 00 hr 02 min 46 sec)
Warmup complete CPU 0 instructions: 50000001 cycles: 10802983 cumulative IPC: 4.628 (Simulation time: 00 hr 02 min 46 sec)
Simulation finished CPU 0 instructions: 100000003 cycles: 38224342 cumulative IPC: 2.616 (Simulation time: 00 hr 09 min 43 sec)
Simulation complete CPU 0 instructions: 100000003 cycles: 38224342 cumulative IPC: 2.616 (Simulation time: 00 hr 09 min 43 sec)

ChampSim completed all CPUs

=== Simulation ===
CPU 0 runs /data0/tzh/champsim_traces/SPEC06/482.sphinx3-1395B.champsimtrace.xz

Region of Interest Statistics

CPU 0 cumulative IPC: 2.616 instructions: 100000003 cycles: 38224342
CPU 0 Branch Prediction Accuracy: 99.25% MPKI: 0.657 Average ROB Occupancy at Mispredict: 132.9
Branch type MPKI
BRANCH_DIRECT_JUMP: 8e-05
BRANCH_INDIRECT: 0
BRANCH_CONDITIONAL: 0.6559
BRANCH_DIRECT_CALL: 3e-05
BRANCH_INDIRECT_CALL: 1e-05
BRANCH_RETURN: 0.001

cpu0->cpu0_STLB TOTAL        ACCESS:      95780 HIT:      75408 MISS:      20372 MSHR_MERGE:          0
cpu0->cpu0_STLB LOAD         ACCESS:      95780 HIT:      75408 MISS:      20372 MSHR_MERGE:          0
cpu0->cpu0_STLB RFO          ACCESS:          0 HIT:          0 MISS:          0 MSHR_MERGE:          0
cpu0->cpu0_STLB PREFETCH     ACCESS:          0 HIT:          0 MISS:          0 MSHR_MERGE:          0
cpu0->cpu0_STLB WRITE        ACCESS:          0 HIT:          0 MISS:          0 MSHR_MERGE:          0
cpu0->cpu0_STLB TRANSLATION  ACCESS:          0 HIT:          0 MISS:          0 MSHR_MERGE:          0
cpu0->cpu0_STLB PREFETCH REQUESTED:          0 ISSUED:          0 USEFUL:          0 USELESS:          0 LATE:          0 TOO_EARLY:          0
cpu0->cpu0_STLB AVERAGE MISS LATENCY: 75.88 cycles
cpu0->cpu0_L2C TOTAL        ACCESS:    3677234 HIT:    1645887 MISS:    2031347 MSHR_MERGE:     615692
cpu0->cpu0_L2C LOAD         ACCESS:     272770 HIT:     131796 MISS:     140974 MSHR_MERGE:       4972
cpu0->cpu0_L2C RFO          ACCESS:      78144 HIT:       7920 MISS:      70224 MSHR_MERGE:        184
cpu0->cpu0_L2C PREFETCH     ACCESS:    3184547 HIT:    1370522 MISS:    1814025 MSHR_MERGE:     610536
cpu0->cpu0_L2C WRITE        ACCESS:     134271 HIT:     134046 MISS:        225 MSHR_MERGE:          0
cpu0->cpu0_L2C TRANSLATION  ACCESS:       7502 HIT:       1603 MISS:       5899 MSHR_MERGE:          0
cpu0->cpu0_L2C PREFETCH REQUESTED:     999774 ISSUED:     978466 USEFUL:     232224 USELESS:      95852 LATE:       1659 TOO_EARLY:       1334
cpu0->cpu0_L2C AVERAGE MISS LATENCY: 125.8 cycles
cpu0->cpu0_L1I TOTAL        ACCESS:   11745932 HIT:   11745509 MISS:        423 MSHR_MERGE:        242
cpu0->cpu0_L1I LOAD         ACCESS:   11745932 HIT:   11745509 MISS:        423 MSHR_MERGE:        242
cpu0->cpu0_L1I RFO          ACCESS:          0 HIT:          0 MISS:          0 MSHR_MERGE:          0
cpu0->cpu0_L1I PREFETCH     ACCESS:          0 HIT:          0 MISS:          0 MSHR_MERGE:          0
cpu0->cpu0_L1I WRITE        ACCESS:          0 HIT:          0 MISS:          0 MSHR_MERGE:          0
cpu0->cpu0_L1I TRANSLATION  ACCESS:          0 HIT:          0 MISS:          0 MSHR_MERGE:          0
cpu0->cpu0_L1I PREFETCH REQUESTED:          0 ISSUED:          0 USEFUL:          0 USELESS:          0 LATE:          0 TOO_EARLY:          0
cpu0->cpu0_L1I AVERAGE MISS LATENCY: 233.1 cycles
cpu0->cpu0_L1D TOTAL        ACCESS:   24697937 HIT:   21194199 MISS:    3503738 MSHR_MERGE:     898901
cpu0->cpu0_L1D LOAD         ACCESS:   15325864 HIT:   14664610 MISS:     661254 MSHR_MERGE:     388665
cpu0->cpu0_L1D RFO          ACCESS:          0 HIT:          0 MISS:          0 MSHR_MERGE:          0
cpu0->cpu0_L1D PREFETCH     ACCESS:    7136215 HIT:    4868486 MISS:    2267729 MSHR_MERGE:      21128
cpu0->cpu0_L1D WRITE        ACCESS:    2196654 HIT:    1629499 MISS:     567155 MSHR_MERGE:     489010
cpu0->cpu0_L1D TRANSLATION  ACCESS:      39204 HIT:      31604 MISS:       7600 MSHR_MERGE:         98
cpu0->cpu0_L1D PREFETCH REQUESTED:   88918521 ISSUED:    7136216 USEFUL:    1042056 USELESS:      60848 LATE:      31940 TOO_EARLY:        660
cpu0->cpu0_L1D AVERAGE MISS LATENCY: 85.64 cycles
cpu0->cpu0_ITLB TOTAL        ACCESS:    9353516 HIT:    9353516 MISS:          0 MSHR_MERGE:          0
cpu0->cpu0_ITLB LOAD         ACCESS:    9353516 HIT:    9353516 MISS:          0 MSHR_MERGE:          0
cpu0->cpu0_ITLB RFO          ACCESS:          0 HIT:          0 MISS:          0 MSHR_MERGE:          0
cpu0->cpu0_ITLB PREFETCH     ACCESS:          0 HIT:          0 MISS:          0 MSHR_MERGE:          0
cpu0->cpu0_ITLB WRITE        ACCESS:          0 HIT:          0 MISS:          0 MSHR_MERGE:          0
cpu0->cpu0_ITLB TRANSLATION  ACCESS:          0 HIT:          0 MISS:          0 MSHR_MERGE:          0
cpu0->cpu0_ITLB PREFETCH REQUESTED:          0 ISSUED:          0 USEFUL:          0 USELESS:          0 LATE:          0 TOO_EARLY:          0
cpu0->cpu0_ITLB AVERAGE MISS LATENCY: - cycles
cpu0->cpu0_DTLB TOTAL        ACCESS:   21323370 HIT:   21107321 MISS:     216049 MSHR_MERGE:     120269
cpu0->cpu0_DTLB LOAD         ACCESS:   21323370 HIT:   21107321 MISS:     216049 MSHR_MERGE:     120269
cpu0->cpu0_DTLB RFO          ACCESS:          0 HIT:          0 MISS:          0 MSHR_MERGE:          0
cpu0->cpu0_DTLB PREFETCH     ACCESS:          0 HIT:          0 MISS:          0 MSHR_MERGE:          0
cpu0->cpu0_DTLB WRITE        ACCESS:          0 HIT:          0 MISS:          0 MSHR_MERGE:          0
cpu0->cpu0_DTLB TRANSLATION  ACCESS:          0 HIT:          0 MISS:          0 MSHR_MERGE:          0
cpu0->cpu0_DTLB PREFETCH REQUESTED:          0 ISSUED:          0 USEFUL:          0 USELESS:          0 LATE:          0 TOO_EARLY:          0
cpu0->cpu0_DTLB AVERAGE MISS LATENCY: 20.79 cycles
cpu0->LLC TOTAL        ACCESS:    1541506 HIT:     936681 MISS:     604825 MSHR_MERGE:       6647
cpu0->LLC LOAD         ACCESS:     136002 HIT:      48152 MISS:      87850 MSHR_MERGE:         15
cpu0->LLC RFO          ACCESS:      70040 HIT:      50884 MISS:      19156 MSHR_MERGE:          0
cpu0->LLC PREFETCH     ACCESS:    1203486 HIT:     723814 MISS:     479672 MSHR_MERGE:       6632
cpu0->LLC WRITE        ACCESS:     126079 HIT:     112313 MISS:      13766 MSHR_MERGE:          0
cpu0->LLC TRANSLATION  ACCESS:       5899 HIT:       1518 MISS:       4381 MSHR_MERGE:          0
cpu0->LLC PREFETCH REQUESTED:          0 ISSUED:          0 USEFUL:          0 USELESS:          0 LATE:          0 TOO_EARLY:          0
cpu0->LLC AVERAGE MISS LATENCY: 187.7 cycles

DRAM Statistics

Channel 0 RQ ROW_BUFFER_HIT:      29403
  ROW_BUFFER_MISS:     554299
  AVG DBUS CONGESTED CYCLE: 7.919
Channel 0 WQ ROW_BUFFER_HIT:       9429
  ROW_BUFFER_MISS:      23325
  FULL:          0
Channel 0 REFRESHES ISSUED:       3185

[ROI Statistics]
[System Configuration]
num_cpus 1
cpu_freq 4000
fetch_width 6
decode_width 6
dispatch_width 6
execute_width 6
lq_width 2
sq_width 2
retire_width 6
scheduler_size 128
branch_mispredict_penalty 15
rob_size 352
lq_size 128
sq_size 72
ifetch_buffer_size 64
decode_buffer_size 32
dispatch_buffer_size 32
register_file_size 288
decode_latency 1
dispatch_latency 1
schedule_latency 1
execute_latency 1
page_size 4096
block_size 64
core_0_itlb_set 16
core_0_itlb_way 4
core_0_itlb_rq_size 16
core_0_itlb_wq_size 16
core_0_itlb_pq_size 0
core_0_itlb_mshr_size 8
core_0_itlb_hit_latency 1
core_0_itlb_fill_latency 1
core_0_itlb_max_tag_check 2
core_0_itlb_max_fill 2
core_0_dtlb_set 16
core_0_dtlb_way 4
core_0_dtlb_rq_size 16
core_0_dtlb_wq_size 16
core_0_dtlb_pq_size 0
core_0_dtlb_mshr_size 8
core_0_dtlb_hit_latency 1
core_0_dtlb_fill_latency 1
core_0_dtlb_max_tag_check 2
core_0_dtlb_max_fill 2
core_0_stlb_set 128
core_0_stlb_way 12
core_0_stlb_rq_size 32
core_0_stlb_wq_size 32
core_0_stlb_pq_size 0
core_0_stlb_mshr_size 16
core_0_stlb_hit_latency 4
core_0_stlb_fill_latency 4
core_0_stlb_max_tag_check 1
core_0_stlb_max_fill 1
core_0_l1i_set 64
core_0_l1i_way 8
core_0_l1i_rq_size 64
core_0_l1i_wq_size 64
core_0_l1i_pq_size 32
core_0_l1i_mshr_size 8
core_0_l1i_hit_latency 2
core_0_l1i_fill_latency 2
core_0_l1i_max_tag_check 2
core_0_l1i_max_fill 2
core_0_l1d_set 64
core_0_l1d_way 12
core_0_l1d_rq_size 64
core_0_l1d_wq_size 64
core_0_l1d_pq_size 8
core_0_l1d_mshr_size 16
core_0_l1d_hit_latency 2
core_0_l1d_fill_latency 3
core_0_l1d_max_tag_check 2
core_0_l1d_max_fill 2
core_0_l2c_set 1024
core_0_l2c_way 8
core_0_l2c_rq_size 32
core_0_l2c_wq_size 32
core_0_l2c_pq_size 16
core_0_l2c_mshr_size 32
core_0_l2c_hit_latency 5
core_0_l2c_fill_latency 5
core_0_l2c_max_tag_check 1
core_0_l2c_max_fill 1
llc_set 2048
llc_way 16
llc_rq_size 32
llc_wq_size 32
llc_pq_size 32
llc_mshr_size 64
llc_hit_latency 10
llc_fill_latency 10
llc_max_tag_check 1
llc_max_fill 1
dram_channels 1
dram_ranks 1
dram_bankgroups 8
dram_banks 4
dram_rows 65536
dram_columns 1024
dram_channel_width 8
dram_rq_size 64
dram_wq_size 64
dram_size 17179869184
core_0_itlb_prefetcher no
core_0_dtlb_prefetcher no
core_0_stlb_prefetcher no
core_0_l1i_prefetcher next_line
core_0_l1d_prefetcher vberti
core_0_l2c_prefetcher ip_stride
llc_prefetcher no
llc_replacement drrip

Core_0_instructions 100000003
Core_0_cycles 38224342
Core_0_IPC 2.61613
Core_0_branch_prediction_accuracy 99.252
Core_0_branch_MPKI 0.65699
Core_0_average_ROB_occupancy_at_mispredict 132.94

Core_0_ITLB_total_access 9353516
Core_0_ITLB_total_hit 9353516
Core_0_ITLB_total_miss 0
Core_0_ITLB_total_MPKI 0
Core_0_ITLB_total_miss_rate 0
Core_0_ITLB_demand_access 9353516
Core_0_ITLB_demand_hit 9353516
Core_0_ITLB_demand_miss 0
Core_0_ITLB_demand_MPKI 0
Core_0_ITLB_demand_miss_rate 0
Core_0_ITLB_load_access 9353516
Core_0_ITLB_load_hit 9353516
Core_0_ITLB_load_miss 0
Core_0_ITLB_load_MPKI 0
Core_0_ITLB_load_miss_rate 0
Core_0_ITLB_rfo_access 0
Core_0_ITLB_rfo_hit 0
Core_0_ITLB_rfo_miss 0
Core_0_ITLB_rfo_MPKI 0
Core_0_ITLB_rfo_miss_rate 0
Core_0_ITLB_prefetch_access 0
Core_0_ITLB_prefetch_hit 0
Core_0_ITLB_prefetch_miss 0
Core_0_ITLB_prefetch_MPKI 0
Core_0_ITLB_prefetch_miss_rate 0
Core_0_ITLB_writeback_access 0
Core_0_ITLB_writeback_hit 0
Core_0_ITLB_writeback_miss 0
Core_0_ITLB_writeback_MPKI 0
Core_0_ITLB_writeback_miss_rate 0
Core_0_ITLB_prefetch_requested 0
Core_0_ITLB_prefetch_issued 0
Core_0_ITLB_prefetch_useful 0
Core_0_ITLB_prefetch_useless 0
Core_0_ITLB_prefetch_late 0
Core_0_ITLB_prefetch_fill 0
Core_0_ITLB_prefetch_too_early 0
Core_0_ITLB_prefetch_too_early_among_fill 0
Core_0_ITLB_prefetch_too_early_among_useless 0
Core_0_ITLB_prefetch_pollution_evict 0
Core_0_ITLB_prefetch_pollution_demand 0
Core_0_ITLB_prefetch_pollution_among_prefetch_fill 0
Core_0_ITLB_prefetch_accuracy 0
Core_0_ITLB_prefetch_coverage 0

Core_0_DTLB_total_access 21323370
Core_0_DTLB_total_hit 21107321
Core_0_DTLB_total_miss 216049
Core_0_DTLB_total_MPKI 2.16049
Core_0_DTLB_total_miss_rate 0.010132
Core_0_DTLB_demand_access 21323370
Core_0_DTLB_demand_hit 21107321
Core_0_DTLB_demand_miss 216049
Core_0_DTLB_demand_MPKI 2.16049
Core_0_DTLB_demand_miss_rate 0.010132
Core_0_DTLB_load_access 21323370
Core_0_DTLB_load_hit 21107321
Core_0_DTLB_load_miss 216049
Core_0_DTLB_load_MPKI 2.16049
Core_0_DTLB_load_miss_rate 0.010132
Core_0_DTLB_rfo_access 0
Core_0_DTLB_rfo_hit 0
Core_0_DTLB_rfo_miss 0
Core_0_DTLB_rfo_MPKI 0
Core_0_DTLB_rfo_miss_rate 0
Core_0_DTLB_prefetch_access 0
Core_0_DTLB_prefetch_hit 0
Core_0_DTLB_prefetch_miss 0
Core_0_DTLB_prefetch_MPKI 0
Core_0_DTLB_prefetch_miss_rate 0
Core_0_DTLB_writeback_access 0
Core_0_DTLB_writeback_hit 0
Core_0_DTLB_writeback_miss 0
Core_0_DTLB_writeback_MPKI 0
Core_0_DTLB_writeback_miss_rate 0
Core_0_DTLB_prefetch_requested 0
Core_0_DTLB_prefetch_issued 0
Core_0_DTLB_prefetch_useful 0
Core_0_DTLB_prefetch_useless 0
Core_0_DTLB_prefetch_late 0
Core_0_DTLB_prefetch_fill 0
Core_0_DTLB_prefetch_too_early 0
Core_0_DTLB_prefetch_too_early_among_fill 0
Core_0_DTLB_prefetch_too_early_among_useless 0
Core_0_DTLB_prefetch_pollution_evict 0
Core_0_DTLB_prefetch_pollution_demand 0
Core_0_DTLB_prefetch_pollution_among_prefetch_fill 0
Core_0_DTLB_prefetch_accuracy 0
Core_0_DTLB_prefetch_coverage 0

Core_0_STLB_total_access 95780
Core_0_STLB_total_hit 75408
Core_0_STLB_total_miss 20372
Core_0_STLB_total_MPKI 0.20372
Core_0_STLB_total_miss_rate 0.212696
Core_0_STLB_demand_access 95780
Core_0_STLB_demand_hit 75408
Core_0_STLB_demand_miss 20372
Core_0_STLB_demand_MPKI 0.20372
Core_0_STLB_demand_miss_rate 0.212696
Core_0_STLB_load_access 95780
Core_0_STLB_load_hit 75408
Core_0_STLB_load_miss 20372
Core_0_STLB_load_MPKI 0.20372
Core_0_STLB_load_miss_rate 0.212696
Core_0_STLB_rfo_access 0
Core_0_STLB_rfo_hit 0
Core_0_STLB_rfo_miss 0
Core_0_STLB_rfo_MPKI 0
Core_0_STLB_rfo_miss_rate 0
Core_0_STLB_prefetch_access 0
Core_0_STLB_prefetch_hit 0
Core_0_STLB_prefetch_miss 0
Core_0_STLB_prefetch_MPKI 0
Core_0_STLB_prefetch_miss_rate 0
Core_0_STLB_writeback_access 0
Core_0_STLB_writeback_hit 0
Core_0_STLB_writeback_miss 0
Core_0_STLB_writeback_MPKI 0
Core_0_STLB_writeback_miss_rate 0
Core_0_STLB_prefetch_requested 0
Core_0_STLB_prefetch_issued 0
Core_0_STLB_prefetch_useful 0
Core_0_STLB_prefetch_useless 0
Core_0_STLB_prefetch_late 0
Core_0_STLB_prefetch_fill 0
Core_0_STLB_prefetch_too_early 0
Core_0_STLB_prefetch_too_early_among_fill 0
Core_0_STLB_prefetch_too_early_among_useless 0
Core_0_STLB_prefetch_pollution_evict 0
Core_0_STLB_prefetch_pollution_demand 0
Core_0_STLB_prefetch_pollution_among_prefetch_fill 0
Core_0_STLB_prefetch_accuracy 0
Core_0_STLB_prefetch_coverage 0

Core_0_L1I_total_access 11745932
Core_0_L1I_total_hit 11745509
Core_0_L1I_total_miss 423
Core_0_L1I_total_MPKI 0.00423
Core_0_L1I_total_miss_rate 3.60125e-05
Core_0_L1I_demand_access 11745932
Core_0_L1I_demand_hit 11745509
Core_0_L1I_demand_miss 423
Core_0_L1I_demand_MPKI 0.00423
Core_0_L1I_demand_miss_rate 3.60125e-05
Core_0_L1I_load_access 11745932
Core_0_L1I_load_hit 11745509
Core_0_L1I_load_miss 423
Core_0_L1I_load_MPKI 0.00423
Core_0_L1I_load_miss_rate 3.60125e-05
Core_0_L1I_rfo_access 0
Core_0_L1I_rfo_hit 0
Core_0_L1I_rfo_miss 0
Core_0_L1I_rfo_MPKI 0
Core_0_L1I_rfo_miss_rate 0
Core_0_L1I_prefetch_access 0
Core_0_L1I_prefetch_hit 0
Core_0_L1I_prefetch_miss 0
Core_0_L1I_prefetch_MPKI 0
Core_0_L1I_prefetch_miss_rate 0
Core_0_L1I_writeback_access 0
Core_0_L1I_writeback_hit 0
Core_0_L1I_writeback_miss 0
Core_0_L1I_writeback_MPKI 0
Core_0_L1I_writeback_miss_rate 0
Core_0_L1I_prefetch_requested 0
Core_0_L1I_prefetch_issued 0
Core_0_L1I_prefetch_useful 0
Core_0_L1I_prefetch_useless 0
Core_0_L1I_prefetch_late 0
Core_0_L1I_prefetch_fill 0
Core_0_L1I_prefetch_too_early 0
Core_0_L1I_prefetch_too_early_among_fill 0
Core_0_L1I_prefetch_too_early_among_useless 0
Core_0_L1I_prefetch_pollution_evict 0
Core_0_L1I_prefetch_pollution_demand 0
Core_0_L1I_prefetch_pollution_among_prefetch_fill 0
Core_0_L1I_prefetch_accuracy 0
Core_0_L1I_prefetch_coverage 0

Core_0_L1D_total_access 24658733
Core_0_L1D_total_hit 21162595
Core_0_L1D_total_miss 3496138
Core_0_L1D_total_MPKI 34.9614
Core_0_L1D_total_miss_rate 0.141781
Core_0_L1D_demand_access 15325864
Core_0_L1D_demand_hit 14664610
Core_0_L1D_demand_miss 661254
Core_0_L1D_demand_MPKI 6.61254
Core_0_L1D_demand_miss_rate 0.0431463
Core_0_L1D_load_access 15325864
Core_0_L1D_load_hit 14664610
Core_0_L1D_load_miss 661254
Core_0_L1D_load_MPKI 6.61254
Core_0_L1D_load_miss_rate 0.0431463
Core_0_L1D_rfo_access 0
Core_0_L1D_rfo_hit 0
Core_0_L1D_rfo_miss 0
Core_0_L1D_rfo_MPKI 0
Core_0_L1D_rfo_miss_rate 0
Core_0_L1D_prefetch_access 7136215
Core_0_L1D_prefetch_hit 4868486
Core_0_L1D_prefetch_miss 2267729
Core_0_L1D_prefetch_MPKI 22.6773
Core_0_L1D_prefetch_miss_rate 0.317778
Core_0_L1D_writeback_access 2196654
Core_0_L1D_writeback_hit 1629499
Core_0_L1D_writeback_miss 567155
Core_0_L1D_writeback_MPKI 5.67155
Core_0_L1D_writeback_miss_rate 0.25819
Core_0_L1D_prefetch_requested 88918521
Core_0_L1D_prefetch_issued 7136216
Core_0_L1D_prefetch_useful 1042056
Core_0_L1D_prefetch_useless 60848
Core_0_L1D_prefetch_late 31940
Core_0_L1D_prefetch_fill 1070991
Core_0_L1D_prefetch_too_early 660
Core_0_L1D_prefetch_too_early_among_fill 0.000616252
Core_0_L1D_prefetch_too_early_among_useless 0.0108467
Core_0_L1D_prefetch_pollution_evict 21450
Core_0_L1D_prefetch_pollution_demand 21308
Core_0_L1D_prefetch_pollution_among_prefetch_fill 0.0200282
Core_0_L1D_prefetch_accuracy 0.146024
Core_0_L1D_prefetch_coverage 0.611783

Core_0_L2C_total_access 3669732
Core_0_L2C_total_hit 1644284
Core_0_L2C_total_miss 2025448
Core_0_L2C_total_MPKI 20.2545
Core_0_L2C_total_miss_rate 0.551933
Core_0_L2C_demand_access 350914
Core_0_L2C_demand_hit 139716
Core_0_L2C_demand_miss 211198
Core_0_L2C_demand_MPKI 2.11198
Core_0_L2C_demand_miss_rate 0.601851
Core_0_L2C_load_access 272770
Core_0_L2C_load_hit 131796
Core_0_L2C_load_miss 140974
Core_0_L2C_load_MPKI 1.40974
Core_0_L2C_load_miss_rate 0.516824
Core_0_L2C_rfo_access 78144
Core_0_L2C_rfo_hit 7920
Core_0_L2C_rfo_miss 70224
Core_0_L2C_rfo_MPKI 0.70224
Core_0_L2C_rfo_miss_rate 0.898649
Core_0_L2C_prefetch_access 3184547
Core_0_L2C_prefetch_hit 1370522
Core_0_L2C_prefetch_miss 1814025
Core_0_L2C_prefetch_MPKI 18.1402
Core_0_L2C_prefetch_miss_rate 0.569634
Core_0_L2C_writeback_access 134271
Core_0_L2C_writeback_hit 134046
Core_0_L2C_writeback_miss 225
Core_0_L2C_writeback_MPKI 0.00225
Core_0_L2C_writeback_miss_rate 0.00167572
Core_0_L2C_prefetch_requested 999774
Core_0_L2C_prefetch_issued 978466
Core_0_L2C_prefetch_useful 232224
Core_0_L2C_prefetch_useless 95852
Core_0_L2C_prefetch_late 1659
Core_0_L2C_prefetch_fill 1182245
Core_0_L2C_prefetch_too_early 1334
Core_0_L2C_prefetch_too_early_among_fill 0.00112836
Core_0_L2C_prefetch_too_early_among_useless 0.0139173
Core_0_L2C_prefetch_pollution_evict 14739
Core_0_L2C_prefetch_pollution_demand 14618
Core_0_L2C_prefetch_pollution_among_prefetch_fill 0.012467
Core_0_L2C_prefetch_accuracy 0.237335
Core_0_L2C_prefetch_coverage 0.523709

Core_0_LLC_total_access 1535607
Core_0_LLC_total_hit 935163
Core_0_LLC_total_miss 600444
Core_0_LLC_total_MPKI 6.00444
Core_0_LLC_total_miss_rate 0.391014
Core_0_LLC_demand_access 206042
Core_0_LLC_demand_hit 99036
Core_0_LLC_demand_miss 107006
Core_0_LLC_demand_MPKI 1.07006
Core_0_LLC_demand_miss_rate 0.519341
Core_0_LLC_load_access 136002
Core_0_LLC_load_hit 48152
Core_0_LLC_load_miss 87850
Core_0_LLC_load_MPKI 0.8785
Core_0_LLC_load_miss_rate 0.645946
Core_0_LLC_rfo_access 70040
Core_0_LLC_rfo_hit 50884
Core_0_LLC_rfo_miss 19156
Core_0_LLC_rfo_MPKI 0.19156
Core_0_LLC_rfo_miss_rate 0.273501
Core_0_LLC_prefetch_access 1203486
Core_0_LLC_prefetch_hit 723814
Core_0_LLC_prefetch_miss 479672
Core_0_LLC_prefetch_MPKI 4.79672
Core_0_LLC_prefetch_miss_rate 0.398569
Core_0_LLC_writeback_access 126079
Core_0_LLC_writeback_hit 112313
Core_0_LLC_writeback_miss 13766
Core_0_LLC_writeback_MPKI 0.13766
Core_0_LLC_writeback_miss_rate 0.109186
Core_0_LLC_prefetch_requested 0
Core_0_LLC_prefetch_issued 0
Core_0_LLC_prefetch_useful 0
Core_0_LLC_prefetch_useless 0
Core_0_LLC_prefetch_late 0
Core_0_LLC_prefetch_fill 473024
Core_0_LLC_prefetch_too_early 0
Core_0_LLC_prefetch_too_early_among_fill 0
Core_0_LLC_prefetch_too_early_among_useless 0
Core_0_LLC_prefetch_pollution_evict 61974
Core_0_LLC_prefetch_pollution_demand 61974
Core_0_LLC_prefetch_pollution_among_prefetch_fill 0.131017
Core_0_LLC_prefetch_accuracy 0
Core_0_LLC_prefetch_coverage 0

[DRAM Statistics]
Channel_0_RQ_row_buffer_hit 29403
Channel_0_RQ_row_buffer_miss 554299
Channel_0_WQ_row_buffer_hit 9429
Channel_0_WQ_row_buffer_miss 23325
Channel_0_WQ_full 0
Channel_0_dbus_congested 1135704
DRAM_total_RQ_row_buffer_hit 29403
DRAM_total_RQ_row_buffer_miss 554299
DRAM_total_WQ_row_buffer_hit 9429
DRAM_total_WQ_row_buffer_miss 23325
DRAM_total_WQ_full 0
DRAM_total_dbus_congested 1135704
DRAM_avg_congested_cycle 7.91927

====== DRAM_RQ_TRAFFIC ========
DRAM_RQ_READ_TRAFFIC_BREAKDOWN:
data_demand_read.count = 106812
data_demand_read.share = 18.28%

inst_demand_read.count = 179
inst_demand_read.share = 0.03%

cache_inst_prefetch.count = 0
cache_inst_prefetch.share = 0.00%

cache_data_prefetch.count = 473040
cache_data_prefetch.share = 80.94%

stlb_data_demand.count = 2008
stlb_data_demand.share = 0.34%

stlb_inst_demand.count = 0
stlb_inst_demand.share = 0.00%

stlb_l1i_pref.count = 0
stlb_l1i_pref.share = 0.00%

stlb_l1d_pref.count = 2373
stlb_l1d_pref.share = 0.41%

DRAM_RQ_READ_TRAFFIC_SUMMARY:
cache_demand.count = 106991
cache_demand.share = 18.31%

cache_prefetch.count = 473040
cache_prefetch.share = 80.94%

stlb_demand.count = 2008
stlb_demand.share = 0.34%

stlb_prefetch.count = 2373
stlb_prefetch.share = 0.41%

DRAM_RQ_READ_TRAFFIC_DEBUG:
total_classified_read.count = 584412
unclassified_read.count = 0
total_read_with_other.count = 584412

classified_plus_unclassified_check.count = 584412
dram_rq_read_total_observed.count = 584412
dram_rq_read_total_observed.per_1K_instructions = 5.84412

STLB_MISS_PTW_DRAM_TOUCH_BREAKDOWN:
stlb_miss_total.count = 19676

stlb_miss_touch_dram.count = 4384
stlb_miss_touch_dram.share = 22.28%

stlb_miss_no_dram_touch.count = 15292
stlb_miss_no_dram_touch.share = 77.72%

STLB_MISS_PTW_DRAM_TOUCH_DEBUG:
stlb_miss_touch_plus_no_touch.count = 19676
stlb_miss_total_check.count = 19676

======STLB miss causes ========
Core_0_STLB_miss_cause_breakdown
Core_0_STLB_cause_Demand_Data_miss 5229
Core_0_STLB_cause_Demand_Data_miss_rate 0.0545939
Core_0_STLB_cause_Demand_Instruction_miss 0
Core_0_STLB_cause_Demand_Instruction_miss_rate 0
Core_0_STLB_cause_L1D_Prefetch_miss 15143
Core_0_STLB_cause_L1D_Prefetch_miss_rate 0.158102
Core_0_STLB_cause_L1D_Prefetch_Same_Page_miss 2
Core_0_STLB_cause_L1D_Prefetch_Same_Page_miss_rate 2.08812e-05
Core_0_STLB_cause_L1D_Prefetch_Cross_Page_miss 15141
Core_0_STLB_cause_L1D_Prefetch_Cross_Page_miss_rate 0.158081
Core_0_STLB_cause_L1I_Prefetch_miss 0
Core_0_STLB_cause_L1I_Prefetch_miss_rate 0
Core_0_STLB_cause_Other_miss 0
Core_0_STLB_cause_Other_miss_rate 0
Core_0_STLB_Demand_miss 5229
Core_0_STLB_Demand_miss_rate 0.0545939
Core_0_STLB_L1D_Prefetch_miss 15143
Core_0_STLB_L1D_Prefetch_miss_rate 0.158102
Core_0_STLB_Other_miss 0
Core_0_STLB_Other_miss_rate 0

========== vBerti-TLB Cross-page Flow Stats ==========

Core_0_vBerti_Requested 88918521
Core_0_vBerti_Cross_page_prefetch_in_Requested 16141929
Core_0_vBerti_Same_page_prefetch_in_Requested 72776592
Core_0_vBerti_Cross_page_prefetch_of_Requested 0.181536
Core_0_vBerti_Issued 7136216
Core_0_vBerti_PQ_Drop_Rate 0.919744
Core_0_vBerti_InPQ_Cross_page_prefetch_of_Requested 0.00886417
Core_0_vBerti_Cross_page_PQ_Drop_rate 0.951171
Core_0_vBerti_Cross_page_prefetch_of_Issued 0.110449

========= DTLB_vBerti Prefetch Stats =========
Core_0_DTLB_demand_access 16121117
Core_0_DTLB_demand_hit 15958859
Core_0_DTLB_demand_miss 162258
Core_0_DTLB_demand_mshr_merge 88844
Core_0_DTLB_demand_fill 73664
Core_0_DTLB_demand_miss_rate 0.0100649
Core_0_DTLB_demand_mpki 1.62258
Core_0_DTLB_vberti_prefetch_access 5202253
Core_0_DTLB_vberti_prefetch_hit 5148462
Core_0_DTLB_vberti_prefetch_miss 53791
Core_0_DTLB_vberti_prefetch_mshr_merge 31425
Core_0_DTLB_vberti_prefetch_fill 22116
Core_0_DTLB_vberti_prefetch_miss_rate 0.0103399
Core_0_DTLB_vberti_prefetch_mpki 0.53791

=== DTLB_vBerti Same/Cross-page Prefetch Stats ===
Core_0_DTLB_vberti_same_page_prefetch 4493807
Core_0_DTLB_vberti_same_page_prefetch_hit 4493489
Core_0_DTLB_vberti_same_page_prefetch_miss 318
Core_0_DTLB_vberti_same_page_prefetch_mshr_merge 119
Core_0_DTLB_vberti_same_page_prefetch_fill 197
Core_0_DTLB_vberti_same_page_prefetch_miss_rate 7.07641e-05
Core_0_DTLB_vberti_same_page_prefetch_mpki 0.00318
Core_0_DTLB_vberti_cross_page_prefetch 708446
Core_0_DTLB_vberti_cross_page_prefetch_hit 654973
Core_0_DTLB_vberti_cross_page_prefetch_miss 53473
Core_0_DTLB_vberti_cross_page_prefetch_mshr_merge 31306
Core_0_DTLB_vberti_cross_page_prefetch_fill 21919
Core_0_DTLB_vberti_cross_page_prefetch_miss_rate 0.0754793
Core_0_DTLB_vberti_cross_page_prefetch_mpki 0.53473
Core_0_DTLB_same_page_prefetch_miss_rate 7.07641e-05
Core_0_DTLB_same_page_prefetch_mpki 0.00318
Core_0_DTLB_cross_page_prefetch_miss_rate 0.0754793
Core_0_DTLB_cross_page_prefetch_mpki 0.53473
Core_0_DTLB_cross_page_prefetch_issued 708446
Core_0_DTLB_cross_page_prefetch_lookups 708446
Core_0_DTLB_cross_page_prefetch_useful 18700
Core_0_DTLB_cross_page_prefetch_useless 3467
Core_0_DTLB_cross_page_prefetch_late 248
Core_0_DTLB_cross_page_prefetch_too_early 579
Core_0_DTLB_cross_page_prefetch_too_early_among_fill 0.0264154
Core_0_DTLB_cross_page_prefetch_too_early_among_useless 0.167003
Core_0_DTLB_cross_page_prefetch_pollution_evict 3251
Core_0_DTLB_cross_page_prefetch_pollution_demand 3058
Core_0_DTLB_cross_page_prefetch_pollution_among_prefetch_fill 0.148319
Core_0_DTLB_cross_page_prefetch_accuracy 0.0263958
Core_0_DTLB_cross_page_prefetch_coverage 0.103339

========= STLB_vBerti Prefetch Stats =========
Core_0_STLB_demand_access 73414
Core_0_STLB_demand_hit 68185
Core_0_STLB_demand_miss 5229
Core_0_STLB_demand_mshr_merge 0
Core_0_STLB_demand_fill 5229
Core_0_STLB_demand_miss_rate 0.0712262
Core_0_STLB_demand_mpki 0.05229
Core_0_STLB_vberti_prefetch_access 22366
Core_0_STLB_vberti_prefetch_hit 7223
Core_0_STLB_vberti_prefetch_miss 15143
Core_0_STLB_vberti_prefetch_mshr_merge 0
Core_0_STLB_vberti_prefetch_fill 2
Core_0_STLB_vberti_prefetch_miss_rate 0.677054
Core_0_STLB_vberti_prefetch_mpki 0.15143

=== STLB_vBerti Same/Cross-page Prefetch Stats ===
Core_0_STLB_vberti_same_page_prefetch 199
Core_0_STLB_vberti_same_page_prefetch_hit 197
Core_0_STLB_vberti_same_page_prefetch_miss 2
Core_0_STLB_vberti_same_page_prefetch_mshr_merge 0
Core_0_STLB_vberti_same_page_prefetch_fill 2
Core_0_STLB_vberti_same_page_prefetch_miss_rate 0.0100503
Core_0_STLB_vberti_same_page_prefetch_mpki 2e-05
Core_0_STLB_vberti_cross_page_prefetch 22167
Core_0_STLB_vberti_cross_page_prefetch_hit 7026
Core_0_STLB_vberti_cross_page_prefetch_miss 15141
Core_0_STLB_vberti_cross_page_prefetch_mshr_merge 0
Core_0_STLB_vberti_cross_page_prefetch_fill 0
Core_0_STLB_vberti_cross_page_prefetch_miss_rate 0.683042
Core_0_STLB_vberti_cross_page_prefetch_mpki 0.15141
Core_0_STLB_same_page_prefetch_miss_rate 0.0100503
Core_0_STLB_same_page_prefetch_mpki 2e-05
Core_0_STLB_cross_page_prefetch_miss_rate 0.683042
Core_0_STLB_cross_page_prefetch_mpki 0.15141
Core_0_STLB_cross_page_prefetch_issued 22167
Core_0_STLB_cross_page_prefetch_lookups 22167
Core_0_STLB_cross_page_prefetch_useful 696
Core_0_STLB_cross_page_prefetch_useless 13456
Core_0_STLB_cross_page_prefetch_late 696
Core_0_STLB_cross_page_prefetch_too_early 0
Core_0_STLB_cross_page_prefetch_too_early_among_fill 0
Core_0_STLB_cross_page_prefetch_too_early_among_useless 0
Core_0_STLB_cross_page_prefetch_pollution_evict 0
Core_0_STLB_cross_page_prefetch_pollution_demand 0
Core_0_STLB_cross_page_prefetch_pollution_among_prefetch_fill 0
Core_0_STLB_cross_page_prefetch_accuracy 0.031398
Core_0_STLB_cross_page_prefetch_coverage 0.117468

========= STLB Cross-page Prefetch Buffer Stats =========
Core_0_STLB_raw_demand_miss 5229
Core_0_CP_PB_insert 15141
Core_0_CP_PB_demand_hit 696
Core_0_STLB_PB_demand_miss 4533
Core_0_CP_PB_coverage 0.133104
Core_0_STLB_raw_demand_mpki 0.05229
Core_0_STLB_PB_demand_mpki 0.04533
Core_0_CP_PB_demand_hit_mpki 0.00696

Core_0_TLB_demand_miss_rate 0.000324357
Core_0_TLB_demand_mpki 0.05229
Core_0_TLB_same_page_prefetch_miss_rate 4.45057e-07
Core_0_TLB_same_page_prefetch_mpki 2e-05
Core_0_TLB_cross_page_prefetch_miss_rate 0.0213721
Core_0_TLB_cross_page_prefetch_mpki 0.15141
Core_0_TLB_cross_page_prefetch_issued 708446
Core_0_TLB_cross_page_prefetch_lookups 708446
Core_0_TLB_cross_page_prefetch_useful 1197
Core_0_TLB_cross_page_prefetch_useless 2363
Core_0_TLB_cross_page_prefetch_late 35
Core_0_TLB_cross_page_prefetch_too_early 407
Core_0_TLB_cross_page_prefetch_too_early_among_fill 0.0185684
Core_0_TLB_cross_page_prefetch_too_early_among_useless 0.172239
Core_0_TLB_cross_page_prefetch_accuracy 0.00168961
Core_0_TLB_cross_page_prefetch_coverage 0.186275
BERTI TO_L1: 125608588 TO_L2: 29890366 TO_L2_BC_MSHR: 485510
BERTI AVG_LAT: 63.6487 NUM_TRACK_LATENCY: 2194933 NUM_CANT_TRACK_LATENCY: 43
BERTI CROSS_PAGE 32550078 NO_CROSS_PAGE: 122948876
BERTI FOUND_BERTI: 18076063 NO_FOUND_BERTI: 9796996
BERTI AVERAGE_ISSUED: 1.59471
