[VMEM] WARNING: physical memory size is smaller than virtual memory size.

*** ChampSim Multicore Out-of-Order Simulator ***
Warmup Instructions: 50000000
Simulation Instructions: 100000000
Number of CPUs: 1
Page size: 4096
Core 0: /data0/tzh/champsim_traces/SPEC06/482.sphinx3-1522B.champsimtrace.xz
VBerti Prefetcher
BERTI HASH ENTANGLING
BERTI IP MASK ffff
Off-chip DRAM Size: 16 GiB Channels: 1 Width: 64-bit Data Rate: 3205 MT/s
Warmup halting CPU 0 at instruction 50000003 cycle 10665436 for remainder of phase
Warmup finished CPU 0 instructions: 50000003 cycles: 10665436 cumulative IPC: 4.688 (Simulation time: 00 hr 02 min 43 sec)
Warmup complete CPU 0 instructions: 50000003 cycles: 10665436 cumulative IPC: 4.688 (Simulation time: 00 hr 02 min 43 sec)
Simulation finished CPU 0 instructions: 100000001 cycles: 43806516 cumulative IPC: 2.283 (Simulation time: 00 hr 10 min 51 sec)
Simulation complete CPU 0 instructions: 100000001 cycles: 43806516 cumulative IPC: 2.283 (Simulation time: 00 hr 10 min 51 sec)

ChampSim completed all CPUs

=== Simulation ===
CPU 0 runs /data0/tzh/champsim_traces/SPEC06/482.sphinx3-1522B.champsimtrace.xz

Region of Interest Statistics

CPU 0 cumulative IPC: 2.283 instructions: 100000001 cycles: 43806516
CPU 0 Branch Prediction Accuracy: 98.91% MPKI: 0.9808 Average ROB Occupancy at Mispredict: 158.7
Branch type MPKI
BRANCH_DIRECT_JUMP: 0.00014
BRANCH_INDIRECT: 0
BRANCH_CONDITIONAL: 0.9797
BRANCH_DIRECT_CALL: 3e-05
BRANCH_INDIRECT_CALL: 1e-05
BRANCH_RETURN: 0.00087

cpu0->cpu0_STLB TOTAL        ACCESS:     141036 HIT:     121804 MISS:      19232 MSHR_MERGE:          0
cpu0->cpu0_STLB LOAD         ACCESS:     141036 HIT:     121804 MISS:      19232 MSHR_MERGE:          0
cpu0->cpu0_STLB RFO          ACCESS:          0 HIT:          0 MISS:          0 MSHR_MERGE:          0
cpu0->cpu0_STLB PREFETCH     ACCESS:          0 HIT:          0 MISS:          0 MSHR_MERGE:          0
cpu0->cpu0_STLB WRITE        ACCESS:          0 HIT:          0 MISS:          0 MSHR_MERGE:          0
cpu0->cpu0_STLB TRANSLATION  ACCESS:          0 HIT:          0 MISS:          0 MSHR_MERGE:          0
cpu0->cpu0_STLB PREFETCH REQUESTED:          0 ISSUED:          0 USEFUL:          0 USELESS:          0 LATE:          0 TOO_EARLY:          0
cpu0->cpu0_STLB AVERAGE MISS LATENCY: 91.2 cycles
cpu0->cpu0_L2C TOTAL        ACCESS:    3903374 HIT:    1625722 MISS:    2277652 MSHR_MERGE:     779458
cpu0->cpu0_L2C LOAD         ACCESS:     362809 HIT:     191141 MISS:     171668 MSHR_MERGE:       3482
cpu0->cpu0_L2C RFO          ACCESS:      54725 HIT:       7771 MISS:      46954 MSHR_MERGE:        221
cpu0->cpu0_L2C PREFETCH     ACCESS:    3372093 HIT:    1320419 MISS:    2051674 MSHR_MERGE:     775755
cpu0->cpu0_L2C WRITE        ACCESS:     105193 HIT:     104875 MISS:        318 MSHR_MERGE:          0
cpu0->cpu0_L2C TRANSLATION  ACCESS:       8554 HIT:       1516 MISS:       7038 MSHR_MERGE:          0
cpu0->cpu0_L2C PREFETCH REQUESTED:    1187763 ISSUED:    1178174 USEFUL:     241979 USELESS:     142069 LATE:       1191 TOO_EARLY:        608
cpu0->cpu0_L2C AVERAGE MISS LATENCY: 146.5 cycles
cpu0->cpu0_L1I TOTAL        ACCESS:   12254601 HIT:   12254224 MISS:        377 MSHR_MERGE:        207
cpu0->cpu0_L1I LOAD         ACCESS:   12254601 HIT:   12254224 MISS:        377 MSHR_MERGE:        207
cpu0->cpu0_L1I RFO          ACCESS:          0 HIT:          0 MISS:          0 MSHR_MERGE:          0
cpu0->cpu0_L1I PREFETCH     ACCESS:          0 HIT:          0 MISS:          0 MSHR_MERGE:          0
cpu0->cpu0_L1I WRITE        ACCESS:          0 HIT:          0 MISS:          0 MSHR_MERGE:          0
cpu0->cpu0_L1I TRANSLATION  ACCESS:          0 HIT:          0 MISS:          0 MSHR_MERGE:          0
cpu0->cpu0_L1I PREFETCH REQUESTED:          0 ISSUED:          0 USEFUL:          0 USELESS:          0 LATE:          0 TOO_EARLY:          0
cpu0->cpu0_L1I AVERAGE MISS LATENCY: 209.5 cycles
cpu0->cpu0_L1D TOTAL        ACCESS:   25192481 HIT:   21802907 MISS:    3389574 MSHR_MERGE:     737012
cpu0->cpu0_L1D LOAD         ACCESS:   15583326 HIT:   14829276 MISS:     754050 MSHR_MERGE:     391408
cpu0->cpu0_L1D RFO          ACCESS:          0 HIT:          0 MISS:          0 MSHR_MERGE:          0
cpu0->cpu0_L1D PREFETCH     ACCESS:    7639500 HIT:    5397591 MISS:    2241909 MSHR_MERGE:      15268
cpu0->cpu0_L1D WRITE        ACCESS:    1932352 HIT:    1547362 MISS:     384990 MSHR_MERGE:     330265
cpu0->cpu0_L1D TRANSLATION  ACCESS:      37303 HIT:      28678 MISS:       8625 MSHR_MERGE:         71
cpu0->cpu0_L1D PREFETCH REQUESTED:   85972780 ISSUED:    7639500 USEFUL:     995013 USELESS:     111382 LATE:      33601 TOO_EARLY:        376
cpu0->cpu0_L1D AVERAGE MISS LATENCY: 87.95 cycles
cpu0->cpu0_ITLB TOTAL        ACCESS:    8852270 HIT:    8852269 MISS:          1 MSHR_MERGE:          0
cpu0->cpu0_ITLB LOAD         ACCESS:    8852270 HIT:    8852269 MISS:          1 MSHR_MERGE:          0
cpu0->cpu0_ITLB RFO          ACCESS:          0 HIT:          0 MISS:          0 MSHR_MERGE:          0
cpu0->cpu0_ITLB PREFETCH     ACCESS:          0 HIT:          0 MISS:          0 MSHR_MERGE:          0
cpu0->cpu0_ITLB WRITE        ACCESS:          0 HIT:          0 MISS:          0 MSHR_MERGE:          0
cpu0->cpu0_ITLB TRANSLATION  ACCESS:          0 HIT:          0 MISS:          0 MSHR_MERGE:          0
cpu0->cpu0_ITLB PREFETCH REQUESTED:          0 ISSUED:          0 USEFUL:          0 USELESS:          0 LATE:          0 TOO_EARLY:          0
cpu0->cpu0_ITLB AVERAGE MISS LATENCY: 392 cycles
cpu0->cpu0_DTLB TOTAL        ACCESS:   21843160 HIT:   21564129 MISS:     279031 MSHR_MERGE:     137996
cpu0->cpu0_DTLB LOAD         ACCESS:   21843160 HIT:   21564129 MISS:     279031 MSHR_MERGE:     137996
cpu0->cpu0_DTLB RFO          ACCESS:          0 HIT:          0 MISS:          0 MSHR_MERGE:          0
cpu0->cpu0_DTLB PREFETCH     ACCESS:          0 HIT:          0 MISS:          0 MSHR_MERGE:          0
cpu0->cpu0_DTLB WRITE        ACCESS:          0 HIT:          0 MISS:          0 MSHR_MERGE:          0
cpu0->cpu0_DTLB TRANSLATION  ACCESS:          0 HIT:          0 MISS:          0 MSHR_MERGE:          0
cpu0->cpu0_DTLB PREFETCH REQUESTED:          0 ISSUED:          0 USEFUL:          0 USELESS:          0 LATE:          0 TOO_EARLY:          0
cpu0->cpu0_DTLB AVERAGE MISS LATENCY: 17.23 cycles
cpu0->LLC TOTAL        ACCESS:    1594945 HIT:     667206 MISS:     927739 MSHR_MERGE:      35169
cpu0->LLC LOAD         ACCESS:     168186 HIT:      65972 MISS:     102214 MSHR_MERGE:         53
cpu0->LLC RFO          ACCESS:      46733 HIT:      18198 MISS:      28535 MSHR_MERGE:          2
cpu0->LLC PREFETCH     ACCESS:    1275909 HIT:     510992 MISS:     764917 MSHR_MERGE:      35114
cpu0->LLC WRITE        ACCESS:      97079 HIT:      70107 MISS:      26972 MSHR_MERGE:          0
cpu0->LLC TRANSLATION  ACCESS:       7038 HIT:       1937 MISS:       5101 MSHR_MERGE:          0
cpu0->LLC PREFETCH REQUESTED:          0 ISSUED:          0 USEFUL:          0 USELESS:          0 LATE:          0 TOO_EARLY:          0
cpu0->LLC AVERAGE MISS LATENCY: 180.6 cycles

DRAM Statistics

Channel 0 RQ ROW_BUFFER_HIT:      29476
  ROW_BUFFER_MISS:     835657
  AVG DBUS CONGESTED CYCLE: 6.558
Channel 0 WQ ROW_BUFFER_HIT:      11674
  ROW_BUFFER_MISS:      38082
  FULL:          0
Channel 0 REFRESHES ISSUED:       3651

[ROI Statistics]
[System Configuration]
num_cpus 1
cpu_freq 4000
fetch_width 6
decode_width 6
dispatch_width 6
execute_width 6
lq_width 2
sq_width 2
retire_width 6
scheduler_size 128
branch_mispredict_penalty 15
rob_size 352
lq_size 128
sq_size 72
ifetch_buffer_size 64
decode_buffer_size 32
dispatch_buffer_size 32
register_file_size 288
decode_latency 1
dispatch_latency 1
schedule_latency 1
execute_latency 1
page_size 4096
block_size 64
core_0_itlb_set 16
core_0_itlb_way 4
core_0_itlb_rq_size 16
core_0_itlb_wq_size 16
core_0_itlb_pq_size 0
core_0_itlb_mshr_size 8
core_0_itlb_hit_latency 1
core_0_itlb_fill_latency 1
core_0_itlb_max_tag_check 2
core_0_itlb_max_fill 2
core_0_dtlb_set 16
core_0_dtlb_way 4
core_0_dtlb_rq_size 16
core_0_dtlb_wq_size 16
core_0_dtlb_pq_size 0
core_0_dtlb_mshr_size 8
core_0_dtlb_hit_latency 1
core_0_dtlb_fill_latency 1
core_0_dtlb_max_tag_check 2
core_0_dtlb_max_fill 2
core_0_stlb_set 128
core_0_stlb_way 12
core_0_stlb_rq_size 32
core_0_stlb_wq_size 32
core_0_stlb_pq_size 0
core_0_stlb_mshr_size 16
core_0_stlb_hit_latency 4
core_0_stlb_fill_latency 4
core_0_stlb_max_tag_check 1
core_0_stlb_max_fill 1
core_0_l1i_set 64
core_0_l1i_way 8
core_0_l1i_rq_size 64
core_0_l1i_wq_size 64
core_0_l1i_pq_size 32
core_0_l1i_mshr_size 8
core_0_l1i_hit_latency 2
core_0_l1i_fill_latency 2
core_0_l1i_max_tag_check 2
core_0_l1i_max_fill 2
core_0_l1d_set 64
core_0_l1d_way 12
core_0_l1d_rq_size 64
core_0_l1d_wq_size 64
core_0_l1d_pq_size 8
core_0_l1d_mshr_size 16
core_0_l1d_hit_latency 2
core_0_l1d_fill_latency 3
core_0_l1d_max_tag_check 2
core_0_l1d_max_fill 2
core_0_l2c_set 1024
core_0_l2c_way 8
core_0_l2c_rq_size 32
core_0_l2c_wq_size 32
core_0_l2c_pq_size 16
core_0_l2c_mshr_size 32
core_0_l2c_hit_latency 5
core_0_l2c_fill_latency 5
core_0_l2c_max_tag_check 1
core_0_l2c_max_fill 1
llc_set 2048
llc_way 16
llc_rq_size 32
llc_wq_size 32
llc_pq_size 32
llc_mshr_size 64
llc_hit_latency 10
llc_fill_latency 10
llc_max_tag_check 1
llc_max_fill 1
dram_channels 1
dram_ranks 1
dram_bankgroups 8
dram_banks 4
dram_rows 65536
dram_columns 1024
dram_channel_width 8
dram_rq_size 64
dram_wq_size 64
dram_size 17179869184
core_0_itlb_prefetcher no
core_0_dtlb_prefetcher no
core_0_stlb_prefetcher no
core_0_l1i_prefetcher next_line
core_0_l1d_prefetcher vberti
core_0_l2c_prefetcher ip_stride
llc_prefetcher no
llc_replacement drrip

Core_0_instructions 100000001
Core_0_cycles 43806516
Core_0_IPC 2.28277
Core_0_branch_prediction_accuracy 98.9072
Core_0_branch_MPKI 0.98079
Core_0_average_ROB_occupancy_at_mispredict 158.723

Core_0_ITLB_total_access 8852270
Core_0_ITLB_total_hit 8852269
Core_0_ITLB_total_miss 1
Core_0_ITLB_total_MPKI 1e-05
Core_0_ITLB_total_miss_rate 1.12965e-07
Core_0_ITLB_demand_access 8852270
Core_0_ITLB_demand_hit 8852269
Core_0_ITLB_demand_miss 1
Core_0_ITLB_demand_MPKI 1e-05
Core_0_ITLB_demand_miss_rate 1.12965e-07
Core_0_ITLB_load_access 8852270
Core_0_ITLB_load_hit 8852269
Core_0_ITLB_load_miss 1
Core_0_ITLB_load_MPKI 1e-05
Core_0_ITLB_load_miss_rate 1.12965e-07
Core_0_ITLB_rfo_access 0
Core_0_ITLB_rfo_hit 0
Core_0_ITLB_rfo_miss 0
Core_0_ITLB_rfo_MPKI 0
Core_0_ITLB_rfo_miss_rate 0
Core_0_ITLB_prefetch_access 0
Core_0_ITLB_prefetch_hit 0
Core_0_ITLB_prefetch_miss 0
Core_0_ITLB_prefetch_MPKI 0
Core_0_ITLB_prefetch_miss_rate 0
Core_0_ITLB_writeback_access 0
Core_0_ITLB_writeback_hit 0
Core_0_ITLB_writeback_miss 0
Core_0_ITLB_writeback_MPKI 0
Core_0_ITLB_writeback_miss_rate 0
Core_0_ITLB_prefetch_requested 0
Core_0_ITLB_prefetch_issued 0
Core_0_ITLB_prefetch_useful 0
Core_0_ITLB_prefetch_useless 0
Core_0_ITLB_prefetch_late 0
Core_0_ITLB_prefetch_fill 0
Core_0_ITLB_prefetch_too_early 0
Core_0_ITLB_prefetch_too_early_among_fill 0
Core_0_ITLB_prefetch_too_early_among_useless 0
Core_0_ITLB_prefetch_pollution_evict 0
Core_0_ITLB_prefetch_pollution_demand 0
Core_0_ITLB_prefetch_pollution_among_prefetch_fill 0
Core_0_ITLB_prefetch_accuracy 0
Core_0_ITLB_prefetch_coverage 0

Core_0_DTLB_total_access 21843160
Core_0_DTLB_total_hit 21564129
Core_0_DTLB_total_miss 279031
Core_0_DTLB_total_MPKI 2.79031
Core_0_DTLB_total_miss_rate 0.0127743
Core_0_DTLB_demand_access 21843160
Core_0_DTLB_demand_hit 21564129
Core_0_DTLB_demand_miss 279031
Core_0_DTLB_demand_MPKI 2.79031
Core_0_DTLB_demand_miss_rate 0.0127743
Core_0_DTLB_load_access 21843160
Core_0_DTLB_load_hit 21564129
Core_0_DTLB_load_miss 279031
Core_0_DTLB_load_MPKI 2.79031
Core_0_DTLB_load_miss_rate 0.0127743
Core_0_DTLB_rfo_access 0
Core_0_DTLB_rfo_hit 0
Core_0_DTLB_rfo_miss 0
Core_0_DTLB_rfo_MPKI 0
Core_0_DTLB_rfo_miss_rate 0
Core_0_DTLB_prefetch_access 0
Core_0_DTLB_prefetch_hit 0
Core_0_DTLB_prefetch_miss 0
Core_0_DTLB_prefetch_MPKI 0
Core_0_DTLB_prefetch_miss_rate 0
Core_0_DTLB_writeback_access 0
Core_0_DTLB_writeback_hit 0
Core_0_DTLB_writeback_miss 0
Core_0_DTLB_writeback_MPKI 0
Core_0_DTLB_writeback_miss_rate 0
Core_0_DTLB_prefetch_requested 0
Core_0_DTLB_prefetch_issued 0
Core_0_DTLB_prefetch_useful 0
Core_0_DTLB_prefetch_useless 0
Core_0_DTLB_prefetch_late 0
Core_0_DTLB_prefetch_fill 0
Core_0_DTLB_prefetch_too_early 0
Core_0_DTLB_prefetch_too_early_among_fill 0
Core_0_DTLB_prefetch_too_early_among_useless 0
Core_0_DTLB_prefetch_pollution_evict 0
Core_0_DTLB_prefetch_pollution_demand 0
Core_0_DTLB_prefetch_pollution_among_prefetch_fill 0
Core_0_DTLB_prefetch_accuracy 0
Core_0_DTLB_prefetch_coverage 0

Core_0_STLB_total_access 141036
Core_0_STLB_total_hit 121804
Core_0_STLB_total_miss 19232
Core_0_STLB_total_MPKI 0.19232
Core_0_STLB_total_miss_rate 0.136362
Core_0_STLB_demand_access 141036
Core_0_STLB_demand_hit 121804
Core_0_STLB_demand_miss 19232
Core_0_STLB_demand_MPKI 0.19232
Core_0_STLB_demand_miss_rate 0.136362
Core_0_STLB_load_access 141036
Core_0_STLB_load_hit 121804
Core_0_STLB_load_miss 19232
Core_0_STLB_load_MPKI 0.19232
Core_0_STLB_load_miss_rate 0.136362
Core_0_STLB_rfo_access 0
Core_0_STLB_rfo_hit 0
Core_0_STLB_rfo_miss 0
Core_0_STLB_rfo_MPKI 0
Core_0_STLB_rfo_miss_rate 0
Core_0_STLB_prefetch_access 0
Core_0_STLB_prefetch_hit 0
Core_0_STLB_prefetch_miss 0
Core_0_STLB_prefetch_MPKI 0
Core_0_STLB_prefetch_miss_rate 0
Core_0_STLB_writeback_access 0
Core_0_STLB_writeback_hit 0
Core_0_STLB_writeback_miss 0
Core_0_STLB_writeback_MPKI 0
Core_0_STLB_writeback_miss_rate 0
Core_0_STLB_prefetch_requested 0
Core_0_STLB_prefetch_issued 0
Core_0_STLB_prefetch_useful 0
Core_0_STLB_prefetch_useless 0
Core_0_STLB_prefetch_late 0
Core_0_STLB_prefetch_fill 0
Core_0_STLB_prefetch_too_early 0
Core_0_STLB_prefetch_too_early_among_fill 0
Core_0_STLB_prefetch_too_early_among_useless 0
Core_0_STLB_prefetch_pollution_evict 0
Core_0_STLB_prefetch_pollution_demand 0
Core_0_STLB_prefetch_pollution_among_prefetch_fill 0
Core_0_STLB_prefetch_accuracy 0
Core_0_STLB_prefetch_coverage 0

Core_0_L1I_total_access 12254601
Core_0_L1I_total_hit 12254224
Core_0_L1I_total_miss 377
Core_0_L1I_total_MPKI 0.00377
Core_0_L1I_total_miss_rate 3.0764e-05
Core_0_L1I_demand_access 12254601
Core_0_L1I_demand_hit 12254224
Core_0_L1I_demand_miss 377
Core_0_L1I_demand_MPKI 0.00377
Core_0_L1I_demand_miss_rate 3.0764e-05
Core_0_L1I_load_access 12254601
Core_0_L1I_load_hit 12254224
Core_0_L1I_load_miss 377
Core_0_L1I_load_MPKI 0.00377
Core_0_L1I_load_miss_rate 3.0764e-05
Core_0_L1I_rfo_access 0
Core_0_L1I_rfo_hit 0
Core_0_L1I_rfo_miss 0
Core_0_L1I_rfo_MPKI 0
Core_0_L1I_rfo_miss_rate 0
Core_0_L1I_prefetch_access 0
Core_0_L1I_prefetch_hit 0
Core_0_L1I_prefetch_miss 0
Core_0_L1I_prefetch_MPKI 0
Core_0_L1I_prefetch_miss_rate 0
Core_0_L1I_writeback_access 0
Core_0_L1I_writeback_hit 0
Core_0_L1I_writeback_miss 0
Core_0_L1I_writeback_MPKI 0
Core_0_L1I_writeback_miss_rate 0
Core_0_L1I_prefetch_requested 0
Core_0_L1I_prefetch_issued 0
Core_0_L1I_prefetch_useful 0
Core_0_L1I_prefetch_useless 0
Core_0_L1I_prefetch_late 0
Core_0_L1I_prefetch_fill 0
Core_0_L1I_prefetch_too_early 0
Core_0_L1I_prefetch_too_early_among_fill 0
Core_0_L1I_prefetch_too_early_among_useless 0
Core_0_L1I_prefetch_pollution_evict 0
Core_0_L1I_prefetch_pollution_demand 0
Core_0_L1I_prefetch_pollution_among_prefetch_fill 0
Core_0_L1I_prefetch_accuracy 0
Core_0_L1I_prefetch_coverage 0

Core_0_L1D_total_access 25155178
Core_0_L1D_total_hit 21774229
Core_0_L1D_total_miss 3380949
Core_0_L1D_total_MPKI 33.8095
Core_0_L1D_total_miss_rate 0.134404
Core_0_L1D_demand_access 15583326
Core_0_L1D_demand_hit 14829276
Core_0_L1D_demand_miss 754050
Core_0_L1D_demand_MPKI 7.5405
Core_0_L1D_demand_miss_rate 0.0483883
Core_0_L1D_load_access 15583326
Core_0_L1D_load_hit 14829276
Core_0_L1D_load_miss 754050
Core_0_L1D_load_MPKI 7.5405
Core_0_L1D_load_miss_rate 0.0483883
Core_0_L1D_rfo_access 0
Core_0_L1D_rfo_hit 0
Core_0_L1D_rfo_miss 0
Core_0_L1D_rfo_MPKI 0
Core_0_L1D_rfo_miss_rate 0
Core_0_L1D_prefetch_access 7639500
Core_0_L1D_prefetch_hit 5397591
Core_0_L1D_prefetch_miss 2241909
Core_0_L1D_prefetch_MPKI 22.4191
Core_0_L1D_prefetch_miss_rate 0.293463
Core_0_L1D_writeback_access 1932352
Core_0_L1D_writeback_hit 1547362
Core_0_L1D_writeback_miss 384990
Core_0_L1D_writeback_MPKI 3.8499
Core_0_L1D_writeback_miss_rate 0.199234
Core_0_L1D_prefetch_requested 85972780
Core_0_L1D_prefetch_issued 7639500
Core_0_L1D_prefetch_useful 995013
Core_0_L1D_prefetch_useless 111382
Core_0_L1D_prefetch_late 33601
Core_0_L1D_prefetch_fill 1072818
Core_0_L1D_prefetch_too_early 376
Core_0_L1D_prefetch_too_early_among_fill 0.000350479
Core_0_L1D_prefetch_too_early_among_useless 0.00337577
Core_0_L1D_prefetch_pollution_evict 33449
Core_0_L1D_prefetch_pollution_demand 33247
Core_0_L1D_prefetch_pollution_among_prefetch_fill 0.0311786
Core_0_L1D_prefetch_accuracy 0.130246
Core_0_L1D_prefetch_coverage 0.568883

Core_0_L2C_total_access 3894820
Core_0_L2C_total_hit 1624206
Core_0_L2C_total_miss 2270614
Core_0_L2C_total_MPKI 22.7061
Core_0_L2C_total_miss_rate 0.582983
Core_0_L2C_demand_access 417534
Core_0_L2C_demand_hit 198912
Core_0_L2C_demand_miss 218622
Core_0_L2C_demand_MPKI 2.18622
Core_0_L2C_demand_miss_rate 0.523603
Core_0_L2C_load_access 362809
Core_0_L2C_load_hit 191141
Core_0_L2C_load_miss 171668
Core_0_L2C_load_MPKI 1.71668
Core_0_L2C_load_miss_rate 0.473164
Core_0_L2C_rfo_access 54725
Core_0_L2C_rfo_hit 7771
Core_0_L2C_rfo_miss 46954
Core_0_L2C_rfo_MPKI 0.46954
Core_0_L2C_rfo_miss_rate 0.857999
Core_0_L2C_prefetch_access 3372093
Core_0_L2C_prefetch_hit 1320419
Core_0_L2C_prefetch_miss 2051674
Core_0_L2C_prefetch_MPKI 20.5167
Core_0_L2C_prefetch_miss_rate 0.608427
Core_0_L2C_writeback_access 105193
Core_0_L2C_writeback_hit 104875
Core_0_L2C_writeback_miss 318
Core_0_L2C_writeback_MPKI 0.00318
Core_0_L2C_writeback_miss_rate 0.00302301
Core_0_L2C_prefetch_requested 1187763
Core_0_L2C_prefetch_issued 1178174
Core_0_L2C_prefetch_useful 241979
Core_0_L2C_prefetch_useless 142069
Core_0_L2C_prefetch_late 1191
Core_0_L2C_prefetch_fill 1203285
Core_0_L2C_prefetch_too_early 608
Core_0_L2C_prefetch_too_early_among_fill 0.000505283
Core_0_L2C_prefetch_too_early_among_useless 0.00427961
Core_0_L2C_prefetch_pollution_evict 26131
Core_0_L2C_prefetch_pollution_demand 26019
Core_0_L2C_prefetch_pollution_among_prefetch_fill 0.0217164
Core_0_L2C_prefetch_accuracy 0.205385
Core_0_L2C_prefetch_coverage 0.525355

Core_0_LLC_total_access 1587907
Core_0_LLC_total_hit 665269
Core_0_LLC_total_miss 922638
Core_0_LLC_total_MPKI 9.22638
Core_0_LLC_total_miss_rate 0.58104
Core_0_LLC_demand_access 214919
Core_0_LLC_demand_hit 84170
Core_0_LLC_demand_miss 130749
Core_0_LLC_demand_MPKI 1.30749
Core_0_LLC_demand_miss_rate 0.608364
Core_0_LLC_load_access 168186
Core_0_LLC_load_hit 65972
Core_0_LLC_load_miss 102214
Core_0_LLC_load_MPKI 1.02214
Core_0_LLC_load_miss_rate 0.607744
Core_0_LLC_rfo_access 46733
Core_0_LLC_rfo_hit 18198
Core_0_LLC_rfo_miss 28535
Core_0_LLC_rfo_MPKI 0.28535
Core_0_LLC_rfo_miss_rate 0.610596
Core_0_LLC_prefetch_access 1275909
Core_0_LLC_prefetch_hit 510992
Core_0_LLC_prefetch_miss 764917
Core_0_LLC_prefetch_MPKI 7.64917
Core_0_LLC_prefetch_miss_rate 0.599507
Core_0_LLC_writeback_access 97079
Core_0_LLC_writeback_hit 70107
Core_0_LLC_writeback_miss 26972
Core_0_LLC_writeback_MPKI 0.26972
Core_0_LLC_writeback_miss_rate 0.277836
Core_0_LLC_prefetch_requested 0
Core_0_LLC_prefetch_issued 0
Core_0_LLC_prefetch_useful 0
Core_0_LLC_prefetch_useless 0
Core_0_LLC_prefetch_late 0
Core_0_LLC_prefetch_fill 729746
Core_0_LLC_prefetch_too_early 0
Core_0_LLC_prefetch_too_early_among_fill 0
Core_0_LLC_prefetch_too_early_among_useless 0
Core_0_LLC_prefetch_pollution_evict 62063
Core_0_LLC_prefetch_pollution_demand 62063
Core_0_LLC_prefetch_pollution_among_prefetch_fill 0.0850474
Core_0_LLC_prefetch_accuracy 0
Core_0_LLC_prefetch_coverage 0

[DRAM Statistics]
Channel_0_RQ_row_buffer_hit 29476
Channel_0_RQ_row_buffer_miss 835657
Channel_0_WQ_row_buffer_hit 11674
Channel_0_WQ_row_buffer_miss 38082
Channel_0_WQ_full 0
Channel_0_dbus_congested 1813830
DRAM_total_RQ_row_buffer_hit 29476
DRAM_total_RQ_row_buffer_miss 835657
DRAM_total_WQ_row_buffer_hit 11674
DRAM_total_WQ_row_buffer_miss 38082
DRAM_total_WQ_full 0
DRAM_total_dbus_congested 1813830
DRAM_avg_congested_cycle 6.55795

====== DRAM_RQ_TRAFFIC ========
DRAM_RQ_READ_TRAFFIC_BREAKDOWN:
data_demand_read.count = 130526
data_demand_read.share = 15.08%

inst_demand_read.count = 168
inst_demand_read.share = 0.02%

cache_inst_prefetch.count = 0
cache_inst_prefetch.share = 0.00%

cache_data_prefetch.count = 729803
cache_data_prefetch.share = 84.31%

stlb_data_demand.count = 2228
stlb_data_demand.share = 0.26%

stlb_inst_demand.count = 1
stlb_inst_demand.share = 0.00%

stlb_l1i_pref.count = 0
stlb_l1i_pref.share = 0.00%

stlb_l1d_pref.count = 2872
stlb_l1d_pref.share = 0.33%

DRAM_RQ_READ_TRAFFIC_SUMMARY:
cache_demand.count = 130694
cache_demand.share = 15.10%

cache_prefetch.count = 729803
cache_prefetch.share = 84.31%

stlb_demand.count = 2229
stlb_demand.share = 0.26%

stlb_prefetch.count = 2872
stlb_prefetch.share = 0.33%

DRAM_RQ_READ_TRAFFIC_DEBUG:
total_classified_read.count = 865598
unclassified_read.count = 0
total_read_with_other.count = 865598

classified_plus_unclassified_check.count = 865598
dram_rq_read_total_observed.count = 865598
dram_rq_read_total_observed.per_1K_instructions = 8.65598

STLB_MISS_PTW_DRAM_TOUCH_BREAKDOWN:
stlb_miss_total.count = 18706

stlb_miss_touch_dram.count = 5102
stlb_miss_touch_dram.share = 27.27%

stlb_miss_no_dram_touch.count = 13604
stlb_miss_no_dram_touch.share = 72.73%

STLB_MISS_PTW_DRAM_TOUCH_DEBUG:
stlb_miss_touch_plus_no_touch.count = 18706
stlb_miss_total_check.count = 18706

======STLB miss causes ========
Core_0_STLB_miss_cause_breakdown
Core_0_STLB_cause_Demand_Data_miss 6104
Core_0_STLB_cause_Demand_Data_miss_rate 0.0432797
Core_0_STLB_cause_Demand_Instruction_miss 1
Core_0_STLB_cause_Demand_Instruction_miss_rate 7.09039e-06
Core_0_STLB_cause_L1D_Prefetch_miss 13127
Core_0_STLB_cause_L1D_Prefetch_miss_rate 0.0930755
Core_0_STLB_cause_L1D_Prefetch_Same_Page_miss 7
Core_0_STLB_cause_L1D_Prefetch_Same_Page_miss_rate 4.96327e-05
Core_0_STLB_cause_L1D_Prefetch_Cross_Page_miss 13120
Core_0_STLB_cause_L1D_Prefetch_Cross_Page_miss_rate 0.0930259
Core_0_STLB_cause_L1I_Prefetch_miss 0
Core_0_STLB_cause_L1I_Prefetch_miss_rate 0
Core_0_STLB_cause_Other_miss 0
Core_0_STLB_cause_Other_miss_rate 0
Core_0_STLB_Demand_miss 6105
Core_0_STLB_Demand_miss_rate 0.0432868
Core_0_STLB_L1D_Prefetch_miss 13127
Core_0_STLB_L1D_Prefetch_miss_rate 0.0930755
Core_0_STLB_Other_miss 0
Core_0_STLB_Other_miss_rate 0

========== vBerti-TLB Cross-page Flow Stats ==========

Core_0_vBerti_Requested 85972780
Core_0_vBerti_Cross_page_prefetch_in_Requested 13345955
Core_0_vBerti_Same_page_prefetch_in_Requested 72626825
Core_0_vBerti_Cross_page_prefetch_of_Requested 0.155235
Core_0_vBerti_Issued 7639500
Core_0_vBerti_PQ_Drop_Rate 0.91114
Core_0_vBerti_InPQ_Cross_page_prefetch_of_Requested 0.00805767
Core_0_vBerti_Cross_page_PQ_Drop_rate 0.948094
Core_0_vBerti_Cross_page_prefetch_of_Issued 0.0906787

========= DTLB_vBerti Prefetch Stats =========
Core_0_DTLB_demand_access 16277210
Core_0_DTLB_demand_hit 16052364
Core_0_DTLB_demand_miss 224846
Core_0_DTLB_demand_mshr_merge 105749
Core_0_DTLB_demand_fill 119328
Core_0_DTLB_demand_miss_rate 0.0138135
Core_0_DTLB_demand_mpki 2.24846
Core_0_DTLB_vberti_prefetch_access 5565950
Core_0_DTLB_vberti_prefetch_hit 5511765
Core_0_DTLB_vberti_prefetch_miss 54185
Core_0_DTLB_vberti_prefetch_mshr_merge 32247
Core_0_DTLB_vberti_prefetch_fill 21707
Core_0_DTLB_vberti_prefetch_miss_rate 0.00973509
Core_0_DTLB_vberti_prefetch_mpki 0.54185

=== DTLB_vBerti Same/Cross-page Prefetch Stats ===
Core_0_DTLB_vberti_same_page_prefetch 4953750
Core_0_DTLB_vberti_same_page_prefetch_hit 4953326
Core_0_DTLB_vberti_same_page_prefetch_miss 424
Core_0_DTLB_vberti_same_page_prefetch_mshr_merge 131
Core_0_DTLB_vberti_same_page_prefetch_fill 286
Core_0_DTLB_vberti_same_page_prefetch_miss_rate 8.55917e-05
Core_0_DTLB_vberti_same_page_prefetch_mpki 0.00424
Core_0_DTLB_vberti_cross_page_prefetch 612200
Core_0_DTLB_vberti_cross_page_prefetch_hit 558439
Core_0_DTLB_vberti_cross_page_prefetch_miss 53761
Core_0_DTLB_vberti_cross_page_prefetch_mshr_merge 32116
Core_0_DTLB_vberti_cross_page_prefetch_fill 21421
Core_0_DTLB_vberti_cross_page_prefetch_miss_rate 0.0878161
Core_0_DTLB_vberti_cross_page_prefetch_mpki 0.53761
Core_0_DTLB_same_page_prefetch_miss_rate 8.55917e-05
Core_0_DTLB_same_page_prefetch_mpki 0.00424
Core_0_DTLB_cross_page_prefetch_miss_rate 0.0878161
Core_0_DTLB_cross_page_prefetch_mpki 0.53761
Core_0_DTLB_cross_page_prefetch_issued 612200
Core_0_DTLB_cross_page_prefetch_lookups 612200
Core_0_DTLB_cross_page_prefetch_useful 17800
Core_0_DTLB_cross_page_prefetch_useless 3845
Core_0_DTLB_cross_page_prefetch_late 224
Core_0_DTLB_cross_page_prefetch_too_early 378
Core_0_DTLB_cross_page_prefetch_too_early_among_fill 0.0176462
Core_0_DTLB_cross_page_prefetch_too_early_among_useless 0.0983095
Core_0_DTLB_cross_page_prefetch_pollution_evict 5466
Core_0_DTLB_cross_page_prefetch_pollution_demand 5268
Core_0_DTLB_cross_page_prefetch_pollution_among_prefetch_fill 0.25517
Core_0_DTLB_cross_page_prefetch_accuracy 0.0290755
Core_0_DTLB_cross_page_prefetch_coverage 0.0733579

========= STLB_vBerti Prefetch Stats =========
Core_0_STLB_demand_access 119098
Core_0_STLB_demand_hit 112993
Core_0_STLB_demand_miss 6105
Core_0_STLB_demand_mshr_merge 0
Core_0_STLB_demand_fill 6105
Core_0_STLB_demand_miss_rate 0.0512603
Core_0_STLB_demand_mpki 0.06105
Core_0_STLB_vberti_prefetch_access 21938
Core_0_STLB_vberti_prefetch_hit 8811
Core_0_STLB_vberti_prefetch_miss 13127
Core_0_STLB_vberti_prefetch_mshr_merge 0
Core_0_STLB_vberti_prefetch_fill 7
Core_0_STLB_vberti_prefetch_miss_rate 0.598368
Core_0_STLB_vberti_prefetch_mpki 0.13127

=== STLB_vBerti Same/Cross-page Prefetch Stats ===
Core_0_STLB_vberti_same_page_prefetch 293
Core_0_STLB_vberti_same_page_prefetch_hit 286
Core_0_STLB_vberti_same_page_prefetch_miss 7
Core_0_STLB_vberti_same_page_prefetch_mshr_merge 0
Core_0_STLB_vberti_same_page_prefetch_fill 7
Core_0_STLB_vberti_same_page_prefetch_miss_rate 0.0238908
Core_0_STLB_vberti_same_page_prefetch_mpki 7e-05
Core_0_STLB_vberti_cross_page_prefetch 21645
Core_0_STLB_vberti_cross_page_prefetch_hit 8525
Core_0_STLB_vberti_cross_page_prefetch_miss 13120
Core_0_STLB_vberti_cross_page_prefetch_mshr_merge 0
Core_0_STLB_vberti_cross_page_prefetch_fill 0
Core_0_STLB_vberti_cross_page_prefetch_miss_rate 0.606145
Core_0_STLB_vberti_cross_page_prefetch_mpki 0.1312
Core_0_STLB_same_page_prefetch_miss_rate 0.0238908
Core_0_STLB_same_page_prefetch_mpki 7e-05
Core_0_STLB_cross_page_prefetch_miss_rate 0.606145
Core_0_STLB_cross_page_prefetch_mpki 0.1312
Core_0_STLB_cross_page_prefetch_issued 21645
Core_0_STLB_cross_page_prefetch_lookups 21645
Core_0_STLB_cross_page_prefetch_useful 526
Core_0_STLB_cross_page_prefetch_useless 11318
Core_0_STLB_cross_page_prefetch_late 526
Core_0_STLB_cross_page_prefetch_too_early 0
Core_0_STLB_cross_page_prefetch_too_early_among_fill 0
Core_0_STLB_cross_page_prefetch_too_early_among_useless 0
Core_0_STLB_cross_page_prefetch_pollution_evict 0
Core_0_STLB_cross_page_prefetch_pollution_demand 0
Core_0_STLB_cross_page_prefetch_pollution_among_prefetch_fill 0
Core_0_STLB_cross_page_prefetch_accuracy 0.0243012
Core_0_STLB_cross_page_prefetch_coverage 0.0793244

========= STLB Cross-page Prefetch Buffer Stats =========
Core_0_STLB_raw_demand_miss 6104
Core_0_CP_PB_insert 13120
Core_0_CP_PB_demand_hit 526
Core_0_STLB_PB_demand_miss 5578
Core_0_CP_PB_coverage 0.086173
Core_0_STLB_raw_demand_mpki 0.06104
Core_0_STLB_PB_demand_mpki 0.05578
Core_0_CP_PB_demand_hit_mpki 0.00526

Core_0_TLB_demand_miss_rate 0.000375064
Core_0_TLB_demand_mpki 0.06105
Core_0_TLB_same_page_prefetch_miss_rate 1.41307e-06
Core_0_TLB_same_page_prefetch_mpki 7e-05
Core_0_TLB_cross_page_prefetch_miss_rate 0.0214309
Core_0_TLB_cross_page_prefetch_mpki 0.1312
Core_0_TLB_cross_page_prefetch_issued 612200
Core_0_TLB_cross_page_prefetch_lookups 612200
Core_0_TLB_cross_page_prefetch_useful 1118
Core_0_TLB_cross_page_prefetch_useless 2326
Core_0_TLB_cross_page_prefetch_late 20
Core_0_TLB_cross_page_prefetch_too_early 263
Core_0_TLB_cross_page_prefetch_too_early_among_fill 0.0122777
Core_0_TLB_cross_page_prefetch_too_early_among_useless 0.11307
Core_0_TLB_cross_page_prefetch_accuracy 0.0018262
Core_0_TLB_cross_page_prefetch_coverage 0.154783
BERTI TO_L1: 114632619 TO_L2: 38472605 TO_L2_BC_MSHR: 1088470
BERTI AVG_LAT: 81.6963 NUM_TRACK_LATENCY: 2227327 NUM_CANT_TRACK_LATENCY: 41
BERTI CROSS_PAGE 27963120 NO_CROSS_PAGE: 125142104
BERTI FOUND_BERTI: 19244031 NO_FOUND_BERTI: 8749094
BERTI AVERAGE_ISSUED: 1.68272
