[VMEM] WARNING: physical memory size is smaller than virtual memory size.

*** ChampSim Multicore Out-of-Order Simulator ***
Warmup Instructions: 50000000
Simulation Instructions: 100000000
Number of CPUs: 1
Page size: 4096
Core 0: /data0/tzh/champsim_traces/SPEC06/483.xalancbmk-127B.champsimtrace.xz
VBerti Prefetcher
BERTI HASH ENTANGLING
BERTI IP MASK ffff
Off-chip DRAM Size: 16 GiB Channels: 1 Width: 64-bit Data Rate: 3205 MT/s
Warmup halting CPU 0 at instruction 50000000 cycle 13269166 for remainder of phase
Warmup finished CPU 0 instructions: 50000000 cycles: 13269166 cumulative IPC: 3.768 (Simulation time: 00 hr 02 min 26 sec)
Warmup complete CPU 0 instructions: 50000000 cycles: 13269166 cumulative IPC: 3.768 (Simulation time: 00 hr 02 min 26 sec)
Simulation finished CPU 0 instructions: 100000000 cycles: 337307976 cumulative IPC: 0.2965 (Simulation time: 00 hr 30 min 57 sec)
Simulation complete CPU 0 instructions: 100000000 cycles: 337307976 cumulative IPC: 0.2965 (Simulation time: 00 hr 30 min 57 sec)

ChampSim completed all CPUs

=== Simulation ===
CPU 0 runs /data0/tzh/champsim_traces/SPEC06/483.xalancbmk-127B.champsimtrace.xz

Region of Interest Statistics

CPU 0 cumulative IPC: 0.2965 instructions: 100000000 cycles: 337307976
CPU 0 Branch Prediction Accuracy: 96.58% MPKI: 9.769 Average ROB Occupancy at Mispredict: 68.93
Branch type MPKI
BRANCH_DIRECT_JUMP: 3.961
BRANCH_INDIRECT: 0.00632
BRANCH_CONDITIONAL: 5.702
BRANCH_DIRECT_CALL: 0.00015
BRANCH_INDIRECT_CALL: 0.02486
BRANCH_RETURN: 0.07436

cpu0->cpu0_STLB TOTAL        ACCESS:     430960 HIT:      83040 MISS:     347920 MSHR_MERGE:          0
cpu0->cpu0_STLB LOAD         ACCESS:     430960 HIT:      83040 MISS:     347920 MSHR_MERGE:          0
cpu0->cpu0_STLB RFO          ACCESS:          0 HIT:          0 MISS:          0 MSHR_MERGE:          0
cpu0->cpu0_STLB PREFETCH     ACCESS:          0 HIT:          0 MISS:          0 MSHR_MERGE:          0
cpu0->cpu0_STLB WRITE        ACCESS:          0 HIT:          0 MISS:          0 MSHR_MERGE:          0
cpu0->cpu0_STLB TRANSLATION  ACCESS:          0 HIT:          0 MISS:          0 MSHR_MERGE:          0
cpu0->cpu0_STLB PREFETCH REQUESTED:          0 ISSUED:          0 USEFUL:          0 USELESS:          0 LATE:          0 TOO_EARLY:          0
cpu0->cpu0_STLB AVERAGE MISS LATENCY: 76.73 cycles
cpu0->cpu0_L2C TOTAL        ACCESS:    3385274 HIT:     383594 MISS:    3001680 MSHR_MERGE:      38526
cpu0->cpu0_L2C LOAD         ACCESS:    2853926 HIT:     172796 MISS:    2681130 MSHR_MERGE:       1687
cpu0->cpu0_L2C RFO          ACCESS:      14417 HIT:       6716 MISS:       7701 MSHR_MERGE:        529
cpu0->cpu0_L2C PREFETCH     ACCESS:     334111 HIT:     149849 MISS:     184262 MSHR_MERGE:      36310
cpu0->cpu0_L2C WRITE        ACCESS:      37884 HIT:      37482 MISS:        402 MSHR_MERGE:          0
cpu0->cpu0_L2C TRANSLATION  ACCESS:     144936 HIT:      16751 MISS:     128185 MSHR_MERGE:          0
cpu0->cpu0_L2C PREFETCH REQUESTED:     214114 ISSUED:     213637 USEFUL:      72143 USELESS:      30965 LATE:       1219 TOO_EARLY:       2067
cpu0->cpu0_L2C AVERAGE MISS LATENCY: 169.3 cycles
cpu0->cpu0_L1I TOTAL        ACCESS:    1116085 HIT:     918117 MISS:     197968 MSHR_MERGE:      66288
cpu0->cpu0_L1I LOAD         ACCESS:    1116085 HIT:     918117 MISS:     197968 MSHR_MERGE:      66288
cpu0->cpu0_L1I RFO          ACCESS:          0 HIT:          0 MISS:          0 MSHR_MERGE:          0
cpu0->cpu0_L1I PREFETCH     ACCESS:          0 HIT:          0 MISS:          0 MSHR_MERGE:          0
cpu0->cpu0_L1I WRITE        ACCESS:          0 HIT:          0 MISS:          0 MSHR_MERGE:          0
cpu0->cpu0_L1I TRANSLATION  ACCESS:          0 HIT:          0 MISS:          0 MSHR_MERGE:          0
cpu0->cpu0_L1I PREFETCH REQUESTED:          0 ISSUED:          0 USEFUL:          0 USELESS:          0 LATE:          0 TOO_EARLY:          0
cpu0->cpu0_L1I AVERAGE MISS LATENCY: 46.55 cycles
cpu0->cpu0_L1D TOTAL        ACCESS:   29475423 HIT:   22854623 MISS:    6620800 MSHR_MERGE:    3609028
cpu0->cpu0_L1D LOAD         ACCESS:   24919533 HIT:   18639604 MISS:    6279929 MSHR_MERGE:    3557681
cpu0->cpu0_L1D RFO          ACCESS:          0 HIT:          0 MISS:          0 MSHR_MERGE:          0
cpu0->cpu0_L1D PREFETCH     ACCESS:     465624 HIT:     333922 MISS:     131702 MSHR_MERGE:       1534
cpu0->cpu0_L1D WRITE        ACCESS:    3390177 HIT:    3331835 MISS:      58342 MSHR_MERGE:      43922
cpu0->cpu0_L1D TRANSLATION  ACCESS:     700089 HIT:     549262 MISS:     150827 MSHR_MERGE:       5891
cpu0->cpu0_L1D PREFETCH REQUESTED:    1471158 ISSUED:     465623 USEFUL:      47126 USELESS:       1187 LATE:       1642 TOO_EARLY:        106
cpu0->cpu0_L1D AVERAGE MISS LATENCY: 172.7 cycles
cpu0->cpu0_ITLB TOTAL        ACCESS:     953449 HIT:     888427 MISS:      65022 MSHR_MERGE:      38847
cpu0->cpu0_ITLB LOAD         ACCESS:     953449 HIT:     888427 MISS:      65022 MSHR_MERGE:      38847
cpu0->cpu0_ITLB RFO          ACCESS:          0 HIT:          0 MISS:          0 MSHR_MERGE:          0
cpu0->cpu0_ITLB PREFETCH     ACCESS:          0 HIT:          0 MISS:          0 MSHR_MERGE:          0
cpu0->cpu0_ITLB WRITE        ACCESS:          0 HIT:          0 MISS:          0 MSHR_MERGE:          0
cpu0->cpu0_ITLB TRANSLATION  ACCESS:          0 HIT:          0 MISS:          0 MSHR_MERGE:          0
cpu0->cpu0_ITLB PREFETCH REQUESTED:          0 ISSUED:          0 USEFUL:          0 USELESS:          0 LATE:          0 TOO_EARLY:          0
cpu0->cpu0_ITLB AVERAGE MISS LATENCY: 15.24 cycles
cpu0->cpu0_DTLB TOTAL        ACCESS:   28004076 HIT:   27110178 MISS:     893898 MSHR_MERGE:     489113
cpu0->cpu0_DTLB LOAD         ACCESS:   28004076 HIT:   27110178 MISS:     893898 MSHR_MERGE:     489113
cpu0->cpu0_DTLB RFO          ACCESS:          0 HIT:          0 MISS:          0 MSHR_MERGE:          0
cpu0->cpu0_DTLB PREFETCH     ACCESS:          0 HIT:          0 MISS:          0 MSHR_MERGE:          0
cpu0->cpu0_DTLB WRITE        ACCESS:          0 HIT:          0 MISS:          0 MSHR_MERGE:          0
cpu0->cpu0_DTLB TRANSLATION  ACCESS:          0 HIT:          0 MISS:          0 MSHR_MERGE:          0
cpu0->cpu0_DTLB PREFETCH REQUESTED:          0 ISSUED:          0 USEFUL:          0 USELESS:          0 LATE:          0 TOO_EARLY:          0
cpu0->cpu0_DTLB AVERAGE MISS LATENCY: 70.87 cycles
cpu0->LLC TOTAL        ACCESS:    2980968 HIT:     575167 MISS:    2405801 MSHR_MERGE:       1790
cpu0->LLC LOAD         ACCESS:    2679443 HIT:     484510 MISS:    2194933 MSHR_MERGE:         39
cpu0->LLC RFO          ACCESS:       7172 HIT:       2880 MISS:       4292 MSHR_MERGE:         45
cpu0->LLC PREFETCH     ACCESS:     147952 HIT:      24261 MISS:     123691 MSHR_MERGE:       1706
cpu0->LLC WRITE        ACCESS:      18216 HIT:      11962 MISS:       6254 MSHR_MERGE:          0
cpu0->LLC TRANSLATION  ACCESS:     128185 HIT:      51554 MISS:      76631 MSHR_MERGE:          0
cpu0->LLC PREFETCH REQUESTED:          0 ISSUED:          0 USEFUL:          0 USELESS:          0 LATE:          0 TOO_EARLY:          0
cpu0->LLC AVERAGE MISS LATENCY: 189.4 cycles

DRAM Statistics

Channel 0 RQ ROW_BUFFER_HIT:      98037
  ROW_BUFFER_MISS:    2299717
  AVG DBUS CONGESTED CYCLE: 4.672
Channel 0 WQ ROW_BUFFER_HIT:       4076
  ROW_BUFFER_MISS:       4997
  FULL:          0
Channel 0 REFRESHES ISSUED:      28109

[ROI Statistics]
[System Configuration]
num_cpus 1
cpu_freq 4000
fetch_width 6
decode_width 6
dispatch_width 6
execute_width 6
lq_width 2
sq_width 2
retire_width 6
scheduler_size 128
branch_mispredict_penalty 15
rob_size 352
lq_size 128
sq_size 72
ifetch_buffer_size 64
decode_buffer_size 32
dispatch_buffer_size 32
register_file_size 288
decode_latency 1
dispatch_latency 1
schedule_latency 1
execute_latency 1
page_size 4096
block_size 64
core_0_itlb_set 16
core_0_itlb_way 4
core_0_itlb_rq_size 16
core_0_itlb_wq_size 16
core_0_itlb_pq_size 0
core_0_itlb_mshr_size 8
core_0_itlb_hit_latency 1
core_0_itlb_fill_latency 1
core_0_itlb_max_tag_check 2
core_0_itlb_max_fill 2
core_0_dtlb_set 16
core_0_dtlb_way 4
core_0_dtlb_rq_size 16
core_0_dtlb_wq_size 16
core_0_dtlb_pq_size 0
core_0_dtlb_mshr_size 8
core_0_dtlb_hit_latency 1
core_0_dtlb_fill_latency 1
core_0_dtlb_max_tag_check 2
core_0_dtlb_max_fill 2
core_0_stlb_set 128
core_0_stlb_way 12
core_0_stlb_rq_size 32
core_0_stlb_wq_size 32
core_0_stlb_pq_size 0
core_0_stlb_mshr_size 16
core_0_stlb_hit_latency 4
core_0_stlb_fill_latency 4
core_0_stlb_max_tag_check 1
core_0_stlb_max_fill 1
core_0_l1i_set 64
core_0_l1i_way 8
core_0_l1i_rq_size 64
core_0_l1i_wq_size 64
core_0_l1i_pq_size 32
core_0_l1i_mshr_size 8
core_0_l1i_hit_latency 2
core_0_l1i_fill_latency 2
core_0_l1i_max_tag_check 2
core_0_l1i_max_fill 2
core_0_l1d_set 64
core_0_l1d_way 12
core_0_l1d_rq_size 64
core_0_l1d_wq_size 64
core_0_l1d_pq_size 8
core_0_l1d_mshr_size 16
core_0_l1d_hit_latency 2
core_0_l1d_fill_latency 3
core_0_l1d_max_tag_check 2
core_0_l1d_max_fill 2
core_0_l2c_set 1024
core_0_l2c_way 8
core_0_l2c_rq_size 32
core_0_l2c_wq_size 32
core_0_l2c_pq_size 16
core_0_l2c_mshr_size 32
core_0_l2c_hit_latency 5
core_0_l2c_fill_latency 5
core_0_l2c_max_tag_check 1
core_0_l2c_max_fill 1
llc_set 2048
llc_way 16
llc_rq_size 32
llc_wq_size 32
llc_pq_size 32
llc_mshr_size 64
llc_hit_latency 10
llc_fill_latency 10
llc_max_tag_check 1
llc_max_fill 1
dram_channels 1
dram_ranks 1
dram_bankgroups 8
dram_banks 4
dram_rows 65536
dram_columns 1024
dram_channel_width 8
dram_rq_size 64
dram_wq_size 64
dram_size 17179869184
core_0_itlb_prefetcher no
core_0_dtlb_prefetcher no
core_0_stlb_prefetcher no
core_0_l1i_prefetcher next_line
core_0_l1d_prefetcher vberti
core_0_l2c_prefetcher ip_stride
llc_prefetcher no
llc_replacement drrip

Core_0_instructions 100000000
Core_0_cycles 337307976
Core_0_IPC 0.296465
Core_0_branch_prediction_accuracy 96.5768
Core_0_branch_MPKI 9.76931
Core_0_average_ROB_occupancy_at_mispredict 68.9283

Core_0_ITLB_total_access 953449
Core_0_ITLB_total_hit 888427
Core_0_ITLB_total_miss 65022
Core_0_ITLB_total_MPKI 0.65022
Core_0_ITLB_total_miss_rate 0.0681966
Core_0_ITLB_demand_access 953449
Core_0_ITLB_demand_hit 888427
Core_0_ITLB_demand_miss 65022
Core_0_ITLB_demand_MPKI 0.65022
Core_0_ITLB_demand_miss_rate 0.0681966
Core_0_ITLB_load_access 953449
Core_0_ITLB_load_hit 888427
Core_0_ITLB_load_miss 65022
Core_0_ITLB_load_MPKI 0.65022
Core_0_ITLB_load_miss_rate 0.0681966
Core_0_ITLB_rfo_access 0
Core_0_ITLB_rfo_hit 0
Core_0_ITLB_rfo_miss 0
Core_0_ITLB_rfo_MPKI 0
Core_0_ITLB_rfo_miss_rate 0
Core_0_ITLB_prefetch_access 0
Core_0_ITLB_prefetch_hit 0
Core_0_ITLB_prefetch_miss 0
Core_0_ITLB_prefetch_MPKI 0
Core_0_ITLB_prefetch_miss_rate 0
Core_0_ITLB_writeback_access 0
Core_0_ITLB_writeback_hit 0
Core_0_ITLB_writeback_miss 0
Core_0_ITLB_writeback_MPKI 0
Core_0_ITLB_writeback_miss_rate 0
Core_0_ITLB_prefetch_requested 0
Core_0_ITLB_prefetch_issued 0
Core_0_ITLB_prefetch_useful 0
Core_0_ITLB_prefetch_useless 0
Core_0_ITLB_prefetch_late 0
Core_0_ITLB_prefetch_fill 0
Core_0_ITLB_prefetch_too_early 0
Core_0_ITLB_prefetch_too_early_among_fill 0
Core_0_ITLB_prefetch_too_early_among_useless 0
Core_0_ITLB_prefetch_pollution_evict 0
Core_0_ITLB_prefetch_pollution_demand 0
Core_0_ITLB_prefetch_pollution_among_prefetch_fill 0
Core_0_ITLB_prefetch_accuracy 0
Core_0_ITLB_prefetch_coverage 0

Core_0_DTLB_total_access 28004076
Core_0_DTLB_total_hit 27110178
Core_0_DTLB_total_miss 893898
Core_0_DTLB_total_MPKI 8.93898
Core_0_DTLB_total_miss_rate 0.0319203
Core_0_DTLB_demand_access 28004076
Core_0_DTLB_demand_hit 27110178
Core_0_DTLB_demand_miss 893898
Core_0_DTLB_demand_MPKI 8.93898
Core_0_DTLB_demand_miss_rate 0.0319203
Core_0_DTLB_load_access 28004076
Core_0_DTLB_load_hit 27110178
Core_0_DTLB_load_miss 893898
Core_0_DTLB_load_MPKI 8.93898
Core_0_DTLB_load_miss_rate 0.0319203
Core_0_DTLB_rfo_access 0
Core_0_DTLB_rfo_hit 0
Core_0_DTLB_rfo_miss 0
Core_0_DTLB_rfo_MPKI 0
Core_0_DTLB_rfo_miss_rate 0
Core_0_DTLB_prefetch_access 0
Core_0_DTLB_prefetch_hit 0
Core_0_DTLB_prefetch_miss 0
Core_0_DTLB_prefetch_MPKI 0
Core_0_DTLB_prefetch_miss_rate 0
Core_0_DTLB_writeback_access 0
Core_0_DTLB_writeback_hit 0
Core_0_DTLB_writeback_miss 0
Core_0_DTLB_writeback_MPKI 0
Core_0_DTLB_writeback_miss_rate 0
Core_0_DTLB_prefetch_requested 0
Core_0_DTLB_prefetch_issued 0
Core_0_DTLB_prefetch_useful 0
Core_0_DTLB_prefetch_useless 0
Core_0_DTLB_prefetch_late 0
Core_0_DTLB_prefetch_fill 0
Core_0_DTLB_prefetch_too_early 0
Core_0_DTLB_prefetch_too_early_among_fill 0
Core_0_DTLB_prefetch_too_early_among_useless 0
Core_0_DTLB_prefetch_pollution_evict 0
Core_0_DTLB_prefetch_pollution_demand 0
Core_0_DTLB_prefetch_pollution_among_prefetch_fill 0
Core_0_DTLB_prefetch_accuracy 0
Core_0_DTLB_prefetch_coverage 0

Core_0_STLB_total_access 430960
Core_0_STLB_total_hit 83040
Core_0_STLB_total_miss 347920
Core_0_STLB_total_MPKI 3.4792
Core_0_STLB_total_miss_rate 0.807314
Core_0_STLB_demand_access 430960
Core_0_STLB_demand_hit 83040
Core_0_STLB_demand_miss 347920
Core_0_STLB_demand_MPKI 3.4792
Core_0_STLB_demand_miss_rate 0.807314
Core_0_STLB_load_access 430960
Core_0_STLB_load_hit 83040
Core_0_STLB_load_miss 347920
Core_0_STLB_load_MPKI 3.4792
Core_0_STLB_load_miss_rate 0.807314
Core_0_STLB_rfo_access 0
Core_0_STLB_rfo_hit 0
Core_0_STLB_rfo_miss 0
Core_0_STLB_rfo_MPKI 0
Core_0_STLB_rfo_miss_rate 0
Core_0_STLB_prefetch_access 0
Core_0_STLB_prefetch_hit 0
Core_0_STLB_prefetch_miss 0
Core_0_STLB_prefetch_MPKI 0
Core_0_STLB_prefetch_miss_rate 0
Core_0_STLB_writeback_access 0
Core_0_STLB_writeback_hit 0
Core_0_STLB_writeback_miss 0
Core_0_STLB_writeback_MPKI 0
Core_0_STLB_writeback_miss_rate 0
Core_0_STLB_prefetch_requested 0
Core_0_STLB_prefetch_issued 0
Core_0_STLB_prefetch_useful 0
Core_0_STLB_prefetch_useless 0
Core_0_STLB_prefetch_late 0
Core_0_STLB_prefetch_fill 0
Core_0_STLB_prefetch_too_early 0
Core_0_STLB_prefetch_too_early_among_fill 0
Core_0_STLB_prefetch_too_early_among_useless 0
Core_0_STLB_prefetch_pollution_evict 0
Core_0_STLB_prefetch_pollution_demand 0
Core_0_STLB_prefetch_pollution_among_prefetch_fill 0
Core_0_STLB_prefetch_accuracy 0
Core_0_STLB_prefetch_coverage 0

Core_0_L1I_total_access 1116085
Core_0_L1I_total_hit 918117
Core_0_L1I_total_miss 197968
Core_0_L1I_total_MPKI 1.97968
Core_0_L1I_total_miss_rate 0.177377
Core_0_L1I_demand_access 1116085
Core_0_L1I_demand_hit 918117
Core_0_L1I_demand_miss 197968
Core_0_L1I_demand_MPKI 1.97968
Core_0_L1I_demand_miss_rate 0.177377
Core_0_L1I_load_access 1116085
Core_0_L1I_load_hit 918117
Core_0_L1I_load_miss 197968
Core_0_L1I_load_MPKI 1.97968
Core_0_L1I_load_miss_rate 0.177377
Core_0_L1I_rfo_access 0
Core_0_L1I_rfo_hit 0
Core_0_L1I_rfo_miss 0
Core_0_L1I_rfo_MPKI 0
Core_0_L1I_rfo_miss_rate 0
Core_0_L1I_prefetch_access 0
Core_0_L1I_prefetch_hit 0
Core_0_L1I_prefetch_miss 0
Core_0_L1I_prefetch_MPKI 0
Core_0_L1I_prefetch_miss_rate 0
Core_0_L1I_writeback_access 0
Core_0_L1I_writeback_hit 0
Core_0_L1I_writeback_miss 0
Core_0_L1I_writeback_MPKI 0
Core_0_L1I_writeback_miss_rate 0
Core_0_L1I_prefetch_requested 0
Core_0_L1I_prefetch_issued 0
Core_0_L1I_prefetch_useful 0
Core_0_L1I_prefetch_useless 0
Core_0_L1I_prefetch_late 0
Core_0_L1I_prefetch_fill 0
Core_0_L1I_prefetch_too_early 0
Core_0_L1I_prefetch_too_early_among_fill 0
Core_0_L1I_prefetch_too_early_among_useless 0
Core_0_L1I_prefetch_pollution_evict 0
Core_0_L1I_prefetch_pollution_demand 0
Core_0_L1I_prefetch_pollution_among_prefetch_fill 0
Core_0_L1I_prefetch_accuracy 0
Core_0_L1I_prefetch_coverage 0

Core_0_L1D_total_access 28775334
Core_0_L1D_total_hit 22305361
Core_0_L1D_total_miss 6469973
Core_0_L1D_total_MPKI 64.6997
Core_0_L1D_total_miss_rate 0.224844
Core_0_L1D_demand_access 24919533
Core_0_L1D_demand_hit 18639604
Core_0_L1D_demand_miss 6279929
Core_0_L1D_demand_MPKI 62.7993
Core_0_L1D_demand_miss_rate 0.252008
Core_0_L1D_load_access 24919533
Core_0_L1D_load_hit 18639604
Core_0_L1D_load_miss 6279929
Core_0_L1D_load_MPKI 62.7993
Core_0_L1D_load_miss_rate 0.252008
Core_0_L1D_rfo_access 0
Core_0_L1D_rfo_hit 0
Core_0_L1D_rfo_miss 0
Core_0_L1D_rfo_MPKI 0
Core_0_L1D_rfo_miss_rate 0
Core_0_L1D_prefetch_access 465624
Core_0_L1D_prefetch_hit 333922
Core_0_L1D_prefetch_miss 131702
Core_0_L1D_prefetch_MPKI 1.31702
Core_0_L1D_prefetch_miss_rate 0.282851
Core_0_L1D_writeback_access 3390177
Core_0_L1D_writeback_hit 3331835
Core_0_L1D_writeback_miss 58342
Core_0_L1D_writeback_MPKI 0.58342
Core_0_L1D_writeback_miss_rate 0.0172091
Core_0_L1D_prefetch_requested 1471158
Core_0_L1D_prefetch_issued 465623
Core_0_L1D_prefetch_useful 47126
Core_0_L1D_prefetch_useless 1187
Core_0_L1D_prefetch_late 1642
Core_0_L1D_prefetch_fill 46671
Core_0_L1D_prefetch_too_early 106
Core_0_L1D_prefetch_too_early_among_fill 0.00227122
Core_0_L1D_prefetch_too_early_among_useless 0.0893008
Core_0_L1D_prefetch_pollution_evict 3989
Core_0_L1D_prefetch_pollution_demand 3989
Core_0_L1D_prefetch_pollution_among_prefetch_fill 0.0854706
Core_0_L1D_prefetch_accuracy 0.101211
Core_0_L1D_prefetch_coverage 0.00744833

Core_0_L2C_total_access 3240338
Core_0_L2C_total_hit 366843
Core_0_L2C_total_miss 2873495
Core_0_L2C_total_MPKI 28.735
Core_0_L2C_total_miss_rate 0.886789
Core_0_L2C_demand_access 2868343
Core_0_L2C_demand_hit 179512
Core_0_L2C_demand_miss 2688831
Core_0_L2C_demand_MPKI 26.8883
Core_0_L2C_demand_miss_rate 0.937416
Core_0_L2C_load_access 2853926
Core_0_L2C_load_hit 172796
Core_0_L2C_load_miss 2681130
Core_0_L2C_load_MPKI 26.8113
Core_0_L2C_load_miss_rate 0.939453
Core_0_L2C_rfo_access 14417
Core_0_L2C_rfo_hit 6716
Core_0_L2C_rfo_miss 7701
Core_0_L2C_rfo_MPKI 0.07701
Core_0_L2C_rfo_miss_rate 0.534161
Core_0_L2C_prefetch_access 334111
Core_0_L2C_prefetch_hit 149849
Core_0_L2C_prefetch_miss 184262
Core_0_L2C_prefetch_MPKI 1.84262
Core_0_L2C_prefetch_miss_rate 0.551499
Core_0_L2C_writeback_access 37884
Core_0_L2C_writeback_hit 37482
Core_0_L2C_writeback_miss 402
Core_0_L2C_writeback_MPKI 0.00402
Core_0_L2C_writeback_miss_rate 0.0106113
Core_0_L2C_prefetch_requested 214114
Core_0_L2C_prefetch_issued 213637
Core_0_L2C_prefetch_useful 72143
Core_0_L2C_prefetch_useless 30965
Core_0_L2C_prefetch_late 1219
Core_0_L2C_prefetch_fill 142982
Core_0_L2C_prefetch_too_early 2067
Core_0_L2C_prefetch_too_early_among_fill 0.0144564
Core_0_L2C_prefetch_too_early_among_useless 0.0667528
Core_0_L2C_prefetch_pollution_evict 77600
Core_0_L2C_prefetch_pollution_demand 77465
Core_0_L2C_prefetch_pollution_among_prefetch_fill 0.542726
Core_0_L2C_prefetch_accuracy 0.33769
Core_0_L2C_prefetch_coverage 0.0261295

Core_0_LLC_total_access 2852783
Core_0_LLC_total_hit 523613
Core_0_LLC_total_miss 2329170
Core_0_LLC_total_MPKI 23.2917
Core_0_LLC_total_miss_rate 0.816455
Core_0_LLC_demand_access 2686615
Core_0_LLC_demand_hit 487390
Core_0_LLC_demand_miss 2199225
Core_0_LLC_demand_MPKI 21.9922
Core_0_LLC_demand_miss_rate 0.818586
Core_0_LLC_load_access 2679443
Core_0_LLC_load_hit 484510
Core_0_LLC_load_miss 2194933
Core_0_LLC_load_MPKI 21.9493
Core_0_LLC_load_miss_rate 0.819175
Core_0_LLC_rfo_access 7172
Core_0_LLC_rfo_hit 2880
Core_0_LLC_rfo_miss 4292
Core_0_LLC_rfo_MPKI 0.04292
Core_0_LLC_rfo_miss_rate 0.598438
Core_0_LLC_prefetch_access 147952
Core_0_LLC_prefetch_hit 24261
Core_0_LLC_prefetch_miss 123691
Core_0_LLC_prefetch_MPKI 1.23691
Core_0_LLC_prefetch_miss_rate 0.836021
Core_0_LLC_writeback_access 18216
Core_0_LLC_writeback_hit 11962
Core_0_LLC_writeback_miss 6254
Core_0_LLC_writeback_MPKI 0.06254
Core_0_LLC_writeback_miss_rate 0.343325
Core_0_LLC_prefetch_requested 0
Core_0_LLC_prefetch_issued 0
Core_0_LLC_prefetch_useful 0
Core_0_LLC_prefetch_useless 0
Core_0_LLC_prefetch_late 0
Core_0_LLC_prefetch_fill 121901
Core_0_LLC_prefetch_too_early 0
Core_0_LLC_prefetch_too_early_among_fill 0
Core_0_LLC_prefetch_too_early_among_useless 0
Core_0_LLC_prefetch_pollution_evict 95929
Core_0_LLC_prefetch_pollution_demand 95929
Core_0_LLC_prefetch_pollution_among_prefetch_fill 0.786942
Core_0_LLC_prefetch_accuracy 0
Core_0_LLC_prefetch_coverage 0

[DRAM Statistics]
Channel_0_RQ_row_buffer_hit 98037
Channel_0_RQ_row_buffer_miss 2299717
Channel_0_WQ_row_buffer_hit 4076
Channel_0_WQ_row_buffer_miss 4997
Channel_0_WQ_full 0
Channel_0_dbus_congested 2008410
DRAM_total_RQ_row_buffer_hit 98037
DRAM_total_RQ_row_buffer_miss 2299717
DRAM_total_WQ_row_buffer_hit 4076
DRAM_total_WQ_row_buffer_miss 4997
DRAM_total_WQ_full 0
DRAM_total_dbus_congested 2008410
DRAM_avg_congested_cycle 4.6724

====== DRAM_RQ_TRAFFIC ========
DRAM_RQ_READ_TRAFFIC_BREAKDOWN:
data_demand_read.count = 2177154
data_demand_read.share = 90.80%

inst_demand_read.count = 21987
inst_demand_read.share = 0.92%

cache_inst_prefetch.count = 0
cache_inst_prefetch.share = 0.00%

cache_data_prefetch.count = 121985
cache_data_prefetch.share = 5.09%

stlb_data_demand.count = 75615
stlb_data_demand.share = 3.15%

stlb_inst_demand.count = 711
stlb_inst_demand.share = 0.03%

stlb_l1i_pref.count = 0
stlb_l1i_pref.share = 0.00%

stlb_l1d_pref.count = 305
stlb_l1d_pref.share = 0.01%

DRAM_RQ_READ_TRAFFIC_SUMMARY:
cache_demand.count = 2199141
cache_demand.share = 91.72%

cache_prefetch.count = 121985
cache_prefetch.share = 5.09%

stlb_demand.count = 76326
stlb_demand.share = 3.18%

stlb_prefetch.count = 305
stlb_prefetch.share = 0.01%

DRAM_RQ_READ_TRAFFIC_DEBUG:
total_classified_read.count = 2397757
unclassified_read.count = 0
total_read_with_other.count = 2397757

classified_plus_unclassified_check.count = 2397757
dram_rq_read_total_observed.count = 2397757
dram_rq_read_total_observed.per_1K_instructions = 23.9776

STLB_MISS_PTW_DRAM_TOUCH_BREAKDOWN:
stlb_miss_total.count = 346418

stlb_miss_touch_dram.count = 76651
stlb_miss_touch_dram.share = 22.13%

stlb_miss_no_dram_touch.count = 269767
stlb_miss_no_dram_touch.share = 77.87%

STLB_MISS_PTW_DRAM_TOUCH_DEBUG:
stlb_miss_touch_plus_no_touch.count = 346418
stlb_miss_total_check.count = 346418

======STLB miss causes ========
Core_0_STLB_miss_cause_breakdown
Core_0_STLB_cause_Demand_Data_miss 338868
Core_0_STLB_cause_Demand_Data_miss_rate 0.78631
Core_0_STLB_cause_Demand_Instruction_miss 5297
Core_0_STLB_cause_Demand_Instruction_miss_rate 0.0122912
Core_0_STLB_cause_L1D_Prefetch_miss 3755
Core_0_STLB_cause_L1D_Prefetch_miss_rate 0.00871311
Core_0_STLB_cause_L1D_Prefetch_Same_Page_miss 0
Core_0_STLB_cause_L1D_Prefetch_Same_Page_miss_rate 0
Core_0_STLB_cause_L1D_Prefetch_Cross_Page_miss 3755
Core_0_STLB_cause_L1D_Prefetch_Cross_Page_miss_rate 0.00871311
Core_0_STLB_cause_L1I_Prefetch_miss 0
Core_0_STLB_cause_L1I_Prefetch_miss_rate 0
Core_0_STLB_cause_Other_miss 0
Core_0_STLB_cause_Other_miss_rate 0
Core_0_STLB_Demand_miss 344165
Core_0_STLB_Demand_miss_rate 0.798601
Core_0_STLB_L1D_Prefetch_miss 3755
Core_0_STLB_L1D_Prefetch_miss_rate 0.00871311
Core_0_STLB_Other_miss 0
Core_0_STLB_Other_miss_rate 0

========== vBerti-TLB Cross-page Flow Stats ==========

Core_0_vBerti_Requested 1471158
Core_0_vBerti_Cross_page_prefetch_in_Requested 171603
Core_0_vBerti_Same_page_prefetch_in_Requested 1299555
Core_0_vBerti_Cross_page_prefetch_of_Requested 0.116645
Core_0_vBerti_Issued 465623
Core_0_vBerti_PQ_Drop_Rate 0.683499
Core_0_vBerti_InPQ_Cross_page_prefetch_of_Requested 0.0211616
Core_0_vBerti_Cross_page_PQ_Drop_rate 0.818581
Core_0_vBerti_Cross_page_prefetch_of_Issued 0.066861

========= DTLB_vBerti Prefetch Stats =========
Core_0_DTLB_demand_access 27581720
Core_0_DTLB_demand_hit 26695990
Core_0_DTLB_demand_miss 885730
Core_0_DTLB_demand_mshr_merge 484943
Core_0_DTLB_demand_fill 400885
Core_0_DTLB_demand_miss_rate 0.0321129
Core_0_DTLB_demand_mpki 8.8573
Core_0_DTLB_vberti_prefetch_access 422356
Core_0_DTLB_vberti_prefetch_hit 414188
Core_0_DTLB_vberti_prefetch_miss 8168
Core_0_DTLB_vberti_prefetch_mshr_merge 4170
Core_0_DTLB_vberti_prefetch_fill 3900
Core_0_DTLB_vberti_prefetch_miss_rate 0.0193391
Core_0_DTLB_vberti_prefetch_mpki 0.08168

=== DTLB_vBerti Same/Cross-page Prefetch Stats ===
Core_0_DTLB_vberti_same_page_prefetch 396366
Core_0_DTLB_vberti_same_page_prefetch_hit 396366
Core_0_DTLB_vberti_same_page_prefetch_miss 0
Core_0_DTLB_vberti_same_page_prefetch_mshr_merge 0
Core_0_DTLB_vberti_same_page_prefetch_fill 0
Core_0_DTLB_vberti_same_page_prefetch_miss_rate 0
Core_0_DTLB_vberti_same_page_prefetch_mpki 0
Core_0_DTLB_vberti_cross_page_prefetch 25990
Core_0_DTLB_vberti_cross_page_prefetch_hit 17822
Core_0_DTLB_vberti_cross_page_prefetch_miss 8168
Core_0_DTLB_vberti_cross_page_prefetch_mshr_merge 4170
Core_0_DTLB_vberti_cross_page_prefetch_fill 3900
Core_0_DTLB_vberti_cross_page_prefetch_miss_rate 0.314275
Core_0_DTLB_vberti_cross_page_prefetch_mpki 0.08168
Core_0_DTLB_same_page_prefetch_miss_rate 0
Core_0_DTLB_same_page_prefetch_mpki 0
Core_0_DTLB_cross_page_prefetch_miss_rate 0.314275
Core_0_DTLB_cross_page_prefetch_mpki 0.08168
Core_0_DTLB_cross_page_prefetch_issued 25990
Core_0_DTLB_cross_page_prefetch_lookups 25990
Core_0_DTLB_cross_page_prefetch_useful 2891
Core_0_DTLB_cross_page_prefetch_useless 1107
Core_0_DTLB_cross_page_prefetch_late 98
Core_0_DTLB_cross_page_prefetch_too_early 101
Core_0_DTLB_cross_page_prefetch_too_early_among_fill 0.0258974
Core_0_DTLB_cross_page_prefetch_too_early_among_useless 0.0912376
Core_0_DTLB_cross_page_prefetch_pollution_evict 729
Core_0_DTLB_cross_page_prefetch_pollution_demand 723
Core_0_DTLB_cross_page_prefetch_pollution_among_prefetch_fill 0.186923
Core_0_DTLB_cross_page_prefetch_accuracy 0.111235
Core_0_DTLB_cross_page_prefetch_coverage 0.00325336

========= STLB_vBerti Prefetch Stats =========
Core_0_STLB_demand_access 426962
Core_0_STLB_demand_hit 82797
Core_0_STLB_demand_miss 344165
Core_0_STLB_demand_mshr_merge 0
Core_0_STLB_demand_fill 344165
Core_0_STLB_demand_miss_rate 0.806079
Core_0_STLB_demand_mpki 3.44165
Core_0_STLB_vberti_prefetch_access 3998
Core_0_STLB_vberti_prefetch_hit 243
Core_0_STLB_vberti_prefetch_miss 3755
Core_0_STLB_vberti_prefetch_mshr_merge 0
Core_0_STLB_vberti_prefetch_fill 0
Core_0_STLB_vberti_prefetch_miss_rate 0.93922
Core_0_STLB_vberti_prefetch_mpki 0.03755

=== STLB_vBerti Same/Cross-page Prefetch Stats ===
Core_0_STLB_vberti_same_page_prefetch 0
Core_0_STLB_vberti_same_page_prefetch_hit 0
Core_0_STLB_vberti_same_page_prefetch_miss 0
Core_0_STLB_vberti_same_page_prefetch_mshr_merge 0
Core_0_STLB_vberti_same_page_prefetch_fill 0
Core_0_STLB_vberti_same_page_prefetch_miss_rate 0
Core_0_STLB_vberti_same_page_prefetch_mpki 0
Core_0_STLB_vberti_cross_page_prefetch 3998
Core_0_STLB_vberti_cross_page_prefetch_hit 243
Core_0_STLB_vberti_cross_page_prefetch_miss 3755
Core_0_STLB_vberti_cross_page_prefetch_mshr_merge 0
Core_0_STLB_vberti_cross_page_prefetch_fill 0
Core_0_STLB_vberti_cross_page_prefetch_miss_rate 0.93922
Core_0_STLB_vberti_cross_page_prefetch_mpki 0.03755
Core_0_STLB_same_page_prefetch_miss_rate 0
Core_0_STLB_same_page_prefetch_mpki 0
Core_0_STLB_cross_page_prefetch_miss_rate 0.93922
Core_0_STLB_cross_page_prefetch_mpki 0.03755
Core_0_STLB_cross_page_prefetch_issued 3998
Core_0_STLB_cross_page_prefetch_lookups 3998
Core_0_STLB_cross_page_prefetch_useful 1502
Core_0_STLB_cross_page_prefetch_useless 1690
Core_0_STLB_cross_page_prefetch_late 1502
Core_0_STLB_cross_page_prefetch_too_early 0
Core_0_STLB_cross_page_prefetch_too_early_among_fill 0
Core_0_STLB_cross_page_prefetch_too_early_among_useless 0
Core_0_STLB_cross_page_prefetch_pollution_evict 0
Core_0_STLB_cross_page_prefetch_pollution_demand 0
Core_0_STLB_cross_page_prefetch_pollution_among_prefetch_fill 0
Core_0_STLB_cross_page_prefetch_accuracy 0.375688
Core_0_STLB_cross_page_prefetch_coverage 0.00434522

========= STLB Cross-page Prefetch Buffer Stats =========
Core_0_STLB_raw_demand_miss 338868
Core_0_CP_PB_insert 3755
Core_0_CP_PB_demand_hit 1502
Core_0_STLB_PB_demand_miss 337366
Core_0_CP_PB_coverage 0.0044324
Core_0_STLB_raw_demand_mpki 3.38868
Core_0_STLB_PB_demand_mpki 3.37366
Core_0_CP_PB_demand_hit_mpki 0.01502

Core_0_TLB_demand_miss_rate 0.012478
Core_0_TLB_demand_mpki 3.44165
Core_0_TLB_same_page_prefetch_miss_rate 0
Core_0_TLB_same_page_prefetch_mpki 0
Core_0_TLB_cross_page_prefetch_miss_rate 0.144479
Core_0_TLB_cross_page_prefetch_mpki 0.03755
Core_0_TLB_cross_page_prefetch_issued 25990
Core_0_TLB_cross_page_prefetch_lookups 25990
Core_0_TLB_cross_page_prefetch_useful 721
Core_0_TLB_cross_page_prefetch_useless 1093
Core_0_TLB_cross_page_prefetch_late 37
Core_0_TLB_cross_page_prefetch_too_early 93
Core_0_TLB_cross_page_prefetch_too_early_among_fill 0.0238462
Core_0_TLB_cross_page_prefetch_too_early_among_useless 0.0850869
Core_0_TLB_cross_page_prefetch_accuracy 0.0277414
Core_0_TLB_cross_page_prefetch_coverage 0.00209055
BERTI TO_L1: 2356414 TO_L2: 475727 TO_L2_BC_MSHR: 162025
BERTI AVG_LAT: 116.977 NUM_TRACK_LATENCY: 4174213 NUM_CANT_TRACK_LATENCY: 0
BERTI CROSS_PAGE 327424 NO_CROSS_PAGE: 2504717
BERTI FOUND_BERTI: 12709383 NO_FOUND_BERTI: 26952267
BERTI AVERAGE_ISSUED: 1.06024
