[VMEM] WARNING: physical memory size is smaller than virtual memory size.

*** ChampSim Multicore Out-of-Order Simulator ***
Warmup Instructions: 50000000
Simulation Instructions: 100000000
Number of CPUs: 1
Page size: 4096
Core 0: /data0/tzh/champsim_traces/SPEC17/605.mcf_s-1536B.champsimtrace.xz
VBerti Prefetcher
BERTI HASH ENTANGLING
BERTI IP MASK ffff
Off-chip DRAM Size: 16 GiB Channels: 1 Width: 64-bit Data Rate: 3205 MT/s
Warmup halting CPU 0 at instruction 50000003 cycle 13720102 for remainder of phase
Warmup finished CPU 0 instructions: 50000003 cycles: 13720102 cumulative IPC: 3.644 (Simulation time: 00 hr 02 min 56 sec)
Warmup complete CPU 0 instructions: 50000003 cycles: 13720102 cumulative IPC: 3.644 (Simulation time: 00 hr 02 min 56 sec)
Simulation finished CPU 0 instructions: 100000003 cycles: 199922679 cumulative IPC: 0.5002 (Simulation time: 00 hr 28 min 46 sec)
Simulation complete CPU 0 instructions: 100000003 cycles: 199922679 cumulative IPC: 0.5002 (Simulation time: 00 hr 28 min 46 sec)

ChampSim completed all CPUs

=== Simulation ===
CPU 0 runs /data0/tzh/champsim_traces/SPEC17/605.mcf_s-1536B.champsimtrace.xz

Region of Interest Statistics

CPU 0 cumulative IPC: 0.5002 instructions: 100000003 cycles: 199922679
CPU 0 Branch Prediction Accuracy: 99.99% MPKI: 0.02047 Average ROB Occupancy at Mispredict: 317.6
Branch type MPKI
BRANCH_DIRECT_JUMP: 0
BRANCH_INDIRECT: 0
BRANCH_CONDITIONAL: 0.02047
BRANCH_DIRECT_CALL: 0
BRANCH_INDIRECT_CALL: 0
BRANCH_RETURN: 0

cpu0->cpu0_STLB TOTAL        ACCESS:    2446201 HIT:     201233 MISS:    2244968 MSHR_MERGE:          0
cpu0->cpu0_STLB LOAD         ACCESS:    2446201 HIT:     201233 MISS:    2244968 MSHR_MERGE:          0
cpu0->cpu0_STLB RFO          ACCESS:          0 HIT:          0 MISS:          0 MSHR_MERGE:          0
cpu0->cpu0_STLB PREFETCH     ACCESS:          0 HIT:          0 MISS:          0 MSHR_MERGE:          0
cpu0->cpu0_STLB WRITE        ACCESS:          0 HIT:          0 MISS:          0 MSHR_MERGE:          0
cpu0->cpu0_STLB TRANSLATION  ACCESS:          0 HIT:          0 MISS:          0 MSHR_MERGE:          0
cpu0->cpu0_STLB PREFETCH REQUESTED:          0 ISSUED:          0 USEFUL:          0 USELESS:          0 LATE:          0 TOO_EARLY:          0
cpu0->cpu0_STLB AVERAGE MISS LATENCY: 42.84 cycles
cpu0->cpu0_L2C TOTAL        ACCESS:   22143546 HIT:   16971694 MISS:    5171852 MSHR_MERGE:      46677
cpu0->cpu0_L2C LOAD         ACCESS:    5172934 HIT:    2192572 MISS:    2980362 MSHR_MERGE:       3523
cpu0->cpu0_L2C RFO          ACCESS:     287246 HIT:     103326 MISS:     183920 MSHR_MERGE:          0
cpu0->cpu0_L2C PREFETCH     ACCESS:   12190423 HIT:   11651400 MISS:     539023 MSHR_MERGE:      43154
cpu0->cpu0_L2C WRITE        ACCESS:    2227327 HIT:    2227326 MISS:          1 MSHR_MERGE:          0
cpu0->cpu0_L2C TRANSLATION  ACCESS:    2265616 HIT:     797070 MISS:    1468546 MSHR_MERGE:          0
cpu0->cpu0_L2C PREFETCH REQUESTED:     478687 ISSUED:     478489 USEFUL:      30579 USELESS:      55354 LATE:        120 TOO_EARLY:        462
cpu0->cpu0_L2C AVERAGE MISS LATENCY: 181.1 cycles
cpu0->cpu0_L1I TOTAL        ACCESS:   21485055 HIT:   21485055 MISS:          0 MSHR_MERGE:          0
cpu0->cpu0_L1I LOAD         ACCESS:   21485055 HIT:   21485055 MISS:          0 MSHR_MERGE:          0
cpu0->cpu0_L1I RFO          ACCESS:          0 HIT:          0 MISS:          0 MSHR_MERGE:          0
cpu0->cpu0_L1I PREFETCH     ACCESS:          0 HIT:          0 MISS:          0 MSHR_MERGE:          0
cpu0->cpu0_L1I WRITE        ACCESS:          0 HIT:          0 MISS:          0 MSHR_MERGE:          0
cpu0->cpu0_L1I TRANSLATION  ACCESS:          0 HIT:          0 MISS:          0 MSHR_MERGE:          0
cpu0->cpu0_L1I PREFETCH REQUESTED:          0 ISSUED:          0 USEFUL:          0 USELESS:          0 LATE:          0 TOO_EARLY:          0
cpu0->cpu0_L1I AVERAGE MISS LATENCY: - cycles
cpu0->cpu0_L1D TOTAL        ACCESS:   40174166 HIT:   18369690 MISS:   21804476 MSHR_MERGE:    2345427
cpu0->cpu0_L1D LOAD         ACCESS:   17867609 HIT:   10387622 MISS:    7479987 MSHR_MERGE:    2307053
cpu0->cpu0_L1D RFO          ACCESS:          0 HIT:          0 MISS:          0 MSHR_MERGE:          0
cpu0->cpu0_L1D PREFETCH     ACCESS:   13076018 HIT:    1339756 MISS:   11736262 MSHR_MERGE:       3165
cpu0->cpu0_L1D WRITE        ACCESS:    4434243 HIT:    4143366 MISS:     290877 MSHR_MERGE:       3475
cpu0->cpu0_L1D TRANSLATION  ACCESS:    4796296 HIT:    2498946 MISS:    2297350 MSHR_MERGE:      31734
cpu0->cpu0_L1D PREFETCH REQUESTED:   13514758 ISSUED:   13076011 USEFUL:      94850 USELESS:      83352 LATE:       1979 TOO_EARLY:       5344
cpu0->cpu0_L1D AVERAGE MISS LATENCY: 117.3 cycles
cpu0->cpu0_ITLB TOTAL        ACCESS:   19209595 HIT:   19209595 MISS:          0 MSHR_MERGE:          0
cpu0->cpu0_ITLB LOAD         ACCESS:   19209595 HIT:   19209595 MISS:          0 MSHR_MERGE:          0
cpu0->cpu0_ITLB RFO          ACCESS:          0 HIT:          0 MISS:          0 MSHR_MERGE:          0
cpu0->cpu0_ITLB PREFETCH     ACCESS:          0 HIT:          0 MISS:          0 MSHR_MERGE:          0
cpu0->cpu0_ITLB WRITE        ACCESS:          0 HIT:          0 MISS:          0 MSHR_MERGE:          0
cpu0->cpu0_ITLB TRANSLATION  ACCESS:          0 HIT:          0 MISS:          0 MSHR_MERGE:          0
cpu0->cpu0_ITLB PREFETCH REQUESTED:          0 ISSUED:          0 USEFUL:          0 USELESS:          0 LATE:          0 TOO_EARLY:          0
cpu0->cpu0_ITLB AVERAGE MISS LATENCY: - cycles
cpu0->cpu0_DTLB TOTAL        ACCESS:   31044926 HIT:   25604012 MISS:    5440914 MSHR_MERGE:    2994713
cpu0->cpu0_DTLB LOAD         ACCESS:   31044926 HIT:   25604012 MISS:    5440914 MSHR_MERGE:    2994713
cpu0->cpu0_DTLB RFO          ACCESS:          0 HIT:          0 MISS:          0 MSHR_MERGE:          0
cpu0->cpu0_DTLB PREFETCH     ACCESS:          0 HIT:          0 MISS:          0 MSHR_MERGE:          0
cpu0->cpu0_DTLB WRITE        ACCESS:          0 HIT:          0 MISS:          0 MSHR_MERGE:          0
cpu0->cpu0_DTLB TRANSLATION  ACCESS:          0 HIT:          0 MISS:          0 MSHR_MERGE:          0
cpu0->cpu0_DTLB PREFETCH REQUESTED:          0 ISSUED:          0 USEFUL:          0 USELESS:          0 LATE:          0 TOO_EARLY:          0
cpu0->cpu0_DTLB AVERAGE MISS LATENCY: 45.22 cycles
cpu0->LLC TOTAL        ACCESS:    7342608 HIT:    4427371 MISS:    2915237 MSHR_MERGE:         49
cpu0->LLC LOAD         ACCESS:    2976839 HIT:     425478 MISS:    2551361 MSHR_MERGE:          1
cpu0->LLC RFO          ACCESS:     183920 HIT:     162391 MISS:      21529 MSHR_MERGE:          0
cpu0->LLC PREFETCH     ACCESS:     495869 HIT:     431452 MISS:      64417 MSHR_MERGE:         48
cpu0->LLC WRITE        ACCESS:    2217434 HIT:    1961851 MISS:     255583 MSHR_MERGE:          0
cpu0->LLC TRANSLATION  ACCESS:    1468546 HIT:    1446199 MISS:      22347 MSHR_MERGE:          0
cpu0->LLC PREFETCH REQUESTED:          0 ISSUED:          0 USEFUL:          0 USELESS:          0 LATE:          0 TOO_EARLY:          0
cpu0->LLC AVERAGE MISS LATENCY: 269.6 cycles

DRAM Statistics

Channel 0 RQ ROW_BUFFER_HIT:      32991
  ROW_BUFFER_MISS:    2626611
  AVG DBUS CONGESTED CYCLE: 5.914
Channel 0 WQ ROW_BUFFER_HIT:     505327
  ROW_BUFFER_MISS:    1713133
  FULL:          0
Channel 0 REFRESHES ISSUED:      16660

[ROI Statistics]
[System Configuration]
num_cpus 1
cpu_freq 4000
fetch_width 6
decode_width 6
dispatch_width 6
execute_width 6
lq_width 2
sq_width 2
retire_width 6
scheduler_size 128
branch_mispredict_penalty 15
rob_size 352
lq_size 128
sq_size 72
ifetch_buffer_size 64
decode_buffer_size 32
dispatch_buffer_size 32
register_file_size 288
decode_latency 1
dispatch_latency 1
schedule_latency 1
execute_latency 1
page_size 4096
block_size 64
core_0_itlb_set 16
core_0_itlb_way 4
core_0_itlb_rq_size 16
core_0_itlb_wq_size 16
core_0_itlb_pq_size 0
core_0_itlb_mshr_size 8
core_0_itlb_hit_latency 1
core_0_itlb_fill_latency 1
core_0_itlb_max_tag_check 2
core_0_itlb_max_fill 2
core_0_dtlb_set 16
core_0_dtlb_way 4
core_0_dtlb_rq_size 16
core_0_dtlb_wq_size 16
core_0_dtlb_pq_size 0
core_0_dtlb_mshr_size 8
core_0_dtlb_hit_latency 1
core_0_dtlb_fill_latency 1
core_0_dtlb_max_tag_check 2
core_0_dtlb_max_fill 2
core_0_stlb_set 128
core_0_stlb_way 12
core_0_stlb_rq_size 32
core_0_stlb_wq_size 32
core_0_stlb_pq_size 0
core_0_stlb_mshr_size 16
core_0_stlb_hit_latency 4
core_0_stlb_fill_latency 4
core_0_stlb_max_tag_check 1
core_0_stlb_max_fill 1
core_0_l1i_set 64
core_0_l1i_way 8
core_0_l1i_rq_size 64
core_0_l1i_wq_size 64
core_0_l1i_pq_size 32
core_0_l1i_mshr_size 8
core_0_l1i_hit_latency 2
core_0_l1i_fill_latency 2
core_0_l1i_max_tag_check 2
core_0_l1i_max_fill 2
core_0_l1d_set 64
core_0_l1d_way 12
core_0_l1d_rq_size 64
core_0_l1d_wq_size 64
core_0_l1d_pq_size 8
core_0_l1d_mshr_size 16
core_0_l1d_hit_latency 2
core_0_l1d_fill_latency 3
core_0_l1d_max_tag_check 2
core_0_l1d_max_fill 2
core_0_l2c_set 1024
core_0_l2c_way 8
core_0_l2c_rq_size 32
core_0_l2c_wq_size 32
core_0_l2c_pq_size 16
core_0_l2c_mshr_size 32
core_0_l2c_hit_latency 5
core_0_l2c_fill_latency 5
core_0_l2c_max_tag_check 1
core_0_l2c_max_fill 1
llc_set 2048
llc_way 16
llc_rq_size 32
llc_wq_size 32
llc_pq_size 32
llc_mshr_size 64
llc_hit_latency 10
llc_fill_latency 10
llc_max_tag_check 1
llc_max_fill 1
dram_channels 1
dram_ranks 1
dram_bankgroups 8
dram_banks 4
dram_rows 65536
dram_columns 1024
dram_channel_width 8
dram_rq_size 64
dram_wq_size 64
dram_size 17179869184
core_0_itlb_prefetcher no
core_0_dtlb_prefetcher no
core_0_stlb_prefetcher no
core_0_l1i_prefetcher next_line
core_0_l1d_prefetcher vberti
core_0_l2c_prefetcher ip_stride
llc_prefetcher no
llc_replacement drrip

Core_0_instructions 100000003
Core_0_cycles 199922679
Core_0_IPC 0.500193
Core_0_branch_prediction_accuracy 99.9869
Core_0_branch_MPKI 0.02047
Core_0_average_ROB_occupancy_at_mispredict 317.614

Core_0_ITLB_total_access 19209595
Core_0_ITLB_total_hit 19209595
Core_0_ITLB_total_miss 0
Core_0_ITLB_total_MPKI 0
Core_0_ITLB_total_miss_rate 0
Core_0_ITLB_demand_access 19209595
Core_0_ITLB_demand_hit 19209595
Core_0_ITLB_demand_miss 0
Core_0_ITLB_demand_MPKI 0
Core_0_ITLB_demand_miss_rate 0
Core_0_ITLB_load_access 19209595
Core_0_ITLB_load_hit 19209595
Core_0_ITLB_load_miss 0
Core_0_ITLB_load_MPKI 0
Core_0_ITLB_load_miss_rate 0
Core_0_ITLB_rfo_access 0
Core_0_ITLB_rfo_hit 0
Core_0_ITLB_rfo_miss 0
Core_0_ITLB_rfo_MPKI 0
Core_0_ITLB_rfo_miss_rate 0
Core_0_ITLB_prefetch_access 0
Core_0_ITLB_prefetch_hit 0
Core_0_ITLB_prefetch_miss 0
Core_0_ITLB_prefetch_MPKI 0
Core_0_ITLB_prefetch_miss_rate 0
Core_0_ITLB_writeback_access 0
Core_0_ITLB_writeback_hit 0
Core_0_ITLB_writeback_miss 0
Core_0_ITLB_writeback_MPKI 0
Core_0_ITLB_writeback_miss_rate 0
Core_0_ITLB_prefetch_requested 0
Core_0_ITLB_prefetch_issued 0
Core_0_ITLB_prefetch_useful 0
Core_0_ITLB_prefetch_useless 0
Core_0_ITLB_prefetch_late 0
Core_0_ITLB_prefetch_fill 0
Core_0_ITLB_prefetch_too_early 0
Core_0_ITLB_prefetch_too_early_among_fill 0
Core_0_ITLB_prefetch_too_early_among_useless 0
Core_0_ITLB_prefetch_pollution_evict 0
Core_0_ITLB_prefetch_pollution_demand 0
Core_0_ITLB_prefetch_pollution_among_prefetch_fill 0
Core_0_ITLB_prefetch_accuracy 0
Core_0_ITLB_prefetch_coverage 0

Core_0_DTLB_total_access 31044926
Core_0_DTLB_total_hit 25604012
Core_0_DTLB_total_miss 5440914
Core_0_DTLB_total_MPKI 54.4091
Core_0_DTLB_total_miss_rate 0.175259
Core_0_DTLB_demand_access 31044926
Core_0_DTLB_demand_hit 25604012
Core_0_DTLB_demand_miss 5440914
Core_0_DTLB_demand_MPKI 54.4091
Core_0_DTLB_demand_miss_rate 0.175259
Core_0_DTLB_load_access 31044926
Core_0_DTLB_load_hit 25604012
Core_0_DTLB_load_miss 5440914
Core_0_DTLB_load_MPKI 54.4091
Core_0_DTLB_load_miss_rate 0.175259
Core_0_DTLB_rfo_access 0
Core_0_DTLB_rfo_hit 0
Core_0_DTLB_rfo_miss 0
Core_0_DTLB_rfo_MPKI 0
Core_0_DTLB_rfo_miss_rate 0
Core_0_DTLB_prefetch_access 0
Core_0_DTLB_prefetch_hit 0
Core_0_DTLB_prefetch_miss 0
Core_0_DTLB_prefetch_MPKI 0
Core_0_DTLB_prefetch_miss_rate 0
Core_0_DTLB_writeback_access 0
Core_0_DTLB_writeback_hit 0
Core_0_DTLB_writeback_miss 0
Core_0_DTLB_writeback_MPKI 0
Core_0_DTLB_writeback_miss_rate 0
Core_0_DTLB_prefetch_requested 0
Core_0_DTLB_prefetch_issued 0
Core_0_DTLB_prefetch_useful 0
Core_0_DTLB_prefetch_useless 0
Core_0_DTLB_prefetch_late 0
Core_0_DTLB_prefetch_fill 0
Core_0_DTLB_prefetch_too_early 0
Core_0_DTLB_prefetch_too_early_among_fill 0
Core_0_DTLB_prefetch_too_early_among_useless 0
Core_0_DTLB_prefetch_pollution_evict 0
Core_0_DTLB_prefetch_pollution_demand 0
Core_0_DTLB_prefetch_pollution_among_prefetch_fill 0
Core_0_DTLB_prefetch_accuracy 0
Core_0_DTLB_prefetch_coverage 0

Core_0_STLB_total_access 2446201
Core_0_STLB_total_hit 201233
Core_0_STLB_total_miss 2244968
Core_0_STLB_total_MPKI 22.4497
Core_0_STLB_total_miss_rate 0.917737
Core_0_STLB_demand_access 2446201
Core_0_STLB_demand_hit 201233
Core_0_STLB_demand_miss 2244968
Core_0_STLB_demand_MPKI 22.4497
Core_0_STLB_demand_miss_rate 0.917737
Core_0_STLB_load_access 2446201
Core_0_STLB_load_hit 201233
Core_0_STLB_load_miss 2244968
Core_0_STLB_load_MPKI 22.4497
Core_0_STLB_load_miss_rate 0.917737
Core_0_STLB_rfo_access 0
Core_0_STLB_rfo_hit 0
Core_0_STLB_rfo_miss 0
Core_0_STLB_rfo_MPKI 0
Core_0_STLB_rfo_miss_rate 0
Core_0_STLB_prefetch_access 0
Core_0_STLB_prefetch_hit 0
Core_0_STLB_prefetch_miss 0
Core_0_STLB_prefetch_MPKI 0
Core_0_STLB_prefetch_miss_rate 0
Core_0_STLB_writeback_access 0
Core_0_STLB_writeback_hit 0
Core_0_STLB_writeback_miss 0
Core_0_STLB_writeback_MPKI 0
Core_0_STLB_writeback_miss_rate 0
Core_0_STLB_prefetch_requested 0
Core_0_STLB_prefetch_issued 0
Core_0_STLB_prefetch_useful 0
Core_0_STLB_prefetch_useless 0
Core_0_STLB_prefetch_late 0
Core_0_STLB_prefetch_fill 0
Core_0_STLB_prefetch_too_early 0
Core_0_STLB_prefetch_too_early_among_fill 0
Core_0_STLB_prefetch_too_early_among_useless 0
Core_0_STLB_prefetch_pollution_evict 0
Core_0_STLB_prefetch_pollution_demand 0
Core_0_STLB_prefetch_pollution_among_prefetch_fill 0
Core_0_STLB_prefetch_accuracy 0
Core_0_STLB_prefetch_coverage 0

Core_0_L1I_total_access 21485055
Core_0_L1I_total_hit 21485055
Core_0_L1I_total_miss 0
Core_0_L1I_total_MPKI 0
Core_0_L1I_total_miss_rate 0
Core_0_L1I_demand_access 21485055
Core_0_L1I_demand_hit 21485055
Core_0_L1I_demand_miss 0
Core_0_L1I_demand_MPKI 0
Core_0_L1I_demand_miss_rate 0
Core_0_L1I_load_access 21485055
Core_0_L1I_load_hit 21485055
Core_0_L1I_load_miss 0
Core_0_L1I_load_MPKI 0
Core_0_L1I_load_miss_rate 0
Core_0_L1I_rfo_access 0
Core_0_L1I_rfo_hit 0
Core_0_L1I_rfo_miss 0
Core_0_L1I_rfo_MPKI 0
Core_0_L1I_rfo_miss_rate 0
Core_0_L1I_prefetch_access 0
Core_0_L1I_prefetch_hit 0
Core_0_L1I_prefetch_miss 0
Core_0_L1I_prefetch_MPKI 0
Core_0_L1I_prefetch_miss_rate 0
Core_0_L1I_writeback_access 0
Core_0_L1I_writeback_hit 0
Core_0_L1I_writeback_miss 0
Core_0_L1I_writeback_MPKI 0
Core_0_L1I_writeback_miss_rate 0
Core_0_L1I_prefetch_requested 0
Core_0_L1I_prefetch_issued 0
Core_0_L1I_prefetch_useful 0
Core_0_L1I_prefetch_useless 0
Core_0_L1I_prefetch_late 0
Core_0_L1I_prefetch_fill 0
Core_0_L1I_prefetch_too_early 0
Core_0_L1I_prefetch_too_early_among_fill 0
Core_0_L1I_prefetch_too_early_among_useless 0
Core_0_L1I_prefetch_pollution_evict 0
Core_0_L1I_prefetch_pollution_demand 0
Core_0_L1I_prefetch_pollution_among_prefetch_fill 0
Core_0_L1I_prefetch_accuracy 0
Core_0_L1I_prefetch_coverage 0

Core_0_L1D_total_access 35377870
Core_0_L1D_total_hit 15870744
Core_0_L1D_total_miss 19507126
Core_0_L1D_total_MPKI 195.071
Core_0_L1D_total_miss_rate 0.551393
Core_0_L1D_demand_access 17867609
Core_0_L1D_demand_hit 10387622
Core_0_L1D_demand_miss 7479987
Core_0_L1D_demand_MPKI 74.7999
Core_0_L1D_demand_miss_rate 0.418634
Core_0_L1D_load_access 17867609
Core_0_L1D_load_hit 10387622
Core_0_L1D_load_miss 7479987
Core_0_L1D_load_MPKI 74.7999
Core_0_L1D_load_miss_rate 0.418634
Core_0_L1D_rfo_access 0
Core_0_L1D_rfo_hit 0
Core_0_L1D_rfo_miss 0
Core_0_L1D_rfo_MPKI 0
Core_0_L1D_rfo_miss_rate 0
Core_0_L1D_prefetch_access 13076018
Core_0_L1D_prefetch_hit 1339756
Core_0_L1D_prefetch_miss 11736262
Core_0_L1D_prefetch_MPKI 117.363
Core_0_L1D_prefetch_miss_rate 0.897541
Core_0_L1D_writeback_access 4434243
Core_0_L1D_writeback_hit 4143366
Core_0_L1D_writeback_miss 290877
Core_0_L1D_writeback_MPKI 2.90877
Core_0_L1D_writeback_miss_rate 0.0655979
Core_0_L1D_prefetch_requested 13514758
Core_0_L1D_prefetch_issued 13076011
Core_0_L1D_prefetch_useful 94850
Core_0_L1D_prefetch_useless 83352
Core_0_L1D_prefetch_late 1979
Core_0_L1D_prefetch_fill 176213
Core_0_L1D_prefetch_too_early 5344
Core_0_L1D_prefetch_too_early_among_fill 0.0303269
Core_0_L1D_prefetch_too_early_among_useless 0.0641136
Core_0_L1D_prefetch_pollution_evict 55842
Core_0_L1D_prefetch_pollution_demand 55491
Core_0_L1D_prefetch_pollution_among_prefetch_fill 0.316901
Core_0_L1D_prefetch_accuracy 0.00725374
Core_0_L1D_prefetch_coverage 0.0125217

Core_0_L2C_total_access 19877930
Core_0_L2C_total_hit 16174624
Core_0_L2C_total_miss 3703306
Core_0_L2C_total_MPKI 37.0331
Core_0_L2C_total_miss_rate 0.186302
Core_0_L2C_demand_access 5460180
Core_0_L2C_demand_hit 2295898
Core_0_L2C_demand_miss 3164282
Core_0_L2C_demand_MPKI 31.6428
Core_0_L2C_demand_miss_rate 0.57952
Core_0_L2C_load_access 5172934
Core_0_L2C_load_hit 2192572
Core_0_L2C_load_miss 2980362
Core_0_L2C_load_MPKI 29.8036
Core_0_L2C_load_miss_rate 0.576145
Core_0_L2C_rfo_access 287246
Core_0_L2C_rfo_hit 103326
Core_0_L2C_rfo_miss 183920
Core_0_L2C_rfo_MPKI 1.8392
Core_0_L2C_rfo_miss_rate 0.640287
Core_0_L2C_prefetch_access 12190423
Core_0_L2C_prefetch_hit 11651400
Core_0_L2C_prefetch_miss 539023
Core_0_L2C_prefetch_MPKI 5.39023
Core_0_L2C_prefetch_miss_rate 0.0442169
Core_0_L2C_writeback_access 2227327
Core_0_L2C_writeback_hit 2227326
Core_0_L2C_writeback_miss 1
Core_0_L2C_writeback_MPKI 1e-05
Core_0_L2C_writeback_miss_rate 4.48969e-07
Core_0_L2C_prefetch_requested 478687
Core_0_L2C_prefetch_issued 478489
Core_0_L2C_prefetch_useful 30579
Core_0_L2C_prefetch_useless 55354
Core_0_L2C_prefetch_late 120
Core_0_L2C_prefetch_fill 492131
Core_0_L2C_prefetch_too_early 462
Core_0_L2C_prefetch_too_early_among_fill 0.000938774
Core_0_L2C_prefetch_too_early_among_useless 0.00834628
Core_0_L2C_prefetch_pollution_evict 74541
Core_0_L2C_prefetch_pollution_demand 74520
Core_0_L2C_prefetch_pollution_among_prefetch_fill 0.151466
Core_0_L2C_prefetch_accuracy 0.0639074
Core_0_L2C_prefetch_coverage 0.00957131

Core_0_LLC_total_access 5874062
Core_0_LLC_total_hit 2981172
Core_0_LLC_total_miss 2892890
Core_0_LLC_total_MPKI 28.9289
Core_0_LLC_total_miss_rate 0.492485
Core_0_LLC_demand_access 3160759
Core_0_LLC_demand_hit 587869
Core_0_LLC_demand_miss 2572890
Core_0_LLC_demand_MPKI 25.7289
Core_0_LLC_demand_miss_rate 0.81401
Core_0_LLC_load_access 2976839
Core_0_LLC_load_hit 425478
Core_0_LLC_load_miss 2551361
Core_0_LLC_load_MPKI 25.5136
Core_0_LLC_load_miss_rate 0.857071
Core_0_LLC_rfo_access 183920
Core_0_LLC_rfo_hit 162391
Core_0_LLC_rfo_miss 21529
Core_0_LLC_rfo_MPKI 0.21529
Core_0_LLC_rfo_miss_rate 0.117056
Core_0_LLC_prefetch_access 495869
Core_0_LLC_prefetch_hit 431452
Core_0_LLC_prefetch_miss 64417
Core_0_LLC_prefetch_MPKI 0.64417
Core_0_LLC_prefetch_miss_rate 0.129907
Core_0_LLC_writeback_access 2217434
Core_0_LLC_writeback_hit 1961851
Core_0_LLC_writeback_miss 255583
Core_0_LLC_writeback_MPKI 2.55583
Core_0_LLC_writeback_miss_rate 0.115261
Core_0_LLC_prefetch_requested 0
Core_0_LLC_prefetch_issued 0
Core_0_LLC_prefetch_useful 0
Core_0_LLC_prefetch_useless 0
Core_0_LLC_prefetch_late 0
Core_0_LLC_prefetch_fill 64368
Core_0_LLC_prefetch_too_early 0
Core_0_LLC_prefetch_too_early_among_fill 0
Core_0_LLC_prefetch_too_early_among_useless 0
Core_0_LLC_prefetch_pollution_evict 1674
Core_0_LLC_prefetch_pollution_demand 1674
Core_0_LLC_prefetch_pollution_among_prefetch_fill 0.0260067
Core_0_LLC_prefetch_accuracy 0
Core_0_LLC_prefetch_coverage 0

[DRAM Statistics]
Channel_0_RQ_row_buffer_hit 32991
Channel_0_RQ_row_buffer_miss 2626611
Channel_0_WQ_row_buffer_hit 505327
Channel_0_WQ_row_buffer_miss 1713133
Channel_0_WQ_full 0
Channel_0_dbus_congested 15381552
DRAM_total_RQ_row_buffer_hit 32991
DRAM_total_RQ_row_buffer_miss 2626611
DRAM_total_WQ_row_buffer_hit 505327
DRAM_total_WQ_row_buffer_miss 1713133
DRAM_total_WQ_full 0
DRAM_total_dbus_congested 15381552
DRAM_avg_congested_cycle 5.91374

====== DRAM_RQ_TRAFFIC ========
DRAM_RQ_READ_TRAFFIC_BREAKDOWN:
data_demand_read.count = 2572889
data_demand_read.share = 96.74%

inst_demand_read.count = 0
inst_demand_read.share = 0.00%

cache_inst_prefetch.count = 0
cache_inst_prefetch.share = 0.00%

cache_data_prefetch.count = 64369
cache_data_prefetch.share = 2.42%

stlb_data_demand.count = 22198
stlb_data_demand.share = 0.83%

stlb_inst_demand.count = 0
stlb_inst_demand.share = 0.00%

stlb_l1i_pref.count = 0
stlb_l1i_pref.share = 0.00%

stlb_l1d_pref.count = 149
stlb_l1d_pref.share = 0.01%

DRAM_RQ_READ_TRAFFIC_SUMMARY:
cache_demand.count = 2572889
cache_demand.share = 96.74%

cache_prefetch.count = 64369
cache_prefetch.share = 2.42%

stlb_demand.count = 22198
stlb_demand.share = 0.83%

stlb_prefetch.count = 149
stlb_prefetch.share = 0.01%

DRAM_RQ_READ_TRAFFIC_DEBUG:
total_classified_read.count = 2659605
unclassified_read.count = 0
total_read_with_other.count = 2659605

classified_plus_unclassified_check.count = 2659605
dram_rq_read_total_observed.count = 2659605
dram_rq_read_total_observed.per_1K_instructions = 26.596

STLB_MISS_PTW_DRAM_TOUCH_BREAKDOWN:
stlb_miss_total.count = 2244007

stlb_miss_touch_dram.count = 22354
stlb_miss_touch_dram.share = 1.00%

stlb_miss_no_dram_touch.count = 2221653
stlb_miss_no_dram_touch.share = 99.00%

STLB_MISS_PTW_DRAM_TOUCH_DEBUG:
stlb_miss_touch_plus_no_touch.count = 2244007
stlb_miss_total_check.count = 2244007

======STLB miss causes ========
Core_0_STLB_miss_cause_breakdown
Core_0_STLB_cause_Demand_Data_miss 2238699
Core_0_STLB_cause_Demand_Data_miss_rate 0.915174
Core_0_STLB_cause_Demand_Instruction_miss 0
Core_0_STLB_cause_Demand_Instruction_miss_rate 0
Core_0_STLB_cause_L1D_Prefetch_miss 6269
Core_0_STLB_cause_L1D_Prefetch_miss_rate 0.00256275
Core_0_STLB_cause_L1D_Prefetch_Same_Page_miss 0
Core_0_STLB_cause_L1D_Prefetch_Same_Page_miss_rate 0
Core_0_STLB_cause_L1D_Prefetch_Cross_Page_miss 6269
Core_0_STLB_cause_L1D_Prefetch_Cross_Page_miss_rate 0.00256275
Core_0_STLB_cause_L1I_Prefetch_miss 0
Core_0_STLB_cause_L1I_Prefetch_miss_rate 0
Core_0_STLB_cause_Other_miss 0
Core_0_STLB_cause_Other_miss_rate 0
Core_0_STLB_Demand_miss 2238699
Core_0_STLB_Demand_miss_rate 0.915174
Core_0_STLB_L1D_Prefetch_miss 6269
Core_0_STLB_L1D_Prefetch_miss_rate 0.00256275
Core_0_STLB_Other_miss 0
Core_0_STLB_Other_miss_rate 0

========== vBerti-TLB Cross-page Flow Stats ==========

Core_0_vBerti_Requested 13514758
Core_0_vBerti_Cross_page_prefetch_in_Requested 2848400
Core_0_vBerti_Same_page_prefetch_in_Requested 10666358
Core_0_vBerti_Cross_page_prefetch_of_Requested 0.210762
Core_0_vBerti_Issued 13076011
Core_0_vBerti_PQ_Drop_Rate 0.0324643
Core_0_vBerti_InPQ_Cross_page_prefetch_of_Requested 0.20309
Core_0_vBerti_Cross_page_PQ_Drop_rate 0.0364008
Core_0_vBerti_Cross_page_prefetch_of_Issued 0.209905

========= DTLB_vBerti Prefetch Stats =========
Core_0_DTLB_demand_access 21864032
Core_0_DTLB_demand_hit 16511451
Core_0_DTLB_demand_miss 5352581
Core_0_DTLB_demand_mshr_merge 2971406
Core_0_DTLB_demand_fill 2381326
Core_0_DTLB_demand_miss_rate 0.244812
Core_0_DTLB_demand_mpki 53.5258
Core_0_DTLB_vberti_prefetch_access 9180894
Core_0_DTLB_vberti_prefetch_hit 9092561
Core_0_DTLB_vberti_prefetch_miss 88333
Core_0_DTLB_vberti_prefetch_mshr_merge 23307
Core_0_DTLB_vberti_prefetch_fill 64877
Core_0_DTLB_vberti_prefetch_miss_rate 0.00962139
Core_0_DTLB_vberti_prefetch_mpki 0.88333

=== DTLB_vBerti Same/Cross-page Prefetch Stats ===
Core_0_DTLB_vberti_same_page_prefetch 7055066
Core_0_DTLB_vberti_same_page_prefetch_hit 7055066
Core_0_DTLB_vberti_same_page_prefetch_miss 0
Core_0_DTLB_vberti_same_page_prefetch_mshr_merge 0
Core_0_DTLB_vberti_same_page_prefetch_fill 0
Core_0_DTLB_vberti_same_page_prefetch_miss_rate 0
Core_0_DTLB_vberti_same_page_prefetch_mpki 0
Core_0_DTLB_vberti_cross_page_prefetch 2125828
Core_0_DTLB_vberti_cross_page_prefetch_hit 2037495
Core_0_DTLB_vberti_cross_page_prefetch_miss 88333
Core_0_DTLB_vberti_cross_page_prefetch_mshr_merge 23307
Core_0_DTLB_vberti_cross_page_prefetch_fill 64877
Core_0_DTLB_vberti_cross_page_prefetch_miss_rate 0.0415523
Core_0_DTLB_vberti_cross_page_prefetch_mpki 0.88333
Core_0_DTLB_same_page_prefetch_miss_rate 0
Core_0_DTLB_same_page_prefetch_mpki 0
Core_0_DTLB_cross_page_prefetch_miss_rate 0.0415523
Core_0_DTLB_cross_page_prefetch_mpki 0.88333
Core_0_DTLB_cross_page_prefetch_issued 2125828
Core_0_DTLB_cross_page_prefetch_lookups 2125828
Core_0_DTLB_cross_page_prefetch_useful 64714
Core_0_DTLB_cross_page_prefetch_useless 312
Core_0_DTLB_cross_page_prefetch_late 149
Core_0_DTLB_cross_page_prefetch_too_early 28
Core_0_DTLB_cross_page_prefetch_too_early_among_fill 0.000431586
Core_0_DTLB_cross_page_prefetch_too_early_among_useless 0.0897436
Core_0_DTLB_cross_page_prefetch_pollution_evict 3604
Core_0_DTLB_cross_page_prefetch_pollution_demand 3594
Core_0_DTLB_cross_page_prefetch_pollution_among_prefetch_fill 0.0555513
Core_0_DTLB_cross_page_prefetch_accuracy 0.0304418
Core_0_DTLB_cross_page_prefetch_coverage 0.0119458

========= STLB_vBerti Prefetch Stats =========
Core_0_STLB_demand_access 2381175
Core_0_STLB_demand_hit 142476
Core_0_STLB_demand_miss 2238699
Core_0_STLB_demand_mshr_merge 0
Core_0_STLB_demand_fill 2238701
Core_0_STLB_demand_miss_rate 0.940166
Core_0_STLB_demand_mpki 22.387
Core_0_STLB_vberti_prefetch_access 65026
Core_0_STLB_vberti_prefetch_hit 58757
Core_0_STLB_vberti_prefetch_miss 6269
Core_0_STLB_vberti_prefetch_mshr_merge 0
Core_0_STLB_vberti_prefetch_fill 0
Core_0_STLB_vberti_prefetch_miss_rate 0.0964076
Core_0_STLB_vberti_prefetch_mpki 0.06269

=== STLB_vBerti Same/Cross-page Prefetch Stats ===
Core_0_STLB_vberti_same_page_prefetch 0
Core_0_STLB_vberti_same_page_prefetch_hit 0
Core_0_STLB_vberti_same_page_prefetch_miss 0
Core_0_STLB_vberti_same_page_prefetch_mshr_merge 0
Core_0_STLB_vberti_same_page_prefetch_fill 0
Core_0_STLB_vberti_same_page_prefetch_miss_rate 0
Core_0_STLB_vberti_same_page_prefetch_mpki 0
Core_0_STLB_vberti_cross_page_prefetch 65026
Core_0_STLB_vberti_cross_page_prefetch_hit 58757
Core_0_STLB_vberti_cross_page_prefetch_miss 6269
Core_0_STLB_vberti_cross_page_prefetch_mshr_merge 0
Core_0_STLB_vberti_cross_page_prefetch_fill 0
Core_0_STLB_vberti_cross_page_prefetch_miss_rate 0.0964076
Core_0_STLB_vberti_cross_page_prefetch_mpki 0.06269
Core_0_STLB_same_page_prefetch_miss_rate 0
Core_0_STLB_same_page_prefetch_mpki 0
Core_0_STLB_cross_page_prefetch_miss_rate 0.0964076
Core_0_STLB_cross_page_prefetch_mpki 0.06269
Core_0_STLB_cross_page_prefetch_issued 65026
Core_0_STLB_cross_page_prefetch_lookups 65026
Core_0_STLB_cross_page_prefetch_useful 960
Core_0_STLB_cross_page_prefetch_useless 480
Core_0_STLB_cross_page_prefetch_late 960
Core_0_STLB_cross_page_prefetch_too_early 0
Core_0_STLB_cross_page_prefetch_too_early_among_fill 0
Core_0_STLB_cross_page_prefetch_too_early_among_useless 0
Core_0_STLB_cross_page_prefetch_pollution_evict 0
Core_0_STLB_cross_page_prefetch_pollution_demand 0
Core_0_STLB_cross_page_prefetch_pollution_among_prefetch_fill 0
Core_0_STLB_cross_page_prefetch_accuracy 0.0147633
Core_0_STLB_cross_page_prefetch_coverage 0.000428637

========= STLB Cross-page Prefetch Buffer Stats =========
Core_0_STLB_raw_demand_miss 2238699
Core_0_CP_PB_insert 6269
Core_0_CP_PB_demand_hit 960
Core_0_STLB_PB_demand_miss 2237739
Core_0_CP_PB_coverage 0.00042882
Core_0_STLB_raw_demand_mpki 22.387
Core_0_STLB_PB_demand_mpki 22.3774
Core_0_CP_PB_demand_hit_mpki 0.0096

Core_0_TLB_demand_miss_rate 0.102392
Core_0_TLB_demand_mpki 22.387
Core_0_TLB_same_page_prefetch_miss_rate 0
Core_0_TLB_same_page_prefetch_mpki 0
Core_0_TLB_cross_page_prefetch_miss_rate 0.00294897
Core_0_TLB_cross_page_prefetch_mpki 0.06269
Core_0_TLB_cross_page_prefetch_issued 2125828
Core_0_TLB_cross_page_prefetch_lookups 2125828
Core_0_TLB_cross_page_prefetch_useful 187
Core_0_TLB_cross_page_prefetch_useless 252
Core_0_TLB_cross_page_prefetch_late 0
Core_0_TLB_cross_page_prefetch_too_early 9
Core_0_TLB_cross_page_prefetch_too_early_among_fill 0.000138724
Core_0_TLB_cross_page_prefetch_too_early_among_useless 0.0357143
Core_0_TLB_cross_page_prefetch_accuracy 8.79657e-05
Core_0_TLB_cross_page_prefetch_coverage 8.35237e-05
BERTI TO_L1: 2619543 TO_L2: 16967871 TO_L2_BC_MSHR: 77
BERTI AVG_LAT: 107.78 NUM_TRACK_LATENCY: 8045597 NUM_CANT_TRACK_LATENCY: 0
BERTI CROSS_PAGE 4084960 NO_CROSS_PAGE: 15502454
BERTI FOUND_BERTI: 6374578 NO_FOUND_BERTI: 24221203
BERTI AVERAGE_ISSUED: 3.49518
