[VMEM] WARNING: physical memory size is smaller than virtual memory size.

*** ChampSim Multicore Out-of-Order Simulator ***
Warmup Instructions: 50000000
Simulation Instructions: 100000000
Number of CPUs: 1
Page size: 4096
Core 0: /data0/tzh/champsim_traces/SPEC17/605.mcf_s-472B.champsimtrace.xz
VBerti Prefetcher
BERTI HASH ENTANGLING
BERTI IP MASK ffff
Off-chip DRAM Size: 16 GiB Channels: 1 Width: 64-bit Data Rate: 3205 MT/s
Warmup halting CPU 0 at instruction 50000005 cycle 19360006 for remainder of phase
Warmup finished CPU 0 instructions: 50000005 cycles: 19360006 cumulative IPC: 2.583 (Simulation time: 00 hr 04 min 01 sec)
Warmup complete CPU 0 instructions: 50000005 cycles: 19360006 cumulative IPC: 2.583 (Simulation time: 00 hr 04 min 01 sec)
Simulation finished CPU 0 instructions: 100000001 cycles: 160047375 cumulative IPC: 0.6248 (Simulation time: 00 hr 25 min 25 sec)
Simulation complete CPU 0 instructions: 100000001 cycles: 160047375 cumulative IPC: 0.6248 (Simulation time: 00 hr 25 min 25 sec)

ChampSim completed all CPUs

=== Simulation ===
CPU 0 runs /data0/tzh/champsim_traces/SPEC17/605.mcf_s-472B.champsimtrace.xz

Region of Interest Statistics

CPU 0 cumulative IPC: 0.6248 instructions: 100000001 cycles: 160047375
CPU 0 Branch Prediction Accuracy: 98.96% MPKI: 1.192 Average ROB Occupancy at Mispredict: 171.9
Branch type MPKI
BRANCH_DIRECT_JUMP: 0
BRANCH_INDIRECT: 0
BRANCH_CONDITIONAL: 1.192
BRANCH_DIRECT_CALL: 0
BRANCH_INDIRECT_CALL: 0
BRANCH_RETURN: 0

cpu0->cpu0_STLB TOTAL        ACCESS:     337689 HIT:     243298 MISS:      94391 MSHR_MERGE:          0
cpu0->cpu0_STLB LOAD         ACCESS:     337689 HIT:     243298 MISS:      94391 MSHR_MERGE:          0
cpu0->cpu0_STLB RFO          ACCESS:          0 HIT:          0 MISS:          0 MSHR_MERGE:          0
cpu0->cpu0_STLB PREFETCH     ACCESS:          0 HIT:          0 MISS:          0 MSHR_MERGE:          0
cpu0->cpu0_STLB WRITE        ACCESS:          0 HIT:          0 MISS:          0 MSHR_MERGE:          0
cpu0->cpu0_STLB TRANSLATION  ACCESS:          0 HIT:          0 MISS:          0 MSHR_MERGE:          0
cpu0->cpu0_STLB PREFETCH REQUESTED:          0 ISSUED:          0 USEFUL:          0 USELESS:          0 LATE:          0 TOO_EARLY:          0
cpu0->cpu0_STLB AVERAGE MISS LATENCY: 110.6 cycles
cpu0->cpu0_L2C TOTAL        ACCESS:   14574357 HIT:    5959352 MISS:    8615005 MSHR_MERGE:    2632111
cpu0->cpu0_L2C LOAD         ACCESS:    2195572 HIT:    1347229 MISS:     848343 MSHR_MERGE:     328147
cpu0->cpu0_L2C RFO          ACCESS:     107004 HIT:      63293 MISS:      43711 MSHR_MERGE:       4397
cpu0->cpu0_L2C PREFETCH     ACCESS:   11736961 HIT:    4033805 MISS:    7703156 MSHR_MERGE:    2299567
cpu0->cpu0_L2C WRITE        ACCESS:     512797 HIT:     509869 MISS:       2928 MSHR_MERGE:          0
cpu0->cpu0_L2C TRANSLATION  ACCESS:      22023 HIT:       5156 MISS:      16867 MSHR_MERGE:          0
cpu0->cpu0_L2C PREFETCH REQUESTED:    1988180 ISSUED:    1297127 USEFUL:     118115 USELESS:      57729 LATE:       2844 TOO_EARLY:       2037
cpu0->cpu0_L2C AVERAGE MISS LATENCY: 211.9 cycles
cpu0->cpu0_L1I TOTAL        ACCESS:   16436594 HIT:   16436594 MISS:          0 MSHR_MERGE:          0
cpu0->cpu0_L1I LOAD         ACCESS:   16436594 HIT:   16436594 MISS:          0 MSHR_MERGE:          0
cpu0->cpu0_L1I RFO          ACCESS:          0 HIT:          0 MISS:          0 MSHR_MERGE:          0
cpu0->cpu0_L1I PREFETCH     ACCESS:          0 HIT:          0 MISS:          0 MSHR_MERGE:          0
cpu0->cpu0_L1I WRITE        ACCESS:          0 HIT:          0 MISS:          0 MSHR_MERGE:          0
cpu0->cpu0_L1I TRANSLATION  ACCESS:          0 HIT:          0 MISS:          0 MSHR_MERGE:          0
cpu0->cpu0_L1I PREFETCH REQUESTED:          0 ISSUED:          0 USEFUL:          0 USELESS:          0 LATE:          0 TOO_EARLY:          0
cpu0->cpu0_L1I AVERAGE MISS LATENCY: - cycles
cpu0->cpu0_L1D TOTAL        ACCESS:   68754856 HIT:   54791968 MISS:   13962888 MSHR_MERGE:     839900
cpu0->cpu0_L1D LOAD         ACCESS:   25678476 HIT:   22896182 MISS:    2782294 MSHR_MERGE:     586720
cpu0->cpu0_L1D RFO          ACCESS:          0 HIT:          0 MISS:          0 MSHR_MERGE:          0
cpu0->cpu0_L1D PREFETCH     ACCESS:   18651540 HIT:    7797619 MISS:   10853921 MSHR_MERGE:      55562
cpu0->cpu0_L1D WRITE        ACCESS:   24240863 HIT:   23936223 MISS:     304640 MSHR_MERGE:     197608
cpu0->cpu0_L1D TRANSLATION  ACCESS:     183977 HIT:     161944 MISS:      22033 MSHR_MERGE:         10
cpu0->cpu0_L1D PREFETCH REQUESTED:   88063748 ISSUED:   18651532 USEFUL:    2692950 USELESS:     153348 LATE:     366469 TOO_EARLY:        121
cpu0->cpu0_L1D AVERAGE MISS LATENCY: 105.2 cycles
cpu0->cpu0_ITLB TOTAL        ACCESS:   13988683 HIT:   13988683 MISS:          0 MSHR_MERGE:          0
cpu0->cpu0_ITLB LOAD         ACCESS:   13988683 HIT:   13988683 MISS:          0 MSHR_MERGE:          0
cpu0->cpu0_ITLB RFO          ACCESS:          0 HIT:          0 MISS:          0 MSHR_MERGE:          0
cpu0->cpu0_ITLB PREFETCH     ACCESS:          0 HIT:          0 MISS:          0 MSHR_MERGE:          0
cpu0->cpu0_ITLB WRITE        ACCESS:          0 HIT:          0 MISS:          0 MSHR_MERGE:          0
cpu0->cpu0_ITLB TRANSLATION  ACCESS:          0 HIT:          0 MISS:          0 MSHR_MERGE:          0
cpu0->cpu0_ITLB PREFETCH REQUESTED:          0 ISSUED:          0 USEFUL:          0 USELESS:          0 LATE:          0 TOO_EARLY:          0
cpu0->cpu0_ITLB AVERAGE MISS LATENCY: - cycles
cpu0->cpu0_DTLB TOTAL        ACCESS:   59293059 HIT:   58745175 MISS:     547884 MSHR_MERGE:     210195
cpu0->cpu0_DTLB LOAD         ACCESS:   59293059 HIT:   58745175 MISS:     547884 MSHR_MERGE:     210195
cpu0->cpu0_DTLB RFO          ACCESS:          0 HIT:          0 MISS:          0 MSHR_MERGE:          0
cpu0->cpu0_DTLB PREFETCH     ACCESS:          0 HIT:          0 MISS:          0 MSHR_MERGE:          0
cpu0->cpu0_DTLB WRITE        ACCESS:          0 HIT:          0 MISS:          0 MSHR_MERGE:          0
cpu0->cpu0_DTLB TRANSLATION  ACCESS:          0 HIT:          0 MISS:          0 MSHR_MERGE:          0
cpu0->cpu0_DTLB PREFETCH REQUESTED:          0 ISSUED:          0 USEFUL:          0 USELESS:          0 LATE:          0 TOO_EARLY:          0
cpu0->cpu0_DTLB AVERAGE MISS LATENCY: 35.38 cycles
cpu0->LLC TOTAL        ACCESS:    6423784 HIT:    1702830 MISS:    4720954 MSHR_MERGE:     119554
cpu0->LLC LOAD         ACCESS:     520196 HIT:      87769 MISS:     432427 MSHR_MERGE:       2994
cpu0->LLC RFO          ACCESS:      39314 HIT:       2110 MISS:      37204 MSHR_MERGE:        140
cpu0->LLC PREFETCH     ACCESS:    5403525 HIT:    1532657 MISS:    3870868 MSHR_MERGE:     116420
cpu0->LLC WRITE        ACCESS:     443882 HIT:      78693 MISS:     365189 MSHR_MERGE:          0
cpu0->LLC TRANSLATION  ACCESS:      16867 HIT:       1601 MISS:      15266 MSHR_MERGE:          0
cpu0->LLC PREFETCH REQUESTED:          0 ISSUED:          0 USEFUL:          0 USELESS:          0 LATE:          0 TOO_EARLY:          0
cpu0->LLC AVERAGE MISS LATENCY: 147.6 cycles

DRAM Statistics

Channel 0 RQ ROW_BUFFER_HIT:     251800
  ROW_BUFFER_MISS:    3984386
  AVG DBUS CONGESTED CYCLE: 5.189
Channel 0 WQ ROW_BUFFER_HIT:      41290
  ROW_BUFFER_MISS:     395971
  FULL:          0
Channel 0 REFRESHES ISSUED:      13337

[ROI Statistics]
[System Configuration]
num_cpus 1
cpu_freq 4000
fetch_width 6
decode_width 6
dispatch_width 6
execute_width 6
lq_width 2
sq_width 2
retire_width 6
scheduler_size 128
branch_mispredict_penalty 15
rob_size 352
lq_size 128
sq_size 72
ifetch_buffer_size 64
decode_buffer_size 32
dispatch_buffer_size 32
register_file_size 288
decode_latency 1
dispatch_latency 1
schedule_latency 1
execute_latency 1
page_size 4096
block_size 64
core_0_itlb_set 16
core_0_itlb_way 4
core_0_itlb_rq_size 16
core_0_itlb_wq_size 16
core_0_itlb_pq_size 0
core_0_itlb_mshr_size 8
core_0_itlb_hit_latency 1
core_0_itlb_fill_latency 1
core_0_itlb_max_tag_check 2
core_0_itlb_max_fill 2
core_0_dtlb_set 16
core_0_dtlb_way 4
core_0_dtlb_rq_size 16
core_0_dtlb_wq_size 16
core_0_dtlb_pq_size 0
core_0_dtlb_mshr_size 8
core_0_dtlb_hit_latency 1
core_0_dtlb_fill_latency 1
core_0_dtlb_max_tag_check 2
core_0_dtlb_max_fill 2
core_0_stlb_set 128
core_0_stlb_way 12
core_0_stlb_rq_size 32
core_0_stlb_wq_size 32
core_0_stlb_pq_size 0
core_0_stlb_mshr_size 16
core_0_stlb_hit_latency 4
core_0_stlb_fill_latency 4
core_0_stlb_max_tag_check 1
core_0_stlb_max_fill 1
core_0_l1i_set 64
core_0_l1i_way 8
core_0_l1i_rq_size 64
core_0_l1i_wq_size 64
core_0_l1i_pq_size 32
core_0_l1i_mshr_size 8
core_0_l1i_hit_latency 2
core_0_l1i_fill_latency 2
core_0_l1i_max_tag_check 2
core_0_l1i_max_fill 2
core_0_l1d_set 64
core_0_l1d_way 12
core_0_l1d_rq_size 64
core_0_l1d_wq_size 64
core_0_l1d_pq_size 8
core_0_l1d_mshr_size 16
core_0_l1d_hit_latency 2
core_0_l1d_fill_latency 3
core_0_l1d_max_tag_check 2
core_0_l1d_max_fill 2
core_0_l2c_set 1024
core_0_l2c_way 8
core_0_l2c_rq_size 32
core_0_l2c_wq_size 32
core_0_l2c_pq_size 16
core_0_l2c_mshr_size 32
core_0_l2c_hit_latency 5
core_0_l2c_fill_latency 5
core_0_l2c_max_tag_check 1
core_0_l2c_max_fill 1
llc_set 2048
llc_way 16
llc_rq_size 32
llc_wq_size 32
llc_pq_size 32
llc_mshr_size 64
llc_hit_latency 10
llc_fill_latency 10
llc_max_tag_check 1
llc_max_fill 1
dram_channels 1
dram_ranks 1
dram_bankgroups 8
dram_banks 4
dram_rows 65536
dram_columns 1024
dram_channel_width 8
dram_rq_size 64
dram_wq_size 64
dram_size 17179869184
core_0_itlb_prefetcher no
core_0_dtlb_prefetcher no
core_0_stlb_prefetcher no
core_0_l1i_prefetcher next_line
core_0_l1d_prefetcher vberti
core_0_l2c_prefetcher ip_stride
llc_prefetcher no
llc_replacement drrip

Core_0_instructions 100000001
Core_0_cycles 160047375
Core_0_IPC 0.624815
Core_0_branch_prediction_accuracy 98.9588
Core_0_branch_MPKI 1.19245
Core_0_average_ROB_occupancy_at_mispredict 171.917

Core_0_ITLB_total_access 13988683
Core_0_ITLB_total_hit 13988683
Core_0_ITLB_total_miss 0
Core_0_ITLB_total_MPKI 0
Core_0_ITLB_total_miss_rate 0
Core_0_ITLB_demand_access 13988683
Core_0_ITLB_demand_hit 13988683
Core_0_ITLB_demand_miss 0
Core_0_ITLB_demand_MPKI 0
Core_0_ITLB_demand_miss_rate 0
Core_0_ITLB_load_access 13988683
Core_0_ITLB_load_hit 13988683
Core_0_ITLB_load_miss 0
Core_0_ITLB_load_MPKI 0
Core_0_ITLB_load_miss_rate 0
Core_0_ITLB_rfo_access 0
Core_0_ITLB_rfo_hit 0
Core_0_ITLB_rfo_miss 0
Core_0_ITLB_rfo_MPKI 0
Core_0_ITLB_rfo_miss_rate 0
Core_0_ITLB_prefetch_access 0
Core_0_ITLB_prefetch_hit 0
Core_0_ITLB_prefetch_miss 0
Core_0_ITLB_prefetch_MPKI 0
Core_0_ITLB_prefetch_miss_rate 0
Core_0_ITLB_writeback_access 0
Core_0_ITLB_writeback_hit 0
Core_0_ITLB_writeback_miss 0
Core_0_ITLB_writeback_MPKI 0
Core_0_ITLB_writeback_miss_rate 0
Core_0_ITLB_prefetch_requested 0
Core_0_ITLB_prefetch_issued 0
Core_0_ITLB_prefetch_useful 0
Core_0_ITLB_prefetch_useless 0
Core_0_ITLB_prefetch_late 0
Core_0_ITLB_prefetch_fill 0
Core_0_ITLB_prefetch_too_early 0
Core_0_ITLB_prefetch_too_early_among_fill 0
Core_0_ITLB_prefetch_too_early_among_useless 0
Core_0_ITLB_prefetch_pollution_evict 0
Core_0_ITLB_prefetch_pollution_demand 0
Core_0_ITLB_prefetch_pollution_among_prefetch_fill 0
Core_0_ITLB_prefetch_accuracy 0
Core_0_ITLB_prefetch_coverage 0

Core_0_DTLB_total_access 59293059
Core_0_DTLB_total_hit 58745175
Core_0_DTLB_total_miss 547884
Core_0_DTLB_total_MPKI 5.47884
Core_0_DTLB_total_miss_rate 0.00924027
Core_0_DTLB_demand_access 59293059
Core_0_DTLB_demand_hit 58745175
Core_0_DTLB_demand_miss 547884
Core_0_DTLB_demand_MPKI 5.47884
Core_0_DTLB_demand_miss_rate 0.00924027
Core_0_DTLB_load_access 59293059
Core_0_DTLB_load_hit 58745175
Core_0_DTLB_load_miss 547884
Core_0_DTLB_load_MPKI 5.47884
Core_0_DTLB_load_miss_rate 0.00924027
Core_0_DTLB_rfo_access 0
Core_0_DTLB_rfo_hit 0
Core_0_DTLB_rfo_miss 0
Core_0_DTLB_rfo_MPKI 0
Core_0_DTLB_rfo_miss_rate 0
Core_0_DTLB_prefetch_access 0
Core_0_DTLB_prefetch_hit 0
Core_0_DTLB_prefetch_miss 0
Core_0_DTLB_prefetch_MPKI 0
Core_0_DTLB_prefetch_miss_rate 0
Core_0_DTLB_writeback_access 0
Core_0_DTLB_writeback_hit 0
Core_0_DTLB_writeback_miss 0
Core_0_DTLB_writeback_MPKI 0
Core_0_DTLB_writeback_miss_rate 0
Core_0_DTLB_prefetch_requested 0
Core_0_DTLB_prefetch_issued 0
Core_0_DTLB_prefetch_useful 0
Core_0_DTLB_prefetch_useless 0
Core_0_DTLB_prefetch_late 0
Core_0_DTLB_prefetch_fill 0
Core_0_DTLB_prefetch_too_early 0
Core_0_DTLB_prefetch_too_early_among_fill 0
Core_0_DTLB_prefetch_too_early_among_useless 0
Core_0_DTLB_prefetch_pollution_evict 0
Core_0_DTLB_prefetch_pollution_demand 0
Core_0_DTLB_prefetch_pollution_among_prefetch_fill 0
Core_0_DTLB_prefetch_accuracy 0
Core_0_DTLB_prefetch_coverage 0

Core_0_STLB_total_access 337689
Core_0_STLB_total_hit 243298
Core_0_STLB_total_miss 94391
Core_0_STLB_total_MPKI 0.94391
Core_0_STLB_total_miss_rate 0.279521
Core_0_STLB_demand_access 337689
Core_0_STLB_demand_hit 243298
Core_0_STLB_demand_miss 94391
Core_0_STLB_demand_MPKI 0.94391
Core_0_STLB_demand_miss_rate 0.279521
Core_0_STLB_load_access 337689
Core_0_STLB_load_hit 243298
Core_0_STLB_load_miss 94391
Core_0_STLB_load_MPKI 0.94391
Core_0_STLB_load_miss_rate 0.279521
Core_0_STLB_rfo_access 0
Core_0_STLB_rfo_hit 0
Core_0_STLB_rfo_miss 0
Core_0_STLB_rfo_MPKI 0
Core_0_STLB_rfo_miss_rate 0
Core_0_STLB_prefetch_access 0
Core_0_STLB_prefetch_hit 0
Core_0_STLB_prefetch_miss 0
Core_0_STLB_prefetch_MPKI 0
Core_0_STLB_prefetch_miss_rate 0
Core_0_STLB_writeback_access 0
Core_0_STLB_writeback_hit 0
Core_0_STLB_writeback_miss 0
Core_0_STLB_writeback_MPKI 0
Core_0_STLB_writeback_miss_rate 0
Core_0_STLB_prefetch_requested 0
Core_0_STLB_prefetch_issued 0
Core_0_STLB_prefetch_useful 0
Core_0_STLB_prefetch_useless 0
Core_0_STLB_prefetch_late 0
Core_0_STLB_prefetch_fill 0
Core_0_STLB_prefetch_too_early 0
Core_0_STLB_prefetch_too_early_among_fill 0
Core_0_STLB_prefetch_too_early_among_useless 0
Core_0_STLB_prefetch_pollution_evict 0
Core_0_STLB_prefetch_pollution_demand 0
Core_0_STLB_prefetch_pollution_among_prefetch_fill 0
Core_0_STLB_prefetch_accuracy 0
Core_0_STLB_prefetch_coverage 0

Core_0_L1I_total_access 16436594
Core_0_L1I_total_hit 16436594
Core_0_L1I_total_miss 0
Core_0_L1I_total_MPKI 0
Core_0_L1I_total_miss_rate 0
Core_0_L1I_demand_access 16436594
Core_0_L1I_demand_hit 16436594
Core_0_L1I_demand_miss 0
Core_0_L1I_demand_MPKI 0
Core_0_L1I_demand_miss_rate 0
Core_0_L1I_load_access 16436594
Core_0_L1I_load_hit 16436594
Core_0_L1I_load_miss 0
Core_0_L1I_load_MPKI 0
Core_0_L1I_load_miss_rate 0
Core_0_L1I_rfo_access 0
Core_0_L1I_rfo_hit 0
Core_0_L1I_rfo_miss 0
Core_0_L1I_rfo_MPKI 0
Core_0_L1I_rfo_miss_rate 0
Core_0_L1I_prefetch_access 0
Core_0_L1I_prefetch_hit 0
Core_0_L1I_prefetch_miss 0
Core_0_L1I_prefetch_MPKI 0
Core_0_L1I_prefetch_miss_rate 0
Core_0_L1I_writeback_access 0
Core_0_L1I_writeback_hit 0
Core_0_L1I_writeback_miss 0
Core_0_L1I_writeback_MPKI 0
Core_0_L1I_writeback_miss_rate 0
Core_0_L1I_prefetch_requested 0
Core_0_L1I_prefetch_issued 0
Core_0_L1I_prefetch_useful 0
Core_0_L1I_prefetch_useless 0
Core_0_L1I_prefetch_late 0
Core_0_L1I_prefetch_fill 0
Core_0_L1I_prefetch_too_early 0
Core_0_L1I_prefetch_too_early_among_fill 0
Core_0_L1I_prefetch_too_early_among_useless 0
Core_0_L1I_prefetch_pollution_evict 0
Core_0_L1I_prefetch_pollution_demand 0
Core_0_L1I_prefetch_pollution_among_prefetch_fill 0
Core_0_L1I_prefetch_accuracy 0
Core_0_L1I_prefetch_coverage 0

Core_0_L1D_total_access 68570879
Core_0_L1D_total_hit 54630024
Core_0_L1D_total_miss 13940855
Core_0_L1D_total_MPKI 139.409
Core_0_L1D_total_miss_rate 0.203306
Core_0_L1D_demand_access 25678476
Core_0_L1D_demand_hit 22896182
Core_0_L1D_demand_miss 2782294
Core_0_L1D_demand_MPKI 27.8229
Core_0_L1D_demand_miss_rate 0.108351
Core_0_L1D_load_access 25678476
Core_0_L1D_load_hit 22896182
Core_0_L1D_load_miss 2782294
Core_0_L1D_load_MPKI 27.8229
Core_0_L1D_load_miss_rate 0.108351
Core_0_L1D_rfo_access 0
Core_0_L1D_rfo_hit 0
Core_0_L1D_rfo_miss 0
Core_0_L1D_rfo_MPKI 0
Core_0_L1D_rfo_miss_rate 0
Core_0_L1D_prefetch_access 18651540
Core_0_L1D_prefetch_hit 7797619
Core_0_L1D_prefetch_miss 10853921
Core_0_L1D_prefetch_MPKI 108.539
Core_0_L1D_prefetch_miss_rate 0.581932
Core_0_L1D_writeback_access 24240863
Core_0_L1D_writeback_hit 23936223
Core_0_L1D_writeback_miss 304640
Core_0_L1D_writeback_MPKI 3.0464
Core_0_L1D_writeback_miss_rate 0.0125672
Core_0_L1D_prefetch_requested 88063748
Core_0_L1D_prefetch_issued 18651532
Core_0_L1D_prefetch_useful 2692950
Core_0_L1D_prefetch_useless 153348
Core_0_L1D_prefetch_late 366469
Core_0_L1D_prefetch_fill 2479837
Core_0_L1D_prefetch_too_early 121
Core_0_L1D_prefetch_too_early_among_fill 4.87935e-05
Core_0_L1D_prefetch_too_early_among_useless 0.000789055
Core_0_L1D_prefetch_pollution_evict 32297
Core_0_L1D_prefetch_pollution_demand 32260
Core_0_L1D_prefetch_pollution_among_prefetch_fill 0.0130238
Core_0_L1D_prefetch_accuracy 0.144382
Core_0_L1D_prefetch_coverage 0.491841

Core_0_L2C_total_access 14552334
Core_0_L2C_total_hit 5954196
Core_0_L2C_total_miss 8598138
Core_0_L2C_total_MPKI 85.9814
Core_0_L2C_total_miss_rate 0.590843
Core_0_L2C_demand_access 2302576
Core_0_L2C_demand_hit 1410522
Core_0_L2C_demand_miss 892054
Core_0_L2C_demand_MPKI 8.92054
Core_0_L2C_demand_miss_rate 0.387416
Core_0_L2C_load_access 2195572
Core_0_L2C_load_hit 1347229
Core_0_L2C_load_miss 848343
Core_0_L2C_load_MPKI 8.48343
Core_0_L2C_load_miss_rate 0.386388
Core_0_L2C_rfo_access 107004
Core_0_L2C_rfo_hit 63293
Core_0_L2C_rfo_miss 43711
Core_0_L2C_rfo_MPKI 0.43711
Core_0_L2C_rfo_miss_rate 0.408499
Core_0_L2C_prefetch_access 11736961
Core_0_L2C_prefetch_hit 4033805
Core_0_L2C_prefetch_miss 7703156
Core_0_L2C_prefetch_MPKI 77.0316
Core_0_L2C_prefetch_miss_rate 0.656316
Core_0_L2C_writeback_access 512797
Core_0_L2C_writeback_hit 509869
Core_0_L2C_writeback_miss 2928
Core_0_L2C_writeback_MPKI 0.02928
Core_0_L2C_writeback_miss_rate 0.00570986
Core_0_L2C_prefetch_requested 1988180
Core_0_L2C_prefetch_issued 1297127
Core_0_L2C_prefetch_useful 118115
Core_0_L2C_prefetch_useless 57729
Core_0_L2C_prefetch_late 2844
Core_0_L2C_prefetch_fill 4652088
Core_0_L2C_prefetch_too_early 2037
Core_0_L2C_prefetch_too_early_among_fill 0.000437868
Core_0_L2C_prefetch_too_early_among_useless 0.0352856
Core_0_L2C_prefetch_pollution_evict 3932
Core_0_L2C_prefetch_pollution_demand 3931
Core_0_L2C_prefetch_pollution_among_prefetch_fill 0.000845212
Core_0_L2C_prefetch_accuracy 0.0910589
Core_0_L2C_prefetch_coverage 0.116926

Core_0_LLC_total_access 6406917
Core_0_LLC_total_hit 1701229
Core_0_LLC_total_miss 4705688
Core_0_LLC_total_MPKI 47.0569
Core_0_LLC_total_miss_rate 0.73447
Core_0_LLC_demand_access 559510
Core_0_LLC_demand_hit 89879
Core_0_LLC_demand_miss 469631
Core_0_LLC_demand_MPKI 4.69631
Core_0_LLC_demand_miss_rate 0.839361
Core_0_LLC_load_access 520196
Core_0_LLC_load_hit 87769
Core_0_LLC_load_miss 432427
Core_0_LLC_load_MPKI 4.32427
Core_0_LLC_load_miss_rate 0.831277
Core_0_LLC_rfo_access 39314
Core_0_LLC_rfo_hit 2110
Core_0_LLC_rfo_miss 37204
Core_0_LLC_rfo_MPKI 0.37204
Core_0_LLC_rfo_miss_rate 0.94633
Core_0_LLC_prefetch_access 5403525
Core_0_LLC_prefetch_hit 1532657
Core_0_LLC_prefetch_miss 3870868
Core_0_LLC_prefetch_MPKI 38.7087
Core_0_LLC_prefetch_miss_rate 0.71636
Core_0_LLC_writeback_access 443882
Core_0_LLC_writeback_hit 78693
Core_0_LLC_writeback_miss 365189
Core_0_LLC_writeback_MPKI 3.65189
Core_0_LLC_writeback_miss_rate 0.822716
Core_0_LLC_prefetch_requested 0
Core_0_LLC_prefetch_issued 0
Core_0_LLC_prefetch_useful 0
Core_0_LLC_prefetch_useless 0
Core_0_LLC_prefetch_late 0
Core_0_LLC_prefetch_fill 3751313
Core_0_LLC_prefetch_too_early 0
Core_0_LLC_prefetch_too_early_among_fill 0
Core_0_LLC_prefetch_too_early_among_useless 0
Core_0_LLC_prefetch_pollution_evict 11429
Core_0_LLC_prefetch_pollution_demand 11429
Core_0_LLC_prefetch_pollution_among_prefetch_fill 0.00304667
Core_0_LLC_prefetch_accuracy 0
Core_0_LLC_prefetch_coverage 0

[DRAM Statistics]
Channel_0_RQ_row_buffer_hit 251800
Channel_0_RQ_row_buffer_miss 3984386
Channel_0_WQ_row_buffer_hit 41290
Channel_0_WQ_row_buffer_miss 395971
Channel_0_WQ_full 0
Channel_0_dbus_congested 11944370
DRAM_total_RQ_row_buffer_hit 251800
DRAM_total_RQ_row_buffer_miss 3984386
DRAM_total_WQ_row_buffer_hit 41290
DRAM_total_WQ_row_buffer_miss 395971
DRAM_total_WQ_full 0
DRAM_total_dbus_congested 11944370
DRAM_avg_congested_cycle 5.18898

====== DRAM_RQ_TRAFFIC ========
DRAM_RQ_READ_TRAFFIC_BREAKDOWN:
data_demand_read.count = 466497
data_demand_read.share = 11.01%

inst_demand_read.count = 0
inst_demand_read.share = 0.00%

cache_inst_prefetch.count = 0
cache_inst_prefetch.share = 0.00%

cache_data_prefetch.count = 3754448
cache_data_prefetch.share = 88.63%

stlb_data_demand.count = 2809
stlb_data_demand.share = 0.07%

stlb_inst_demand.count = 0
stlb_inst_demand.share = 0.00%

stlb_l1i_pref.count = 0
stlb_l1i_pref.share = 0.00%

stlb_l1d_pref.count = 12457
stlb_l1d_pref.share = 0.29%

DRAM_RQ_READ_TRAFFIC_SUMMARY:
cache_demand.count = 466497
cache_demand.share = 11.01%

cache_prefetch.count = 3754448
cache_prefetch.share = 88.63%

stlb_demand.count = 2809
stlb_demand.share = 0.07%

stlb_prefetch.count = 12457
stlb_prefetch.share = 0.29%

DRAM_RQ_READ_TRAFFIC_DEBUG:
total_classified_read.count = 4236211
unclassified_read.count = 0
total_read_with_other.count = 4236211

classified_plus_unclassified_check.count = 4236211
dram_rq_read_total_observed.count = 4236211
dram_rq_read_total_observed.per_1K_instructions = 42.3621

STLB_MISS_PTW_DRAM_TOUCH_BREAKDOWN:
stlb_miss_total.count = 91943

stlb_miss_touch_dram.count = 15182
stlb_miss_touch_dram.share = 16.51%

stlb_miss_no_dram_touch.count = 76761
stlb_miss_no_dram_touch.share = 83.49%

STLB_MISS_PTW_DRAM_TOUCH_DEBUG:
stlb_miss_touch_plus_no_touch.count = 91943
stlb_miss_total_check.count = 91943

======STLB miss causes ========
Core_0_STLB_miss_cause_breakdown
Core_0_STLB_cause_Demand_Data_miss 14473
Core_0_STLB_cause_Demand_Data_miss_rate 0.042859
Core_0_STLB_cause_Demand_Instruction_miss 0
Core_0_STLB_cause_Demand_Instruction_miss_rate 0
Core_0_STLB_cause_L1D_Prefetch_miss 79918
Core_0_STLB_cause_L1D_Prefetch_miss_rate 0.236662
Core_0_STLB_cause_L1D_Prefetch_Same_Page_miss 0
Core_0_STLB_cause_L1D_Prefetch_Same_Page_miss_rate 0
Core_0_STLB_cause_L1D_Prefetch_Cross_Page_miss 79918
Core_0_STLB_cause_L1D_Prefetch_Cross_Page_miss_rate 0.236662
Core_0_STLB_cause_L1I_Prefetch_miss 0
Core_0_STLB_cause_L1I_Prefetch_miss_rate 0
Core_0_STLB_cause_Other_miss 0
Core_0_STLB_cause_Other_miss_rate 0
Core_0_STLB_Demand_miss 14473
Core_0_STLB_Demand_miss_rate 0.042859
Core_0_STLB_L1D_Prefetch_miss 79918
Core_0_STLB_L1D_Prefetch_miss_rate 0.236662
Core_0_STLB_Other_miss 0
Core_0_STLB_Other_miss_rate 0

========== vBerti-TLB Cross-page Flow Stats ==========

Core_0_vBerti_Requested 88063748
Core_0_vBerti_Cross_page_prefetch_in_Requested 26104704
Core_0_vBerti_Same_page_prefetch_in_Requested 61959044
Core_0_vBerti_Cross_page_prefetch_of_Requested 0.29643
Core_0_vBerti_Issued 18651532
Core_0_vBerti_PQ_Drop_Rate 0.788204
Core_0_vBerti_InPQ_Cross_page_prefetch_of_Requested 0.05155
Core_0_vBerti_Cross_page_PQ_Drop_rate 0.826097
Core_0_vBerti_Cross_page_prefetch_of_Issued 0.243395

========= DTLB_vBerti Prefetch Stats =========
Core_0_DTLB_demand_access 45358489
Core_0_DTLB_demand_hit 45120281
Core_0_DTLB_demand_miss 238208
Core_0_DTLB_demand_mshr_merge 29933
Core_0_DTLB_demand_fill 209690
Core_0_DTLB_demand_miss_rate 0.00525167
Core_0_DTLB_demand_mpki 2.38208
Core_0_DTLB_vberti_prefetch_access 13934570
Core_0_DTLB_vberti_prefetch_hit 13624894
Core_0_DTLB_vberti_prefetch_miss 309676
Core_0_DTLB_vberti_prefetch_mshr_merge 180262
Core_0_DTLB_vberti_prefetch_fill 127999
Core_0_DTLB_vberti_prefetch_miss_rate 0.0222236
Core_0_DTLB_vberti_prefetch_mpki 3.09676

=== DTLB_vBerti Same/Cross-page Prefetch Stats ===
Core_0_DTLB_vberti_same_page_prefetch 10440782
Core_0_DTLB_vberti_same_page_prefetch_hit 10440747
Core_0_DTLB_vberti_same_page_prefetch_miss 35
Core_0_DTLB_vberti_same_page_prefetch_mshr_merge 16
Core_0_DTLB_vberti_same_page_prefetch_fill 17
Core_0_DTLB_vberti_same_page_prefetch_miss_rate 3.35224e-06
Core_0_DTLB_vberti_same_page_prefetch_mpki 0.00035
Core_0_DTLB_vberti_cross_page_prefetch 3493788
Core_0_DTLB_vberti_cross_page_prefetch_hit 3184147
Core_0_DTLB_vberti_cross_page_prefetch_miss 309641
Core_0_DTLB_vberti_cross_page_prefetch_mshr_merge 180246
Core_0_DTLB_vberti_cross_page_prefetch_fill 127982
Core_0_DTLB_vberti_cross_page_prefetch_miss_rate 0.0886262
Core_0_DTLB_vberti_cross_page_prefetch_mpki 3.09641
Core_0_DTLB_same_page_prefetch_miss_rate 3.35224e-06
Core_0_DTLB_same_page_prefetch_mpki 0.00035
Core_0_DTLB_cross_page_prefetch_miss_rate 0.0886262
Core_0_DTLB_cross_page_prefetch_mpki 3.09641
Core_0_DTLB_cross_page_prefetch_issued 3493788
Core_0_DTLB_cross_page_prefetch_lookups 3493788
Core_0_DTLB_cross_page_prefetch_useful 116165
Core_0_DTLB_cross_page_prefetch_useless 13230
Core_0_DTLB_cross_page_prefetch_late 1413
Core_0_DTLB_cross_page_prefetch_too_early 962
Core_0_DTLB_cross_page_prefetch_too_early_among_fill 0.00751668
Core_0_DTLB_cross_page_prefetch_too_early_among_useless 0.0727135
Core_0_DTLB_cross_page_prefetch_pollution_evict 20267
Core_0_DTLB_cross_page_prefetch_pollution_demand 19749
Core_0_DTLB_cross_page_prefetch_pollution_among_prefetch_fill 0.158358
Core_0_DTLB_cross_page_prefetch_accuracy 0.033249
Core_0_DTLB_cross_page_prefetch_coverage 0.327804

========= STLB_vBerti Prefetch Stats =========
Core_0_STLB_demand_access 208275
Core_0_STLB_demand_hit 193802
Core_0_STLB_demand_miss 14473
Core_0_STLB_demand_mshr_merge 0
Core_0_STLB_demand_fill 14473
Core_0_STLB_demand_miss_rate 0.0694899
Core_0_STLB_demand_mpki 0.14473
Core_0_STLB_vberti_prefetch_access 129414
Core_0_STLB_vberti_prefetch_hit 49496
Core_0_STLB_vberti_prefetch_miss 79918
Core_0_STLB_vberti_prefetch_mshr_merge 0
Core_0_STLB_vberti_prefetch_fill 0
Core_0_STLB_vberti_prefetch_miss_rate 0.617538
Core_0_STLB_vberti_prefetch_mpki 0.79918

=== STLB_vBerti Same/Cross-page Prefetch Stats ===
Core_0_STLB_vberti_same_page_prefetch 19
Core_0_STLB_vberti_same_page_prefetch_hit 19
Core_0_STLB_vberti_same_page_prefetch_miss 0
Core_0_STLB_vberti_same_page_prefetch_mshr_merge 0
Core_0_STLB_vberti_same_page_prefetch_fill 0
Core_0_STLB_vberti_same_page_prefetch_miss_rate 0
Core_0_STLB_vberti_same_page_prefetch_mpki 0
Core_0_STLB_vberti_cross_page_prefetch 129395
Core_0_STLB_vberti_cross_page_prefetch_hit 49477
Core_0_STLB_vberti_cross_page_prefetch_miss 79918
Core_0_STLB_vberti_cross_page_prefetch_mshr_merge 0
Core_0_STLB_vberti_cross_page_prefetch_fill 0
Core_0_STLB_vberti_cross_page_prefetch_miss_rate 0.617628
Core_0_STLB_vberti_cross_page_prefetch_mpki 0.79918
Core_0_STLB_same_page_prefetch_miss_rate 0
Core_0_STLB_same_page_prefetch_mpki 0
Core_0_STLB_cross_page_prefetch_miss_rate 0.617628
Core_0_STLB_cross_page_prefetch_mpki 0.79918
Core_0_STLB_cross_page_prefetch_issued 129395
Core_0_STLB_cross_page_prefetch_lookups 129395
Core_0_STLB_cross_page_prefetch_useful 2448
Core_0_STLB_cross_page_prefetch_useless 60212
Core_0_STLB_cross_page_prefetch_late 2448
Core_0_STLB_cross_page_prefetch_too_early 0
Core_0_STLB_cross_page_prefetch_too_early_among_fill 0
Core_0_STLB_cross_page_prefetch_too_early_among_useless 0
Core_0_STLB_cross_page_prefetch_pollution_evict 0
Core_0_STLB_cross_page_prefetch_pollution_demand 0
Core_0_STLB_cross_page_prefetch_pollution_among_prefetch_fill 0
Core_0_STLB_cross_page_prefetch_accuracy 0.0189188
Core_0_STLB_cross_page_prefetch_coverage 0.144672

========= STLB Cross-page Prefetch Buffer Stats =========
Core_0_STLB_raw_demand_miss 14473
Core_0_CP_PB_insert 79918
Core_0_CP_PB_demand_hit 2448
Core_0_STLB_PB_demand_miss 12025
Core_0_CP_PB_coverage 0.169143
Core_0_STLB_raw_demand_mpki 0.14473
Core_0_STLB_PB_demand_mpki 0.12025
Core_0_CP_PB_demand_hit_mpki 0.02448

Core_0_TLB_demand_miss_rate 0.00031908
Core_0_TLB_demand_mpki 0.14473
Core_0_TLB_same_page_prefetch_miss_rate 0
Core_0_TLB_same_page_prefetch_mpki 0
Core_0_TLB_cross_page_prefetch_miss_rate 0.0228743
Core_0_TLB_cross_page_prefetch_mpki 0.79918
Core_0_TLB_cross_page_prefetch_issued 3493788
Core_0_TLB_cross_page_prefetch_lookups 3493788
Core_0_TLB_cross_page_prefetch_useful 6124
Core_0_TLB_cross_page_prefetch_useless 7773
Core_0_TLB_cross_page_prefetch_late 210
Core_0_TLB_cross_page_prefetch_too_early 330
Core_0_TLB_cross_page_prefetch_too_early_among_fill 0.00257849
Core_0_TLB_cross_page_prefetch_too_early_among_useless 0.0424547
Core_0_TLB_cross_page_prefetch_accuracy 0.00175283
Core_0_TLB_cross_page_prefetch_coverage 0.297325
BERTI TO_L1: 49459551 TO_L2: 73051577 TO_L2_BC_MSHR: 16743831
BERTI AVG_LAT: 101.54 NUM_TRACK_LATENCY: 7894323 NUM_CANT_TRACK_LATENCY: 71
BERTI CROSS_PAGE 37928812 NO_CROSS_PAGE: 84582316
BERTI FOUND_BERTI: 26991354 NO_FOUND_BERTI: 41917896
BERTI AVERAGE_ISSUED: 2.40768
