[VMEM] WARNING: physical memory size is smaller than virtual memory size.

*** ChampSim Multicore Out-of-Order Simulator ***
Warmup Instructions: 50000000
Simulation Instructions: 100000000
Number of CPUs: 1
Page size: 4096
Core 0: /data0/tzh/champsim_traces/SPEC17/620.omnetpp_s-141B.champsimtrace.xz
VBerti Prefetcher
BERTI HASH ENTANGLING
BERTI IP MASK ffff
Off-chip DRAM Size: 16 GiB Channels: 1 Width: 64-bit Data Rate: 3205 MT/s
Warmup halting CPU 0 at instruction 50000001 cycle 17267756 for remainder of phase
Warmup finished CPU 0 instructions: 50000001 cycles: 17267756 cumulative IPC: 2.896 (Simulation time: 00 hr 04 min 13 sec)
Warmup complete CPU 0 instructions: 50000001 cycles: 17267756 cumulative IPC: 2.896 (Simulation time: 00 hr 04 min 13 sec)
Simulation finished CPU 0 instructions: 100000002 cycles: 213771505 cumulative IPC: 0.4678 (Simulation time: 00 hr 27 min 32 sec)
Simulation complete CPU 0 instructions: 100000002 cycles: 213771505 cumulative IPC: 0.4678 (Simulation time: 00 hr 27 min 32 sec)

ChampSim completed all CPUs

=== Simulation ===
CPU 0 runs /data0/tzh/champsim_traces/SPEC17/620.omnetpp_s-141B.champsimtrace.xz

Region of Interest Statistics

CPU 0 cumulative IPC: 0.4678 instructions: 100000002 cycles: 213771505
CPU 0 Branch Prediction Accuracy: 95.75% MPKI: 8.935 Average ROB Occupancy at Mispredict: 79.77
Branch type MPKI
BRANCH_DIRECT_JUMP: 0.8347
BRANCH_INDIRECT: 0.3618
BRANCH_CONDITIONAL: 6.452
BRANCH_DIRECT_CALL: 5e-05
BRANCH_INDIRECT_CALL: 0.8507
BRANCH_RETURN: 0.4358

cpu0->cpu0_STLB TOTAL        ACCESS:    2274484 HIT:    1774024 MISS:     500460 MSHR_MERGE:          0
cpu0->cpu0_STLB LOAD         ACCESS:    2274484 HIT:    1774024 MISS:     500460 MSHR_MERGE:          0
cpu0->cpu0_STLB RFO          ACCESS:          0 HIT:          0 MISS:          0 MSHR_MERGE:          0
cpu0->cpu0_STLB PREFETCH     ACCESS:          0 HIT:          0 MISS:          0 MSHR_MERGE:          0
cpu0->cpu0_STLB WRITE        ACCESS:          0 HIT:          0 MISS:          0 MSHR_MERGE:          0
cpu0->cpu0_STLB TRANSLATION  ACCESS:          0 HIT:          0 MISS:          0 MSHR_MERGE:          0
cpu0->cpu0_STLB PREFETCH REQUESTED:          0 ISSUED:          0 USEFUL:          0 USELESS:          0 LATE:          0 TOO_EARLY:          0
cpu0->cpu0_STLB AVERAGE MISS LATENCY: 53.07 cycles
cpu0->cpu0_L2C TOTAL        ACCESS:    3430007 HIT:    1679703 MISS:    1750304 MSHR_MERGE:       1334
cpu0->cpu0_L2C LOAD         ACCESS:    1748593 HIT:     521632 MISS:    1226961 MSHR_MERGE:        159
cpu0->cpu0_L2C RFO          ACCESS:     236941 HIT:      51885 MISS:     185056 MSHR_MERGE:          0
cpu0->cpu0_L2C PREFETCH     ACCESS:      70776 HIT:      21598 MISS:      49178 MSHR_MERGE:       1175
cpu0->cpu0_L2C WRITE        ACCESS:     941555 HIT:     939667 MISS:       1888 MSHR_MERGE:          0
cpu0->cpu0_L2C TRANSLATION  ACCESS:     432142 HIT:     144921 MISS:     287221 MSHR_MERGE:          0
cpu0->cpu0_L2C PREFETCH REQUESTED:      24285 ISSUED:      24285 USEFUL:       7375 USELESS:       5418 LATE:          1 TOO_EARLY:       1515
cpu0->cpu0_L2C AVERAGE MISS LATENCY: 143 cycles
cpu0->cpu0_L1I TOTAL        ACCESS:   14799370 HIT:   14717692 MISS:      81678 MSHR_MERGE:      21348
cpu0->cpu0_L1I LOAD         ACCESS:   14799370 HIT:   14717692 MISS:      81678 MSHR_MERGE:      21348
cpu0->cpu0_L1I RFO          ACCESS:          0 HIT:          0 MISS:          0 MSHR_MERGE:          0
cpu0->cpu0_L1I PREFETCH     ACCESS:          0 HIT:          0 MISS:          0 MSHR_MERGE:          0
cpu0->cpu0_L1I WRITE        ACCESS:          0 HIT:          0 MISS:          0 MSHR_MERGE:          0
cpu0->cpu0_L1I TRANSLATION  ACCESS:          0 HIT:          0 MISS:          0 MSHR_MERGE:          0
cpu0->cpu0_L1I PREFETCH REQUESTED:          0 ISSUED:          0 USEFUL:          0 USELESS:          0 LATE:          0 TOO_EARLY:          0
cpu0->cpu0_L1I AVERAGE MISS LATENCY: 14.96 cycles
cpu0->cpu0_L1D TOTAL        ACCESS:   38344395 HIT:   34985648 MISS:    3358747 MSHR_MERGE:     954745
cpu0->cpu0_L1D LOAD         ACCESS:   19341453 HIT:   17156353 MISS:    2185100 MSHR_MERGE:     496836
cpu0->cpu0_L1D RFO          ACCESS:          0 HIT:          0 MISS:          0 MSHR_MERGE:          0
cpu0->cpu0_L1D PREFETCH     ACCESS:      49722 HIT:       2821 MISS:      46901 MSHR_MERGE:        252
cpu0->cpu0_L1D WRITE        ACCESS:   17780943 HIT:   17087633 MISS:     693310 MSHR_MERGE:     456363
cpu0->cpu0_L1D TRANSLATION  ACCESS:    1172277 HIT:     738841 MISS:     433436 MSHR_MERGE:       1294
cpu0->cpu0_L1D PREFETCH REQUESTED:      49724 ISSUED:      49722 USEFUL:       1415 USELESS:       2302 LATE:         39 TOO_EARLY:        310
cpu0->cpu0_L1D AVERAGE MISS LATENCY: 111.8 cycles
cpu0->cpu0_ITLB TOTAL        ACCESS:   13132134 HIT:   12815879 MISS:     316255 MSHR_MERGE:     159392
cpu0->cpu0_ITLB LOAD         ACCESS:   13132134 HIT:   12815879 MISS:     316255 MSHR_MERGE:     159392
cpu0->cpu0_ITLB RFO          ACCESS:          0 HIT:          0 MISS:          0 MSHR_MERGE:          0
cpu0->cpu0_ITLB PREFETCH     ACCESS:          0 HIT:          0 MISS:          0 MSHR_MERGE:          0
cpu0->cpu0_ITLB WRITE        ACCESS:          0 HIT:          0 MISS:          0 MSHR_MERGE:          0
cpu0->cpu0_ITLB TRANSLATION  ACCESS:          0 HIT:          0 MISS:          0 MSHR_MERGE:          0
cpu0->cpu0_ITLB PREFETCH REQUESTED:          0 ISSUED:          0 USEFUL:          0 USELESS:          0 LATE:          0 TOO_EARLY:          0
cpu0->cpu0_ITLB AVERAGE MISS LATENCY: 5.528 cycles
cpu0->cpu0_DTLB TOTAL        ACCESS:   35193769 HIT:   32619494 MISS:    2574275 MSHR_MERGE:     456654
cpu0->cpu0_DTLB LOAD         ACCESS:   35193769 HIT:   32619494 MISS:    2574275 MSHR_MERGE:     456654
cpu0->cpu0_DTLB RFO          ACCESS:          0 HIT:          0 MISS:          0 MSHR_MERGE:          0
cpu0->cpu0_DTLB PREFETCH     ACCESS:          0 HIT:          0 MISS:          0 MSHR_MERGE:          0
cpu0->cpu0_DTLB WRITE        ACCESS:          0 HIT:          0 MISS:          0 MSHR_MERGE:          0
cpu0->cpu0_DTLB TRANSLATION  ACCESS:          0 HIT:          0 MISS:          0 MSHR_MERGE:          0
cpu0->cpu0_DTLB PREFETCH REQUESTED:          0 ISSUED:          0 USEFUL:          0 USELESS:          0 LATE:          0 TOO_EARLY:          0
cpu0->cpu0_DTLB AVERAGE MISS LATENCY: 17.45 cycles
cpu0->LLC TOTAL        ACCESS:    2451526 HIT:    1240869 MISS:    1210657 MSHR_MERGE:          0
cpu0->LLC LOAD         ACCESS:    1226802 HIT:     289310 MISS:     937492 MSHR_MERGE:          0
cpu0->LLC RFO          ACCESS:     185056 HIT:      65093 MISS:     119963 MSHR_MERGE:          0
cpu0->LLC PREFETCH     ACCESS:      48003 HIT:       5069 MISS:      42934 MSHR_MERGE:          0
cpu0->LLC WRITE        ACCESS:     704444 HIT:     647989 MISS:      56455 MSHR_MERGE:          0
cpu0->LLC TRANSLATION  ACCESS:     287221 HIT:     233408 MISS:      53813 MSHR_MERGE:          0
cpu0->LLC PREFETCH REQUESTED:          0 ISSUED:          0 USEFUL:          0 USELESS:          0 LATE:          0 TOO_EARLY:          0
cpu0->LLC AVERAGE MISS LATENCY: 186 cycles

DRAM Statistics

Channel 0 RQ ROW_BUFFER_HIT:       6225
  ROW_BUFFER_MISS:    1147965
  AVG DBUS CONGESTED CYCLE: 17.83
Channel 0 WQ ROW_BUFFER_HIT:     142908
  ROW_BUFFER_MISS:     354528
  FULL:          0
Channel 0 REFRESHES ISSUED:      17815

[ROI Statistics]
[System Configuration]
num_cpus 1
cpu_freq 4000
fetch_width 6
decode_width 6
dispatch_width 6
execute_width 6
lq_width 2
sq_width 2
retire_width 6
scheduler_size 128
branch_mispredict_penalty 15
rob_size 352
lq_size 128
sq_size 72
ifetch_buffer_size 64
decode_buffer_size 32
dispatch_buffer_size 32
register_file_size 288
decode_latency 1
dispatch_latency 1
schedule_latency 1
execute_latency 1
page_size 4096
block_size 64
core_0_itlb_set 16
core_0_itlb_way 4
core_0_itlb_rq_size 16
core_0_itlb_wq_size 16
core_0_itlb_pq_size 0
core_0_itlb_mshr_size 8
core_0_itlb_hit_latency 1
core_0_itlb_fill_latency 1
core_0_itlb_max_tag_check 2
core_0_itlb_max_fill 2
core_0_dtlb_set 16
core_0_dtlb_way 4
core_0_dtlb_rq_size 16
core_0_dtlb_wq_size 16
core_0_dtlb_pq_size 0
core_0_dtlb_mshr_size 8
core_0_dtlb_hit_latency 1
core_0_dtlb_fill_latency 1
core_0_dtlb_max_tag_check 2
core_0_dtlb_max_fill 2
core_0_stlb_set 128
core_0_stlb_way 12
core_0_stlb_rq_size 32
core_0_stlb_wq_size 32
core_0_stlb_pq_size 0
core_0_stlb_mshr_size 16
core_0_stlb_hit_latency 4
core_0_stlb_fill_latency 4
core_0_stlb_max_tag_check 1
core_0_stlb_max_fill 1
core_0_l1i_set 64
core_0_l1i_way 8
core_0_l1i_rq_size 64
core_0_l1i_wq_size 64
core_0_l1i_pq_size 32
core_0_l1i_mshr_size 8
core_0_l1i_hit_latency 2
core_0_l1i_fill_latency 2
core_0_l1i_max_tag_check 2
core_0_l1i_max_fill 2
core_0_l1d_set 64
core_0_l1d_way 12
core_0_l1d_rq_size 64
core_0_l1d_wq_size 64
core_0_l1d_pq_size 8
core_0_l1d_mshr_size 16
core_0_l1d_hit_latency 2
core_0_l1d_fill_latency 3
core_0_l1d_max_tag_check 2
core_0_l1d_max_fill 2
core_0_l2c_set 1024
core_0_l2c_way 8
core_0_l2c_rq_size 32
core_0_l2c_wq_size 32
core_0_l2c_pq_size 16
core_0_l2c_mshr_size 32
core_0_l2c_hit_latency 5
core_0_l2c_fill_latency 5
core_0_l2c_max_tag_check 1
core_0_l2c_max_fill 1
llc_set 2048
llc_way 16
llc_rq_size 32
llc_wq_size 32
llc_pq_size 32
llc_mshr_size 64
llc_hit_latency 10
llc_fill_latency 10
llc_max_tag_check 1
llc_max_fill 1
dram_channels 1
dram_ranks 1
dram_bankgroups 8
dram_banks 4
dram_rows 65536
dram_columns 1024
dram_channel_width 8
dram_rq_size 64
dram_wq_size 64
dram_size 17179869184
core_0_itlb_prefetcher no
core_0_dtlb_prefetcher no
core_0_stlb_prefetcher no
core_0_l1i_prefetcher next_line
core_0_l1d_prefetcher vberti
core_0_l2c_prefetcher ip_stride
llc_prefetcher no
llc_replacement drrip

Core_0_instructions 100000002
Core_0_cycles 213771505
Core_0_IPC 0.467789
Core_0_branch_prediction_accuracy 95.7459
Core_0_branch_MPKI 8.9354
Core_0_average_ROB_occupancy_at_mispredict 79.7727

Core_0_ITLB_total_access 13132134
Core_0_ITLB_total_hit 12815879
Core_0_ITLB_total_miss 316255
Core_0_ITLB_total_MPKI 3.16255
Core_0_ITLB_total_miss_rate 0.0240825
Core_0_ITLB_demand_access 13132134
Core_0_ITLB_demand_hit 12815879
Core_0_ITLB_demand_miss 316255
Core_0_ITLB_demand_MPKI 3.16255
Core_0_ITLB_demand_miss_rate 0.0240825
Core_0_ITLB_load_access 13132134
Core_0_ITLB_load_hit 12815879
Core_0_ITLB_load_miss 316255
Core_0_ITLB_load_MPKI 3.16255
Core_0_ITLB_load_miss_rate 0.0240825
Core_0_ITLB_rfo_access 0
Core_0_ITLB_rfo_hit 0
Core_0_ITLB_rfo_miss 0
Core_0_ITLB_rfo_MPKI 0
Core_0_ITLB_rfo_miss_rate 0
Core_0_ITLB_prefetch_access 0
Core_0_ITLB_prefetch_hit 0
Core_0_ITLB_prefetch_miss 0
Core_0_ITLB_prefetch_MPKI 0
Core_0_ITLB_prefetch_miss_rate 0
Core_0_ITLB_writeback_access 0
Core_0_ITLB_writeback_hit 0
Core_0_ITLB_writeback_miss 0
Core_0_ITLB_writeback_MPKI 0
Core_0_ITLB_writeback_miss_rate 0
Core_0_ITLB_prefetch_requested 0
Core_0_ITLB_prefetch_issued 0
Core_0_ITLB_prefetch_useful 0
Core_0_ITLB_prefetch_useless 0
Core_0_ITLB_prefetch_late 0
Core_0_ITLB_prefetch_fill 0
Core_0_ITLB_prefetch_too_early 0
Core_0_ITLB_prefetch_too_early_among_fill 0
Core_0_ITLB_prefetch_too_early_among_useless 0
Core_0_ITLB_prefetch_pollution_evict 0
Core_0_ITLB_prefetch_pollution_demand 0
Core_0_ITLB_prefetch_pollution_among_prefetch_fill 0
Core_0_ITLB_prefetch_accuracy 0
Core_0_ITLB_prefetch_coverage 0

Core_0_DTLB_total_access 35193769
Core_0_DTLB_total_hit 32619494
Core_0_DTLB_total_miss 2574275
Core_0_DTLB_total_MPKI 25.7427
Core_0_DTLB_total_miss_rate 0.0731458
Core_0_DTLB_demand_access 35193769
Core_0_DTLB_demand_hit 32619494
Core_0_DTLB_demand_miss 2574275
Core_0_DTLB_demand_MPKI 25.7427
Core_0_DTLB_demand_miss_rate 0.0731458
Core_0_DTLB_load_access 35193769
Core_0_DTLB_load_hit 32619494
Core_0_DTLB_load_miss 2574275
Core_0_DTLB_load_MPKI 25.7427
Core_0_DTLB_load_miss_rate 0.0731458
Core_0_DTLB_rfo_access 0
Core_0_DTLB_rfo_hit 0
Core_0_DTLB_rfo_miss 0
Core_0_DTLB_rfo_MPKI 0
Core_0_DTLB_rfo_miss_rate 0
Core_0_DTLB_prefetch_access 0
Core_0_DTLB_prefetch_hit 0
Core_0_DTLB_prefetch_miss 0
Core_0_DTLB_prefetch_MPKI 0
Core_0_DTLB_prefetch_miss_rate 0
Core_0_DTLB_writeback_access 0
Core_0_DTLB_writeback_hit 0
Core_0_DTLB_writeback_miss 0
Core_0_DTLB_writeback_MPKI 0
Core_0_DTLB_writeback_miss_rate 0
Core_0_DTLB_prefetch_requested 0
Core_0_DTLB_prefetch_issued 0
Core_0_DTLB_prefetch_useful 0
Core_0_DTLB_prefetch_useless 0
Core_0_DTLB_prefetch_late 0
Core_0_DTLB_prefetch_fill 0
Core_0_DTLB_prefetch_too_early 0
Core_0_DTLB_prefetch_too_early_among_fill 0
Core_0_DTLB_prefetch_too_early_among_useless 0
Core_0_DTLB_prefetch_pollution_evict 0
Core_0_DTLB_prefetch_pollution_demand 0
Core_0_DTLB_prefetch_pollution_among_prefetch_fill 0
Core_0_DTLB_prefetch_accuracy 0
Core_0_DTLB_prefetch_coverage 0

Core_0_STLB_total_access 2274484
Core_0_STLB_total_hit 1774024
Core_0_STLB_total_miss 500460
Core_0_STLB_total_MPKI 5.0046
Core_0_STLB_total_miss_rate 0.220032
Core_0_STLB_demand_access 2274484
Core_0_STLB_demand_hit 1774024
Core_0_STLB_demand_miss 500460
Core_0_STLB_demand_MPKI 5.0046
Core_0_STLB_demand_miss_rate 0.220032
Core_0_STLB_load_access 2274484
Core_0_STLB_load_hit 1774024
Core_0_STLB_load_miss 500460
Core_0_STLB_load_MPKI 5.0046
Core_0_STLB_load_miss_rate 0.220032
Core_0_STLB_rfo_access 0
Core_0_STLB_rfo_hit 0
Core_0_STLB_rfo_miss 0
Core_0_STLB_rfo_MPKI 0
Core_0_STLB_rfo_miss_rate 0
Core_0_STLB_prefetch_access 0
Core_0_STLB_prefetch_hit 0
Core_0_STLB_prefetch_miss 0
Core_0_STLB_prefetch_MPKI 0
Core_0_STLB_prefetch_miss_rate 0
Core_0_STLB_writeback_access 0
Core_0_STLB_writeback_hit 0
Core_0_STLB_writeback_miss 0
Core_0_STLB_writeback_MPKI 0
Core_0_STLB_writeback_miss_rate 0
Core_0_STLB_prefetch_requested 0
Core_0_STLB_prefetch_issued 0
Core_0_STLB_prefetch_useful 0
Core_0_STLB_prefetch_useless 0
Core_0_STLB_prefetch_late 0
Core_0_STLB_prefetch_fill 0
Core_0_STLB_prefetch_too_early 0
Core_0_STLB_prefetch_too_early_among_fill 0
Core_0_STLB_prefetch_too_early_among_useless 0
Core_0_STLB_prefetch_pollution_evict 0
Core_0_STLB_prefetch_pollution_demand 0
Core_0_STLB_prefetch_pollution_among_prefetch_fill 0
Core_0_STLB_prefetch_accuracy 0
Core_0_STLB_prefetch_coverage 0

Core_0_L1I_total_access 14799370
Core_0_L1I_total_hit 14717692
Core_0_L1I_total_miss 81678
Core_0_L1I_total_MPKI 0.81678
Core_0_L1I_total_miss_rate 0.00551902
Core_0_L1I_demand_access 14799370
Core_0_L1I_demand_hit 14717692
Core_0_L1I_demand_miss 81678
Core_0_L1I_demand_MPKI 0.81678
Core_0_L1I_demand_miss_rate 0.00551902
Core_0_L1I_load_access 14799370
Core_0_L1I_load_hit 14717692
Core_0_L1I_load_miss 81678
Core_0_L1I_load_MPKI 0.81678
Core_0_L1I_load_miss_rate 0.00551902
Core_0_L1I_rfo_access 0
Core_0_L1I_rfo_hit 0
Core_0_L1I_rfo_miss 0
Core_0_L1I_rfo_MPKI 0
Core_0_L1I_rfo_miss_rate 0
Core_0_L1I_prefetch_access 0
Core_0_L1I_prefetch_hit 0
Core_0_L1I_prefetch_miss 0
Core_0_L1I_prefetch_MPKI 0
Core_0_L1I_prefetch_miss_rate 0
Core_0_L1I_writeback_access 0
Core_0_L1I_writeback_hit 0
Core_0_L1I_writeback_miss 0
Core_0_L1I_writeback_MPKI 0
Core_0_L1I_writeback_miss_rate 0
Core_0_L1I_prefetch_requested 0
Core_0_L1I_prefetch_issued 0
Core_0_L1I_prefetch_useful 0
Core_0_L1I_prefetch_useless 0
Core_0_L1I_prefetch_late 0
Core_0_L1I_prefetch_fill 0
Core_0_L1I_prefetch_too_early 0
Core_0_L1I_prefetch_too_early_among_fill 0
Core_0_L1I_prefetch_too_early_among_useless 0
Core_0_L1I_prefetch_pollution_evict 0
Core_0_L1I_prefetch_pollution_demand 0
Core_0_L1I_prefetch_pollution_among_prefetch_fill 0
Core_0_L1I_prefetch_accuracy 0
Core_0_L1I_prefetch_coverage 0

Core_0_L1D_total_access 37172118
Core_0_L1D_total_hit 34246807
Core_0_L1D_total_miss 2925311
Core_0_L1D_total_MPKI 29.2531
Core_0_L1D_total_miss_rate 0.0786964
Core_0_L1D_demand_access 19341453
Core_0_L1D_demand_hit 17156353
Core_0_L1D_demand_miss 2185100
Core_0_L1D_demand_MPKI 21.851
Core_0_L1D_demand_miss_rate 0.112975
Core_0_L1D_load_access 19341453
Core_0_L1D_load_hit 17156353
Core_0_L1D_load_miss 2185100
Core_0_L1D_load_MPKI 21.851
Core_0_L1D_load_miss_rate 0.112975
Core_0_L1D_rfo_access 0
Core_0_L1D_rfo_hit 0
Core_0_L1D_rfo_miss 0
Core_0_L1D_rfo_MPKI 0
Core_0_L1D_rfo_miss_rate 0
Core_0_L1D_prefetch_access 49722
Core_0_L1D_prefetch_hit 2821
Core_0_L1D_prefetch_miss 46901
Core_0_L1D_prefetch_MPKI 0.46901
Core_0_L1D_prefetch_miss_rate 0.943265
Core_0_L1D_writeback_access 17780943
Core_0_L1D_writeback_hit 17087633
Core_0_L1D_writeback_miss 693310
Core_0_L1D_writeback_MPKI 6.9331
Core_0_L1D_writeback_miss_rate 0.0389917
Core_0_L1D_prefetch_requested 49724
Core_0_L1D_prefetch_issued 49722
Core_0_L1D_prefetch_useful 1415
Core_0_L1D_prefetch_useless 2302
Core_0_L1D_prefetch_late 39
Core_0_L1D_prefetch_fill 3678
Core_0_L1D_prefetch_too_early 310
Core_0_L1D_prefetch_too_early_among_fill 0.0842849
Core_0_L1D_prefetch_too_early_among_useless 0.134666
Core_0_L1D_prefetch_pollution_evict 1587
Core_0_L1D_prefetch_pollution_demand 1585
Core_0_L1D_prefetch_pollution_among_prefetch_fill 0.431485
Core_0_L1D_prefetch_accuracy 0.0284582
Core_0_L1D_prefetch_coverage 0.000647149

Core_0_L2C_total_access 2997865
Core_0_L2C_total_hit 1534782
Core_0_L2C_total_miss 1463083
Core_0_L2C_total_MPKI 14.6308
Core_0_L2C_total_miss_rate 0.488042
Core_0_L2C_demand_access 1985534
Core_0_L2C_demand_hit 573517
Core_0_L2C_demand_miss 1412017
Core_0_L2C_demand_MPKI 14.1202
Core_0_L2C_demand_miss_rate 0.711152
Core_0_L2C_load_access 1748593
Core_0_L2C_load_hit 521632
Core_0_L2C_load_miss 1226961
Core_0_L2C_load_MPKI 12.2696
Core_0_L2C_load_miss_rate 0.701685
Core_0_L2C_rfo_access 236941
Core_0_L2C_rfo_hit 51885
Core_0_L2C_rfo_miss 185056
Core_0_L2C_rfo_MPKI 1.85056
Core_0_L2C_rfo_miss_rate 0.781021
Core_0_L2C_prefetch_access 70776
Core_0_L2C_prefetch_hit 21598
Core_0_L2C_prefetch_miss 49178
Core_0_L2C_prefetch_MPKI 0.49178
Core_0_L2C_prefetch_miss_rate 0.69484
Core_0_L2C_writeback_access 941555
Core_0_L2C_writeback_hit 939667
Core_0_L2C_writeback_miss 1888
Core_0_L2C_writeback_MPKI 0.01888
Core_0_L2C_writeback_miss_rate 0.00200519
Core_0_L2C_prefetch_requested 24285
Core_0_L2C_prefetch_issued 24285
Core_0_L2C_prefetch_useful 7375
Core_0_L2C_prefetch_useless 5418
Core_0_L2C_prefetch_late 1
Core_0_L2C_prefetch_fill 47844
Core_0_L2C_prefetch_too_early 1515
Core_0_L2C_prefetch_too_early_among_fill 0.0316654
Core_0_L2C_prefetch_too_early_among_useless 0.279623
Core_0_L2C_prefetch_pollution_evict 18335
Core_0_L2C_prefetch_pollution_demand 18311
Core_0_L2C_prefetch_pollution_among_prefetch_fill 0.383225
Core_0_L2C_prefetch_accuracy 0.303685
Core_0_L2C_prefetch_coverage 0.00519589

Core_0_LLC_total_access 2164305
Core_0_LLC_total_hit 1007461
Core_0_LLC_total_miss 1156844
Core_0_LLC_total_MPKI 11.5684
Core_0_LLC_total_miss_rate 0.534511
Core_0_LLC_demand_access 1411858
Core_0_LLC_demand_hit 354403
Core_0_LLC_demand_miss 1057455
Core_0_LLC_demand_MPKI 10.5745
Core_0_LLC_demand_miss_rate 0.748981
Core_0_LLC_load_access 1226802
Core_0_LLC_load_hit 289310
Core_0_LLC_load_miss 937492
Core_0_LLC_load_MPKI 9.37492
Core_0_LLC_load_miss_rate 0.764175
Core_0_LLC_rfo_access 185056
Core_0_LLC_rfo_hit 65093
Core_0_LLC_rfo_miss 119963
Core_0_LLC_rfo_MPKI 1.19963
Core_0_LLC_rfo_miss_rate 0.648252
Core_0_LLC_prefetch_access 48003
Core_0_LLC_prefetch_hit 5069
Core_0_LLC_prefetch_miss 42934
Core_0_LLC_prefetch_MPKI 0.42934
Core_0_LLC_prefetch_miss_rate 0.894402
Core_0_LLC_writeback_access 704444
Core_0_LLC_writeback_hit 647989
Core_0_LLC_writeback_miss 56455
Core_0_LLC_writeback_MPKI 0.56455
Core_0_LLC_writeback_miss_rate 0.0801412
Core_0_LLC_prefetch_requested 0
Core_0_LLC_prefetch_issued 0
Core_0_LLC_prefetch_useful 0
Core_0_LLC_prefetch_useless 0
Core_0_LLC_prefetch_late 0
Core_0_LLC_prefetch_fill 42934
Core_0_LLC_prefetch_too_early 0
Core_0_LLC_prefetch_too_early_among_fill 0
Core_0_LLC_prefetch_too_early_among_useless 0
Core_0_LLC_prefetch_pollution_evict 23891
Core_0_LLC_prefetch_pollution_demand 23891
Core_0_LLC_prefetch_pollution_among_prefetch_fill 0.556459
Core_0_LLC_prefetch_accuracy 0
Core_0_LLC_prefetch_coverage 0

[DRAM Statistics]
Channel_0_RQ_row_buffer_hit 6225
Channel_0_RQ_row_buffer_miss 1147965
Channel_0_WQ_row_buffer_hit 142908
Channel_0_WQ_row_buffer_miss 354528
Channel_0_WQ_full 0
Channel_0_dbus_congested 5089661
DRAM_total_RQ_row_buffer_hit 6225
DRAM_total_RQ_row_buffer_miss 1147965
DRAM_total_WQ_row_buffer_hit 142908
DRAM_total_WQ_row_buffer_miss 354528
DRAM_total_WQ_full 0
DRAM_total_dbus_congested 5089661
DRAM_avg_congested_cycle 17.8287

====== DRAM_RQ_TRAFFIC ========
DRAM_RQ_READ_TRAFFIC_BREAKDOWN:
data_demand_read.count = 1055780
data_demand_read.share = 91.47%

inst_demand_read.count = 1675
inst_demand_read.share = 0.15%

cache_inst_prefetch.count = 0
cache_inst_prefetch.share = 0.00%

cache_data_prefetch.count = 42934
cache_data_prefetch.share = 3.72%

stlb_data_demand.count = 53208
stlb_data_demand.share = 4.61%

stlb_inst_demand.count = 126
stlb_inst_demand.share = 0.01%

stlb_l1i_pref.count = 0
stlb_l1i_pref.share = 0.00%

stlb_l1d_pref.count = 479
stlb_l1d_pref.share = 0.04%

DRAM_RQ_READ_TRAFFIC_SUMMARY:
cache_demand.count = 1057455
cache_demand.share = 91.62%

cache_prefetch.count = 42934
cache_prefetch.share = 3.72%

stlb_demand.count = 53334
stlb_demand.share = 4.62%

stlb_prefetch.count = 479
stlb_prefetch.share = 0.04%

DRAM_RQ_READ_TRAFFIC_DEBUG:
total_classified_read.count = 1154202
unclassified_read.count = 0
total_read_with_other.count = 1154202

classified_plus_unclassified_check.count = 1154202
dram_rq_read_total_observed.count = 1154202
dram_rq_read_total_observed.per_1K_instructions = 11.542

STLB_MISS_PTW_DRAM_TOUCH_BREAKDOWN:
stlb_miss_total.count = 489050

stlb_miss_touch_dram.count = 53837
stlb_miss_touch_dram.share = 11.01%

stlb_miss_no_dram_touch.count = 435213
stlb_miss_no_dram_touch.share = 88.99%

STLB_MISS_PTW_DRAM_TOUCH_DEBUG:
stlb_miss_touch_plus_no_touch.count = 489050
stlb_miss_total_check.count = 489050

======STLB miss causes ========
Core_0_STLB_miss_cause_breakdown
Core_0_STLB_cause_Demand_Data_miss 482844
Core_0_STLB_cause_Demand_Data_miss_rate 0.212287
Core_0_STLB_cause_Demand_Instruction_miss 1665
Core_0_STLB_cause_Demand_Instruction_miss_rate 0.000732034
Core_0_STLB_cause_L1D_Prefetch_miss 15951
Core_0_STLB_cause_L1D_Prefetch_miss_rate 0.00701302
Core_0_STLB_cause_L1D_Prefetch_Same_Page_miss 0
Core_0_STLB_cause_L1D_Prefetch_Same_Page_miss_rate 0
Core_0_STLB_cause_L1D_Prefetch_Cross_Page_miss 15951
Core_0_STLB_cause_L1D_Prefetch_Cross_Page_miss_rate 0.00701302
Core_0_STLB_cause_L1I_Prefetch_miss 0
Core_0_STLB_cause_L1I_Prefetch_miss_rate 0
Core_0_STLB_cause_Other_miss 0
Core_0_STLB_cause_Other_miss_rate 0
Core_0_STLB_Demand_miss 484509
Core_0_STLB_Demand_miss_rate 0.213019
Core_0_STLB_L1D_Prefetch_miss 15951
Core_0_STLB_L1D_Prefetch_miss_rate 0.00701302
Core_0_STLB_Other_miss 0
Core_0_STLB_Other_miss_rate 0

========== vBerti-TLB Cross-page Flow Stats ==========

Core_0_vBerti_Requested 49724
Core_0_vBerti_Cross_page_prefetch_in_Requested 33857
Core_0_vBerti_Same_page_prefetch_in_Requested 15867
Core_0_vBerti_Cross_page_prefetch_of_Requested 0.680899
Core_0_vBerti_Issued 49722
Core_0_vBerti_PQ_Drop_Rate 4.0222e-05
Core_0_vBerti_InPQ_Cross_page_prefetch_of_Requested 0.680858
Core_0_vBerti_Cross_page_PQ_Drop_rate 5.9072e-05
Core_0_vBerti_Cross_page_prefetch_of_Issued 0.680886

========= DTLB_vBerti Prefetch Stats =========
Core_0_DTLB_demand_access 35148089
Core_0_DTLB_demand_hit 32592021
Core_0_DTLB_demand_miss 2556068
Core_0_DTLB_demand_mshr_merge 456002
Core_0_DTLB_demand_fill 2100077
Core_0_DTLB_demand_miss_rate 0.0727228
Core_0_DTLB_demand_mpki 25.5607
Core_0_DTLB_vberti_prefetch_access 45680
Core_0_DTLB_vberti_prefetch_hit 27473
Core_0_DTLB_vberti_prefetch_miss 18207
Core_0_DTLB_vberti_prefetch_mshr_merge 652
Core_0_DTLB_vberti_prefetch_fill 17546
Core_0_DTLB_vberti_prefetch_miss_rate 0.398577
Core_0_DTLB_vberti_prefetch_mpki 0.18207

=== DTLB_vBerti Same/Cross-page Prefetch Stats ===
Core_0_DTLB_vberti_same_page_prefetch 12490
Core_0_DTLB_vberti_same_page_prefetch_hit 12490
Core_0_DTLB_vberti_same_page_prefetch_miss 0
Core_0_DTLB_vberti_same_page_prefetch_mshr_merge 0
Core_0_DTLB_vberti_same_page_prefetch_fill 0
Core_0_DTLB_vberti_same_page_prefetch_miss_rate 0
Core_0_DTLB_vberti_same_page_prefetch_mpki 0
Core_0_DTLB_vberti_cross_page_prefetch 33190
Core_0_DTLB_vberti_cross_page_prefetch_hit 14983
Core_0_DTLB_vberti_cross_page_prefetch_miss 18207
Core_0_DTLB_vberti_cross_page_prefetch_mshr_merge 652
Core_0_DTLB_vberti_cross_page_prefetch_fill 17546
Core_0_DTLB_vberti_cross_page_prefetch_miss_rate 0.548569
Core_0_DTLB_vberti_cross_page_prefetch_mpki 0.18207
Core_0_DTLB_same_page_prefetch_miss_rate 0
Core_0_DTLB_same_page_prefetch_mpki 0
Core_0_DTLB_cross_page_prefetch_miss_rate 0.548569
Core_0_DTLB_cross_page_prefetch_mpki 0.18207
Core_0_DTLB_cross_page_prefetch_issued 33190
Core_0_DTLB_cross_page_prefetch_lookups 33190
Core_0_DTLB_cross_page_prefetch_useful 2609
Core_0_DTLB_cross_page_prefetch_useless 14946
Core_0_DTLB_cross_page_prefetch_late 9
Core_0_DTLB_cross_page_prefetch_too_early 2865
Core_0_DTLB_cross_page_prefetch_too_early_among_fill 0.163285
Core_0_DTLB_cross_page_prefetch_too_early_among_useless 0.19169
Core_0_DTLB_cross_page_prefetch_pollution_evict 12465
Core_0_DTLB_cross_page_prefetch_pollution_demand 12383
Core_0_DTLB_cross_page_prefetch_pollution_among_prefetch_fill 0.710418
Core_0_DTLB_cross_page_prefetch_accuracy 0.078608
Core_0_DTLB_cross_page_prefetch_coverage 0.00101967

========= STLB_vBerti Prefetch Stats =========
Core_0_STLB_demand_access 2256929
Core_0_STLB_demand_hit 1772420
Core_0_STLB_demand_miss 484509
Core_0_STLB_demand_mshr_merge 0
Core_0_STLB_demand_fill 484511
Core_0_STLB_demand_miss_rate 0.214676
Core_0_STLB_demand_mpki 4.84509
Core_0_STLB_vberti_prefetch_access 17555
Core_0_STLB_vberti_prefetch_hit 1604
Core_0_STLB_vberti_prefetch_miss 15951
Core_0_STLB_vberti_prefetch_mshr_merge 0
Core_0_STLB_vberti_prefetch_fill 0
Core_0_STLB_vberti_prefetch_miss_rate 0.90863
Core_0_STLB_vberti_prefetch_mpki 0.15951

=== STLB_vBerti Same/Cross-page Prefetch Stats ===
Core_0_STLB_vberti_same_page_prefetch 0
Core_0_STLB_vberti_same_page_prefetch_hit 0
Core_0_STLB_vberti_same_page_prefetch_miss 0
Core_0_STLB_vberti_same_page_prefetch_mshr_merge 0
Core_0_STLB_vberti_same_page_prefetch_fill 0
Core_0_STLB_vberti_same_page_prefetch_miss_rate 0
Core_0_STLB_vberti_same_page_prefetch_mpki 0
Core_0_STLB_vberti_cross_page_prefetch 17555
Core_0_STLB_vberti_cross_page_prefetch_hit 1604
Core_0_STLB_vberti_cross_page_prefetch_miss 15951
Core_0_STLB_vberti_cross_page_prefetch_mshr_merge 0
Core_0_STLB_vberti_cross_page_prefetch_fill 0
Core_0_STLB_vberti_cross_page_prefetch_miss_rate 0.90863
Core_0_STLB_vberti_cross_page_prefetch_mpki 0.15951
Core_0_STLB_same_page_prefetch_miss_rate 0
Core_0_STLB_same_page_prefetch_mpki 0
Core_0_STLB_cross_page_prefetch_miss_rate 0.90863
Core_0_STLB_cross_page_prefetch_mpki 0.15951
Core_0_STLB_cross_page_prefetch_issued 17555
Core_0_STLB_cross_page_prefetch_lookups 17555
Core_0_STLB_cross_page_prefetch_useful 11410
Core_0_STLB_cross_page_prefetch_useless 2176
Core_0_STLB_cross_page_prefetch_late 11410
Core_0_STLB_cross_page_prefetch_too_early 0
Core_0_STLB_cross_page_prefetch_too_early_among_fill 0
Core_0_STLB_cross_page_prefetch_too_early_among_useless 0
Core_0_STLB_cross_page_prefetch_pollution_evict 0
Core_0_STLB_cross_page_prefetch_pollution_demand 0
Core_0_STLB_cross_page_prefetch_pollution_among_prefetch_fill 0
Core_0_STLB_cross_page_prefetch_accuracy 0.649957
Core_0_STLB_cross_page_prefetch_coverage 0.0230078

========= STLB Cross-page Prefetch Buffer Stats =========
Core_0_STLB_raw_demand_miss 482844
Core_0_CP_PB_insert 15951
Core_0_CP_PB_demand_hit 11410
Core_0_STLB_PB_demand_miss 471434
Core_0_CP_PB_coverage 0.0236308
Core_0_STLB_raw_demand_mpki 4.82844
Core_0_STLB_PB_demand_mpki 4.71434
Core_0_CP_PB_demand_hit_mpki 0.1141

Core_0_TLB_demand_miss_rate 0.0137848
Core_0_TLB_demand_mpki 4.84509
Core_0_TLB_same_page_prefetch_miss_rate 0
Core_0_TLB_same_page_prefetch_mpki 0
Core_0_TLB_cross_page_prefetch_miss_rate 0.480597
Core_0_TLB_cross_page_prefetch_mpki 0.15951
Core_0_TLB_cross_page_prefetch_issued 33190
Core_0_TLB_cross_page_prefetch_lookups 33190
Core_0_TLB_cross_page_prefetch_useful 1925
Core_0_TLB_cross_page_prefetch_useless 14227
Core_0_TLB_cross_page_prefetch_late 9
Core_0_TLB_cross_page_prefetch_too_early 2606
Core_0_TLB_cross_page_prefetch_too_early_among_fill 0.148524
Core_0_TLB_cross_page_prefetch_too_early_among_useless 0.183173
Core_0_TLB_cross_page_prefetch_accuracy 0.0579994
Core_0_TLB_cross_page_prefetch_coverage 0.00395737
BERTI TO_L1: 12196 TO_L2: 78320 TO_L2_BC_MSHR: 0
BERTI AVG_LAT: 85.9738 NUM_TRACK_LATENCY: 2891839 NUM_CANT_TRACK_LATENCY: 0
BERTI CROSS_PAGE 57170 NO_CROSS_PAGE: 33346
BERTI FOUND_BERTI: 6797675 NO_FOUND_BERTI: 43129642
BERTI AVERAGE_ISSUED: 1.39934
