[VMEM] WARNING: physical memory size is smaller than virtual memory size.

*** ChampSim Multicore Out-of-Order Simulator ***
Warmup Instructions: 50000000
Simulation Instructions: 100000000
Number of CPUs: 1
Page size: 4096
Core 0: /data0/tzh/champsim_traces/SPEC17/623.xalancbmk_s-592B.champsimtrace.xz
VBerti Prefetcher
BERTI HASH ENTANGLING
BERTI IP MASK ffff
Off-chip DRAM Size: 16 GiB Channels: 1 Width: 64-bit Data Rate: 3205 MT/s
Warmup halting CPU 0 at instruction 50000000 cycle 11901841 for remainder of phase
Warmup finished CPU 0 instructions: 50000000 cycles: 11901841 cumulative IPC: 4.201 (Simulation time: 00 hr 03 min 18 sec)
Warmup complete CPU 0 instructions: 50000000 cycles: 11901841 cumulative IPC: 4.201 (Simulation time: 00 hr 03 min 18 sec)
Simulation finished CPU 0 instructions: 100000000 cycles: 84708144 cumulative IPC: 1.181 (Simulation time: 00 hr 16 min 34 sec)
Simulation complete CPU 0 instructions: 100000000 cycles: 84708144 cumulative IPC: 1.181 (Simulation time: 00 hr 16 min 34 sec)

ChampSim completed all CPUs

=== Simulation ===
CPU 0 runs /data0/tzh/champsim_traces/SPEC17/623.xalancbmk_s-592B.champsimtrace.xz

Region of Interest Statistics

CPU 0 cumulative IPC: 1.181 instructions: 100000000 cycles: 84708144
CPU 0 Branch Prediction Accuracy: 98.32% MPKI: 4.959 Average ROB Occupancy at Mispredict: 54
Branch type MPKI
BRANCH_DIRECT_JUMP: 0.09886
BRANCH_INDIRECT: 0.3208
BRANCH_CONDITIONAL: 2.904
BRANCH_DIRECT_CALL: 0.0002
BRANCH_INDIRECT_CALL: 0.3342
BRANCH_RETURN: 1.302

cpu0->cpu0_STLB TOTAL        ACCESS:    2379858 HIT:    2220577 MISS:     159281 MSHR_MERGE:          0
cpu0->cpu0_STLB LOAD         ACCESS:    2379858 HIT:    2220577 MISS:     159281 MSHR_MERGE:          0
cpu0->cpu0_STLB RFO          ACCESS:          0 HIT:          0 MISS:          0 MSHR_MERGE:          0
cpu0->cpu0_STLB PREFETCH     ACCESS:          0 HIT:          0 MISS:          0 MSHR_MERGE:          0
cpu0->cpu0_STLB WRITE        ACCESS:          0 HIT:          0 MISS:          0 MSHR_MERGE:          0
cpu0->cpu0_STLB TRANSLATION  ACCESS:          0 HIT:          0 MISS:          0 MSHR_MERGE:          0
cpu0->cpu0_STLB PREFETCH REQUESTED:          0 ISSUED:          0 USEFUL:          0 USELESS:          0 LATE:          0 TOO_EARLY:          0
cpu0->cpu0_STLB AVERAGE MISS LATENCY: 21.56 cycles
cpu0->cpu0_L2C TOTAL        ACCESS:    5844434 HIT:    5465956 MISS:     378478 MSHR_MERGE:      31722
cpu0->cpu0_L2C LOAD         ACCESS:    3858221 HIT:    3700949 MISS:     157272 MSHR_MERGE:         87
cpu0->cpu0_L2C RFO          ACCESS:     164169 HIT:      41984 MISS:     122185 MSHR_MERGE:       6365
cpu0->cpu0_L2C PREFETCH     ACCESS:    1442901 HIT:    1352688 MISS:      90213 MSHR_MERGE:      25270
cpu0->cpu0_L2C WRITE        ACCESS:     250927 HIT:     250926 MISS:          1 MSHR_MERGE:          0
cpu0->cpu0_L2C TRANSLATION  ACCESS:     128216 HIT:     119409 MISS:       8807 MSHR_MERGE:          0
cpu0->cpu0_L2C PREFETCH REQUESTED:     456847 ISSUED:     436559 USEFUL:       8021 USELESS:       3362 LATE:        900 TOO_EARLY:        203
cpu0->cpu0_L2C AVERAGE MISS LATENCY: 108.5 cycles
cpu0->cpu0_L1I TOTAL        ACCESS:   18889797 HIT:   18563334 MISS:     326463 MSHR_MERGE:      98562
cpu0->cpu0_L1I LOAD         ACCESS:   18889797 HIT:   18563334 MISS:     326463 MSHR_MERGE:      98562
cpu0->cpu0_L1I RFO          ACCESS:          0 HIT:          0 MISS:          0 MSHR_MERGE:          0
cpu0->cpu0_L1I PREFETCH     ACCESS:          0 HIT:          0 MISS:          0 MSHR_MERGE:          0
cpu0->cpu0_L1I WRITE        ACCESS:          0 HIT:          0 MISS:          0 MSHR_MERGE:          0
cpu0->cpu0_L1I TRANSLATION  ACCESS:          0 HIT:          0 MISS:          0 MSHR_MERGE:          0
cpu0->cpu0_L1I PREFETCH REQUESTED:          0 ISSUED:          0 USEFUL:          0 USELESS:          0 LATE:          0 TOO_EARLY:          0
cpu0->cpu0_L1I AVERAGE MISS LATENCY: 8.37 cycles
cpu0->cpu0_L1D TOTAL        ACCESS:   37757599 HIT:   31568182 MISS:    6189417 MSHR_MERGE:    1250170
cpu0->cpu0_L1D LOAD         ACCESS:   17699448 HIT:   13307732 MISS:    4391716 MSHR_MERGE:     761394
cpu0->cpu0_L1D RFO          ACCESS:          0 HIT:          0 MISS:          0 MSHR_MERGE:          0
cpu0->cpu0_L1D PREFETCH     ACCESS:   13375954 HIT:   12335714 MISS:    1040240 MSHR_MERGE:      23701
cpu0->cpu0_L1D WRITE        ACCESS:    6368843 HIT:    5740380 MISS:     628463 MSHR_MERGE:     464293
cpu0->cpu0_L1D TRANSLATION  ACCESS:     313354 HIT:     184356 MISS:     128998 MSHR_MERGE:        782
cpu0->cpu0_L1D PREFETCH REQUESTED:   51645256 ISSUED:   13375962 USEFUL:     341671 USELESS:      37019 LATE:       4706 TOO_EARLY:        891
cpu0->cpu0_L1D AVERAGE MISS LATENCY: 16.2 cycles
cpu0->cpu0_ITLB TOTAL        ACCESS:   17700281 HIT:   17622443 MISS:      77838 MSHR_MERGE:      45081
cpu0->cpu0_ITLB LOAD         ACCESS:   17700281 HIT:   17622443 MISS:      77838 MSHR_MERGE:      45081
cpu0->cpu0_ITLB RFO          ACCESS:          0 HIT:          0 MISS:          0 MSHR_MERGE:          0
cpu0->cpu0_ITLB PREFETCH     ACCESS:          0 HIT:          0 MISS:          0 MSHR_MERGE:          0
cpu0->cpu0_ITLB WRITE        ACCESS:          0 HIT:          0 MISS:          0 MSHR_MERGE:          0
cpu0->cpu0_ITLB TRANSLATION  ACCESS:          0 HIT:          0 MISS:          0 MSHR_MERGE:          0
cpu0->cpu0_ITLB PREFETCH REQUESTED:          0 ISSUED:          0 USEFUL:          0 USELESS:          0 LATE:          0 TOO_EARLY:          0
cpu0->cpu0_ITLB AVERAGE MISS LATENCY: 6.364 cycles
cpu0->cpu0_DTLB TOTAL        ACCESS:   31627433 HIT:   28117055 MISS:    3510378 MSHR_MERGE:    1163277
cpu0->cpu0_DTLB LOAD         ACCESS:   31627433 HIT:   28117055 MISS:    3510378 MSHR_MERGE:    1163277
cpu0->cpu0_DTLB RFO          ACCESS:          0 HIT:          0 MISS:          0 MSHR_MERGE:          0
cpu0->cpu0_DTLB PREFETCH     ACCESS:          0 HIT:          0 MISS:          0 MSHR_MERGE:          0
cpu0->cpu0_DTLB WRITE        ACCESS:          0 HIT:          0 MISS:          0 MSHR_MERGE:          0
cpu0->cpu0_DTLB TRANSLATION  ACCESS:          0 HIT:          0 MISS:          0 MSHR_MERGE:          0
cpu0->cpu0_DTLB PREFETCH REQUESTED:          0 ISSUED:          0 USEFUL:          0 USELESS:          0 LATE:          0 TOO_EARLY:          0
cpu0->cpu0_DTLB AVERAGE MISS LATENCY: 6.491 cycles
cpu0->LLC TOTAL        ACCESS:     515200 HIT:     305099 MISS:     210101 MSHR_MERGE:       2723
cpu0->LLC LOAD         ACCESS:     157185 HIT:     137684 MISS:      19501 MSHR_MERGE:          0
cpu0->LLC RFO          ACCESS:     115820 HIT:       4808 MISS:     111012 MSHR_MERGE:        164
cpu0->LLC PREFETCH     ACCESS:      64934 HIT:      15732 MISS:      49202 MSHR_MERGE:       2559
cpu0->LLC WRITE        ACCESS:     168454 HIT:     139733 MISS:      28721 MSHR_MERGE:          0
cpu0->LLC TRANSLATION  ACCESS:       8807 HIT:       7142 MISS:       1665 MSHR_MERGE:          0
cpu0->LLC PREFETCH REQUESTED:          0 ISSUED:          0 USEFUL:          0 USELESS:          0 LATE:          0 TOO_EARLY:          0
cpu0->LLC AVERAGE MISS LATENCY: 162.2 cycles

DRAM Statistics

Channel 0 RQ ROW_BUFFER_HIT:      15208
  ROW_BUFFER_MISS:     163449
  AVG DBUS CONGESTED CYCLE: 7.321
Channel 0 WQ ROW_BUFFER_HIT:      14012
  ROW_BUFFER_MISS:     145727
  FULL:          0
Channel 0 REFRESHES ISSUED:       7059

[ROI Statistics]
[System Configuration]
num_cpus 1
cpu_freq 4000
fetch_width 6
decode_width 6
dispatch_width 6
execute_width 6
lq_width 2
sq_width 2
retire_width 6
scheduler_size 128
branch_mispredict_penalty 15
rob_size 352
lq_size 128
sq_size 72
ifetch_buffer_size 64
decode_buffer_size 32
dispatch_buffer_size 32
register_file_size 288
decode_latency 1
dispatch_latency 1
schedule_latency 1
execute_latency 1
page_size 4096
block_size 64
core_0_itlb_set 16
core_0_itlb_way 4
core_0_itlb_rq_size 16
core_0_itlb_wq_size 16
core_0_itlb_pq_size 0
core_0_itlb_mshr_size 8
core_0_itlb_hit_latency 1
core_0_itlb_fill_latency 1
core_0_itlb_max_tag_check 2
core_0_itlb_max_fill 2
core_0_dtlb_set 16
core_0_dtlb_way 4
core_0_dtlb_rq_size 16
core_0_dtlb_wq_size 16
core_0_dtlb_pq_size 0
core_0_dtlb_mshr_size 8
core_0_dtlb_hit_latency 1
core_0_dtlb_fill_latency 1
core_0_dtlb_max_tag_check 2
core_0_dtlb_max_fill 2
core_0_stlb_set 128
core_0_stlb_way 12
core_0_stlb_rq_size 32
core_0_stlb_wq_size 32
core_0_stlb_pq_size 0
core_0_stlb_mshr_size 16
core_0_stlb_hit_latency 4
core_0_stlb_fill_latency 4
core_0_stlb_max_tag_check 1
core_0_stlb_max_fill 1
core_0_l1i_set 64
core_0_l1i_way 8
core_0_l1i_rq_size 64
core_0_l1i_wq_size 64
core_0_l1i_pq_size 32
core_0_l1i_mshr_size 8
core_0_l1i_hit_latency 2
core_0_l1i_fill_latency 2
core_0_l1i_max_tag_check 2
core_0_l1i_max_fill 2
core_0_l1d_set 64
core_0_l1d_way 12
core_0_l1d_rq_size 64
core_0_l1d_wq_size 64
core_0_l1d_pq_size 8
core_0_l1d_mshr_size 16
core_0_l1d_hit_latency 2
core_0_l1d_fill_latency 3
core_0_l1d_max_tag_check 2
core_0_l1d_max_fill 2
core_0_l2c_set 1024
core_0_l2c_way 8
core_0_l2c_rq_size 32
core_0_l2c_wq_size 32
core_0_l2c_pq_size 16
core_0_l2c_mshr_size 32
core_0_l2c_hit_latency 5
core_0_l2c_fill_latency 5
core_0_l2c_max_tag_check 1
core_0_l2c_max_fill 1
llc_set 2048
llc_way 16
llc_rq_size 32
llc_wq_size 32
llc_pq_size 32
llc_mshr_size 64
llc_hit_latency 10
llc_fill_latency 10
llc_max_tag_check 1
llc_max_fill 1
dram_channels 1
dram_ranks 1
dram_bankgroups 8
dram_banks 4
dram_rows 65536
dram_columns 1024
dram_channel_width 8
dram_rq_size 64
dram_wq_size 64
dram_size 17179869184
core_0_itlb_prefetcher no
core_0_dtlb_prefetcher no
core_0_stlb_prefetcher no
core_0_l1i_prefetcher next_line
core_0_l1d_prefetcher vberti
core_0_l2c_prefetcher ip_stride
llc_prefetcher no
llc_replacement drrip

Core_0_instructions 100000000
Core_0_cycles 84708144
Core_0_IPC 1.18052
Core_0_branch_prediction_accuracy 98.3246
Core_0_branch_MPKI 4.95945
Core_0_average_ROB_occupancy_at_mispredict 54.0045

Core_0_ITLB_total_access 17700281
Core_0_ITLB_total_hit 17622443
Core_0_ITLB_total_miss 77838
Core_0_ITLB_total_MPKI 0.77838
Core_0_ITLB_total_miss_rate 0.00439756
Core_0_ITLB_demand_access 17700281
Core_0_ITLB_demand_hit 17622443
Core_0_ITLB_demand_miss 77838
Core_0_ITLB_demand_MPKI 0.77838
Core_0_ITLB_demand_miss_rate 0.00439756
Core_0_ITLB_load_access 17700281
Core_0_ITLB_load_hit 17622443
Core_0_ITLB_load_miss 77838
Core_0_ITLB_load_MPKI 0.77838
Core_0_ITLB_load_miss_rate 0.00439756
Core_0_ITLB_rfo_access 0
Core_0_ITLB_rfo_hit 0
Core_0_ITLB_rfo_miss 0
Core_0_ITLB_rfo_MPKI 0
Core_0_ITLB_rfo_miss_rate 0
Core_0_ITLB_prefetch_access 0
Core_0_ITLB_prefetch_hit 0
Core_0_ITLB_prefetch_miss 0
Core_0_ITLB_prefetch_MPKI 0
Core_0_ITLB_prefetch_miss_rate 0
Core_0_ITLB_writeback_access 0
Core_0_ITLB_writeback_hit 0
Core_0_ITLB_writeback_miss 0
Core_0_ITLB_writeback_MPKI 0
Core_0_ITLB_writeback_miss_rate 0
Core_0_ITLB_prefetch_requested 0
Core_0_ITLB_prefetch_issued 0
Core_0_ITLB_prefetch_useful 0
Core_0_ITLB_prefetch_useless 0
Core_0_ITLB_prefetch_late 0
Core_0_ITLB_prefetch_fill 0
Core_0_ITLB_prefetch_too_early 0
Core_0_ITLB_prefetch_too_early_among_fill 0
Core_0_ITLB_prefetch_too_early_among_useless 0
Core_0_ITLB_prefetch_pollution_evict 0
Core_0_ITLB_prefetch_pollution_demand 0
Core_0_ITLB_prefetch_pollution_among_prefetch_fill 0
Core_0_ITLB_prefetch_accuracy 0
Core_0_ITLB_prefetch_coverage 0

Core_0_DTLB_total_access 31627433
Core_0_DTLB_total_hit 28117055
Core_0_DTLB_total_miss 3510378
Core_0_DTLB_total_MPKI 35.1038
Core_0_DTLB_total_miss_rate 0.110992
Core_0_DTLB_demand_access 31627433
Core_0_DTLB_demand_hit 28117055
Core_0_DTLB_demand_miss 3510378
Core_0_DTLB_demand_MPKI 35.1038
Core_0_DTLB_demand_miss_rate 0.110992
Core_0_DTLB_load_access 31627433
Core_0_DTLB_load_hit 28117055
Core_0_DTLB_load_miss 3510378
Core_0_DTLB_load_MPKI 35.1038
Core_0_DTLB_load_miss_rate 0.110992
Core_0_DTLB_rfo_access 0
Core_0_DTLB_rfo_hit 0
Core_0_DTLB_rfo_miss 0
Core_0_DTLB_rfo_MPKI 0
Core_0_DTLB_rfo_miss_rate 0
Core_0_DTLB_prefetch_access 0
Core_0_DTLB_prefetch_hit 0
Core_0_DTLB_prefetch_miss 0
Core_0_DTLB_prefetch_MPKI 0
Core_0_DTLB_prefetch_miss_rate 0
Core_0_DTLB_writeback_access 0
Core_0_DTLB_writeback_hit 0
Core_0_DTLB_writeback_miss 0
Core_0_DTLB_writeback_MPKI 0
Core_0_DTLB_writeback_miss_rate 0
Core_0_DTLB_prefetch_requested 0
Core_0_DTLB_prefetch_issued 0
Core_0_DTLB_prefetch_useful 0
Core_0_DTLB_prefetch_useless 0
Core_0_DTLB_prefetch_late 0
Core_0_DTLB_prefetch_fill 0
Core_0_DTLB_prefetch_too_early 0
Core_0_DTLB_prefetch_too_early_among_fill 0
Core_0_DTLB_prefetch_too_early_among_useless 0
Core_0_DTLB_prefetch_pollution_evict 0
Core_0_DTLB_prefetch_pollution_demand 0
Core_0_DTLB_prefetch_pollution_among_prefetch_fill 0
Core_0_DTLB_prefetch_accuracy 0
Core_0_DTLB_prefetch_coverage 0

Core_0_STLB_total_access 2379858
Core_0_STLB_total_hit 2220577
Core_0_STLB_total_miss 159281
Core_0_STLB_total_MPKI 1.59281
Core_0_STLB_total_miss_rate 0.0669288
Core_0_STLB_demand_access 2379858
Core_0_STLB_demand_hit 2220577
Core_0_STLB_demand_miss 159281
Core_0_STLB_demand_MPKI 1.59281
Core_0_STLB_demand_miss_rate 0.0669288
Core_0_STLB_load_access 2379858
Core_0_STLB_load_hit 2220577
Core_0_STLB_load_miss 159281
Core_0_STLB_load_MPKI 1.59281
Core_0_STLB_load_miss_rate 0.0669288
Core_0_STLB_rfo_access 0
Core_0_STLB_rfo_hit 0
Core_0_STLB_rfo_miss 0
Core_0_STLB_rfo_MPKI 0
Core_0_STLB_rfo_miss_rate 0
Core_0_STLB_prefetch_access 0
Core_0_STLB_prefetch_hit 0
Core_0_STLB_prefetch_miss 0
Core_0_STLB_prefetch_MPKI 0
Core_0_STLB_prefetch_miss_rate 0
Core_0_STLB_writeback_access 0
Core_0_STLB_writeback_hit 0
Core_0_STLB_writeback_miss 0
Core_0_STLB_writeback_MPKI 0
Core_0_STLB_writeback_miss_rate 0
Core_0_STLB_prefetch_requested 0
Core_0_STLB_prefetch_issued 0
Core_0_STLB_prefetch_useful 0
Core_0_STLB_prefetch_useless 0
Core_0_STLB_prefetch_late 0
Core_0_STLB_prefetch_fill 0
Core_0_STLB_prefetch_too_early 0
Core_0_STLB_prefetch_too_early_among_fill 0
Core_0_STLB_prefetch_too_early_among_useless 0
Core_0_STLB_prefetch_pollution_evict 0
Core_0_STLB_prefetch_pollution_demand 0
Core_0_STLB_prefetch_pollution_among_prefetch_fill 0
Core_0_STLB_prefetch_accuracy 0
Core_0_STLB_prefetch_coverage 0

Core_0_L1I_total_access 18889797
Core_0_L1I_total_hit 18563334
Core_0_L1I_total_miss 326463
Core_0_L1I_total_MPKI 3.26463
Core_0_L1I_total_miss_rate 0.0172825
Core_0_L1I_demand_access 18889797
Core_0_L1I_demand_hit 18563334
Core_0_L1I_demand_miss 326463
Core_0_L1I_demand_MPKI 3.26463
Core_0_L1I_demand_miss_rate 0.0172825
Core_0_L1I_load_access 18889797
Core_0_L1I_load_hit 18563334
Core_0_L1I_load_miss 326463
Core_0_L1I_load_MPKI 3.26463
Core_0_L1I_load_miss_rate 0.0172825
Core_0_L1I_rfo_access 0
Core_0_L1I_rfo_hit 0
Core_0_L1I_rfo_miss 0
Core_0_L1I_rfo_MPKI 0
Core_0_L1I_rfo_miss_rate 0
Core_0_L1I_prefetch_access 0
Core_0_L1I_prefetch_hit 0
Core_0_L1I_prefetch_miss 0
Core_0_L1I_prefetch_MPKI 0
Core_0_L1I_prefetch_miss_rate 0
Core_0_L1I_writeback_access 0
Core_0_L1I_writeback_hit 0
Core_0_L1I_writeback_miss 0
Core_0_L1I_writeback_MPKI 0
Core_0_L1I_writeback_miss_rate 0
Core_0_L1I_prefetch_requested 0
Core_0_L1I_prefetch_issued 0
Core_0_L1I_prefetch_useful 0
Core_0_L1I_prefetch_useless 0
Core_0_L1I_prefetch_late 0
Core_0_L1I_prefetch_fill 0
Core_0_L1I_prefetch_too_early 0
Core_0_L1I_prefetch_too_early_among_fill 0
Core_0_L1I_prefetch_too_early_among_useless 0
Core_0_L1I_prefetch_pollution_evict 0
Core_0_L1I_prefetch_pollution_demand 0
Core_0_L1I_prefetch_pollution_among_prefetch_fill 0
Core_0_L1I_prefetch_accuracy 0
Core_0_L1I_prefetch_coverage 0

Core_0_L1D_total_access 37444245
Core_0_L1D_total_hit 31383826
Core_0_L1D_total_miss 6060419
Core_0_L1D_total_MPKI 60.6042
Core_0_L1D_total_miss_rate 0.161852
Core_0_L1D_demand_access 17699448
Core_0_L1D_demand_hit 13307732
Core_0_L1D_demand_miss 4391716
Core_0_L1D_demand_MPKI 43.9172
Core_0_L1D_demand_miss_rate 0.248127
Core_0_L1D_load_access 17699448
Core_0_L1D_load_hit 13307732
Core_0_L1D_load_miss 4391716
Core_0_L1D_load_MPKI 43.9172
Core_0_L1D_load_miss_rate 0.248127
Core_0_L1D_rfo_access 0
Core_0_L1D_rfo_hit 0
Core_0_L1D_rfo_miss 0
Core_0_L1D_rfo_MPKI 0
Core_0_L1D_rfo_miss_rate 0
Core_0_L1D_prefetch_access 13375954
Core_0_L1D_prefetch_hit 12335714
Core_0_L1D_prefetch_miss 1040240
Core_0_L1D_prefetch_MPKI 10.4024
Core_0_L1D_prefetch_miss_rate 0.0777694
Core_0_L1D_writeback_access 6368843
Core_0_L1D_writeback_hit 5740380
Core_0_L1D_writeback_miss 628463
Core_0_L1D_writeback_MPKI 6.28463
Core_0_L1D_writeback_miss_rate 0.0986777
Core_0_L1D_prefetch_requested 51645256
Core_0_L1D_prefetch_issued 13375962
Core_0_L1D_prefetch_useful 341671
Core_0_L1D_prefetch_useless 37019
Core_0_L1D_prefetch_late 4706
Core_0_L1D_prefetch_fill 373989
Core_0_L1D_prefetch_too_early 891
Core_0_L1D_prefetch_too_early_among_fill 0.00238242
Core_0_L1D_prefetch_too_early_among_useless 0.0240687
Core_0_L1D_prefetch_pollution_evict 269394
Core_0_L1D_prefetch_pollution_demand 269389
Core_0_L1D_prefetch_pollution_among_prefetch_fill 0.720326
Core_0_L1D_prefetch_accuracy 0.0255437
Core_0_L1D_prefetch_coverage 0.0721832

Core_0_L2C_total_access 5716218
Core_0_L2C_total_hit 5346547
Core_0_L2C_total_miss 369671
Core_0_L2C_total_MPKI 3.69671
Core_0_L2C_total_miss_rate 0.0646706
Core_0_L2C_demand_access 4022390
Core_0_L2C_demand_hit 3742933
Core_0_L2C_demand_miss 279457
Core_0_L2C_demand_MPKI 2.79457
Core_0_L2C_demand_miss_rate 0.0694754
Core_0_L2C_load_access 3858221
Core_0_L2C_load_hit 3700949
Core_0_L2C_load_miss 157272
Core_0_L2C_load_MPKI 1.57272
Core_0_L2C_load_miss_rate 0.0407628
Core_0_L2C_rfo_access 164169
Core_0_L2C_rfo_hit 41984
Core_0_L2C_rfo_miss 122185
Core_0_L2C_rfo_MPKI 1.22185
Core_0_L2C_rfo_miss_rate 0.744264
Core_0_L2C_prefetch_access 1442901
Core_0_L2C_prefetch_hit 1352688
Core_0_L2C_prefetch_miss 90213
Core_0_L2C_prefetch_MPKI 0.90213
Core_0_L2C_prefetch_miss_rate 0.062522
Core_0_L2C_writeback_access 250927
Core_0_L2C_writeback_hit 250926
Core_0_L2C_writeback_miss 1
Core_0_L2C_writeback_MPKI 1e-05
Core_0_L2C_writeback_miss_rate 3.98522e-06
Core_0_L2C_prefetch_requested 456847
Core_0_L2C_prefetch_issued 436559
Core_0_L2C_prefetch_useful 8021
Core_0_L2C_prefetch_useless 3362
Core_0_L2C_prefetch_late 900
Core_0_L2C_prefetch_fill 53435
Core_0_L2C_prefetch_too_early 203
Core_0_L2C_prefetch_too_early_among_fill 0.00379901
Core_0_L2C_prefetch_too_early_among_useless 0.0603807
Core_0_L2C_prefetch_pollution_evict 9764
Core_0_L2C_prefetch_pollution_demand 9735
Core_0_L2C_prefetch_pollution_among_prefetch_fill 0.182727
Core_0_L2C_prefetch_accuracy 0.0183732
Core_0_L2C_prefetch_coverage 0.0279013

Core_0_LLC_total_access 506393
Core_0_LLC_total_hit 297957
Core_0_LLC_total_miss 208436
Core_0_LLC_total_MPKI 2.08436
Core_0_LLC_total_miss_rate 0.411609
Core_0_LLC_demand_access 273005
Core_0_LLC_demand_hit 142492
Core_0_LLC_demand_miss 130513
Core_0_LLC_demand_MPKI 1.30513
Core_0_LLC_demand_miss_rate 0.478061
Core_0_LLC_load_access 157185
Core_0_LLC_load_hit 137684
Core_0_LLC_load_miss 19501
Core_0_LLC_load_MPKI 0.19501
Core_0_LLC_load_miss_rate 0.124064
Core_0_LLC_rfo_access 115820
Core_0_LLC_rfo_hit 4808
Core_0_LLC_rfo_miss 111012
Core_0_LLC_rfo_MPKI 1.11012
Core_0_LLC_rfo_miss_rate 0.958487
Core_0_LLC_prefetch_access 64934
Core_0_LLC_prefetch_hit 15732
Core_0_LLC_prefetch_miss 49202
Core_0_LLC_prefetch_MPKI 0.49202
Core_0_LLC_prefetch_miss_rate 0.757723
Core_0_LLC_writeback_access 168454
Core_0_LLC_writeback_hit 139733
Core_0_LLC_writeback_miss 28721
Core_0_LLC_writeback_MPKI 0.28721
Core_0_LLC_writeback_miss_rate 0.170498
Core_0_LLC_prefetch_requested 0
Core_0_LLC_prefetch_issued 0
Core_0_LLC_prefetch_useful 0
Core_0_LLC_prefetch_useless 0
Core_0_LLC_prefetch_late 0
Core_0_LLC_prefetch_fill 46479
Core_0_LLC_prefetch_too_early 0
Core_0_LLC_prefetch_too_early_among_fill 0
Core_0_LLC_prefetch_too_early_among_useless 0
Core_0_LLC_prefetch_pollution_evict 7485
Core_0_LLC_prefetch_pollution_demand 7485
Core_0_LLC_prefetch_pollution_among_prefetch_fill 0.16104
Core_0_LLC_prefetch_accuracy 0
Core_0_LLC_prefetch_coverage 0

[DRAM Statistics]
Channel_0_RQ_row_buffer_hit 15208
Channel_0_RQ_row_buffer_miss 163449
Channel_0_WQ_row_buffer_hit 14012
Channel_0_WQ_row_buffer_miss 145727
Channel_0_WQ_full 0
Channel_0_dbus_congested 822145
DRAM_total_RQ_row_buffer_hit 15208
DRAM_total_RQ_row_buffer_miss 163449
DRAM_total_WQ_row_buffer_hit 14012
DRAM_total_WQ_row_buffer_miss 145727
DRAM_total_WQ_full 0
DRAM_total_dbus_congested 822145
DRAM_avg_congested_cycle 7.32141

====== DRAM_RQ_TRAFFIC ========
DRAM_RQ_READ_TRAFFIC_BREAKDOWN:
data_demand_read.count = 129090
data_demand_read.share = 72.26%

inst_demand_read.count = 1259
inst_demand_read.share = 0.70%

cache_inst_prefetch.count = 0
cache_inst_prefetch.share = 0.00%

cache_data_prefetch.count = 46643
cache_data_prefetch.share = 26.11%

stlb_data_demand.count = 1400
stlb_data_demand.share = 0.78%

stlb_inst_demand.count = 73
stlb_inst_demand.share = 0.04%

stlb_l1i_pref.count = 0
stlb_l1i_pref.share = 0.00%

stlb_l1d_pref.count = 192
stlb_l1d_pref.share = 0.11%

DRAM_RQ_READ_TRAFFIC_SUMMARY:
cache_demand.count = 130349
cache_demand.share = 72.96%

cache_prefetch.count = 46643
cache_prefetch.share = 26.11%

stlb_demand.count = 1473
stlb_demand.share = 0.82%

stlb_prefetch.count = 192
stlb_prefetch.share = 0.11%

DRAM_RQ_READ_TRAFFIC_DEBUG:
total_classified_read.count = 178657
unclassified_read.count = 0
total_read_with_other.count = 178657

classified_plus_unclassified_check.count = 178657
dram_rq_read_total_observed.count = 178657
dram_rq_read_total_observed.per_1K_instructions = 1.78657

STLB_MISS_PTW_DRAM_TOUCH_BREAKDOWN:
stlb_miss_total.count = 156982

stlb_miss_touch_dram.count = 1663
stlb_miss_touch_dram.share = 1.06%

stlb_miss_no_dram_touch.count = 155319
stlb_miss_no_dram_touch.share = 98.94%

STLB_MISS_PTW_DRAM_TOUCH_DEBUG:
stlb_miss_touch_plus_no_touch.count = 156982
stlb_miss_total_check.count = 156982

======STLB miss causes ========
Core_0_STLB_miss_cause_breakdown
Core_0_STLB_cause_Demand_Data_miss 123150
Core_0_STLB_cause_Demand_Data_miss_rate 0.0517468
Core_0_STLB_cause_Demand_Instruction_miss 1786
Core_0_STLB_cause_Demand_Instruction_miss_rate 0.000750465
Core_0_STLB_cause_L1D_Prefetch_miss 34345
Core_0_STLB_cause_L1D_Prefetch_miss_rate 0.0144315
Core_0_STLB_cause_L1D_Prefetch_Same_Page_miss 0
Core_0_STLB_cause_L1D_Prefetch_Same_Page_miss_rate 0
Core_0_STLB_cause_L1D_Prefetch_Cross_Page_miss 34345
Core_0_STLB_cause_L1D_Prefetch_Cross_Page_miss_rate 0.0144315
Core_0_STLB_cause_L1I_Prefetch_miss 0
Core_0_STLB_cause_L1I_Prefetch_miss_rate 0
Core_0_STLB_cause_Other_miss 0
Core_0_STLB_cause_Other_miss_rate 0
Core_0_STLB_Demand_miss 124936
Core_0_STLB_Demand_miss_rate 0.0524972
Core_0_STLB_L1D_Prefetch_miss 34345
Core_0_STLB_L1D_Prefetch_miss_rate 0.0144315
Core_0_STLB_Other_miss 0
Core_0_STLB_Other_miss_rate 0

========== vBerti-TLB Cross-page Flow Stats ==========

Core_0_vBerti_Requested 51645256
Core_0_vBerti_Cross_page_prefetch_in_Requested 8587838
Core_0_vBerti_Same_page_prefetch_in_Requested 43057418
Core_0_vBerti_Cross_page_prefetch_of_Requested 0.166285
Core_0_vBerti_Issued 13375962
Core_0_vBerti_PQ_Drop_Rate 0.741003
Core_0_vBerti_InPQ_Cross_page_prefetch_of_Requested 0.0274602
Core_0_vBerti_Cross_page_PQ_Drop_rate 0.834861
Core_0_vBerti_Cross_page_prefetch_of_Issued 0.106025

========= DTLB_vBerti Prefetch Stats =========
Core_0_DTLB_demand_access 23262747
Core_0_DTLB_demand_hit 19850370
Core_0_DTLB_demand_miss 3412377
Core_0_DTLB_demand_mshr_merge 1130862
Core_0_DTLB_demand_fill 2281833
Core_0_DTLB_demand_miss_rate 0.146688
Core_0_DTLB_demand_mpki 34.1238
Core_0_DTLB_vberti_prefetch_access 8364686
Core_0_DTLB_vberti_prefetch_hit 8266685
Core_0_DTLB_vberti_prefetch_miss 98001
Core_0_DTLB_vberti_prefetch_mshr_merge 32415
Core_0_DTLB_vberti_prefetch_fill 65268
Core_0_DTLB_vberti_prefetch_miss_rate 0.011716
Core_0_DTLB_vberti_prefetch_mpki 0.98001

=== DTLB_vBerti Same/Cross-page Prefetch Stats ===
Core_0_DTLB_vberti_same_page_prefetch 7264219
Core_0_DTLB_vberti_same_page_prefetch_hit 7264216
Core_0_DTLB_vberti_same_page_prefetch_miss 3
Core_0_DTLB_vberti_same_page_prefetch_mshr_merge 0
Core_0_DTLB_vberti_same_page_prefetch_fill 3
Core_0_DTLB_vberti_same_page_prefetch_miss_rate 4.12983e-07
Core_0_DTLB_vberti_same_page_prefetch_mpki 3e-05
Core_0_DTLB_vberti_cross_page_prefetch 1100467
Core_0_DTLB_vberti_cross_page_prefetch_hit 1002469
Core_0_DTLB_vberti_cross_page_prefetch_miss 97998
Core_0_DTLB_vberti_cross_page_prefetch_mshr_merge 32415
Core_0_DTLB_vberti_cross_page_prefetch_fill 65265
Core_0_DTLB_vberti_cross_page_prefetch_miss_rate 0.0890513
Core_0_DTLB_vberti_cross_page_prefetch_mpki 0.97998
Core_0_DTLB_same_page_prefetch_miss_rate 4.12983e-07
Core_0_DTLB_same_page_prefetch_mpki 3e-05
Core_0_DTLB_cross_page_prefetch_miss_rate 0.0890513
Core_0_DTLB_cross_page_prefetch_mpki 0.97998
Core_0_DTLB_cross_page_prefetch_issued 1100467
Core_0_DTLB_cross_page_prefetch_lookups 1100467
Core_0_DTLB_cross_page_prefetch_useful 27309
Core_0_DTLB_cross_page_prefetch_useless 38274
Core_0_DTLB_cross_page_prefetch_late 318
Core_0_DTLB_cross_page_prefetch_too_early 5976
Core_0_DTLB_cross_page_prefetch_too_early_among_fill 0.0915652
Core_0_DTLB_cross_page_prefetch_too_early_among_useless 0.156137
Core_0_DTLB_cross_page_prefetch_pollution_evict 57096
Core_0_DTLB_cross_page_prefetch_pollution_demand 56112
Core_0_DTLB_cross_page_prefetch_pollution_among_prefetch_fill 0.874833
Core_0_DTLB_cross_page_prefetch_accuracy 0.0248158
Core_0_DTLB_cross_page_prefetch_coverage 0.00793939

========= STLB_vBerti Prefetch Stats =========
Core_0_STLB_demand_access 2314272
Core_0_STLB_demand_hit 2189336
Core_0_STLB_demand_miss 124936
Core_0_STLB_demand_mshr_merge 0
Core_0_STLB_demand_fill 124936
Core_0_STLB_demand_miss_rate 0.053985
Core_0_STLB_demand_mpki 1.24936
Core_0_STLB_vberti_prefetch_access 65586
Core_0_STLB_vberti_prefetch_hit 31241
Core_0_STLB_vberti_prefetch_miss 34345
Core_0_STLB_vberti_prefetch_mshr_merge 0
Core_0_STLB_vberti_prefetch_fill 0
Core_0_STLB_vberti_prefetch_miss_rate 0.523664
Core_0_STLB_vberti_prefetch_mpki 0.34345

=== STLB_vBerti Same/Cross-page Prefetch Stats ===
Core_0_STLB_vberti_same_page_prefetch 3
Core_0_STLB_vberti_same_page_prefetch_hit 3
Core_0_STLB_vberti_same_page_prefetch_miss 0
Core_0_STLB_vberti_same_page_prefetch_mshr_merge 0
Core_0_STLB_vberti_same_page_prefetch_fill 0
Core_0_STLB_vberti_same_page_prefetch_miss_rate 0
Core_0_STLB_vberti_same_page_prefetch_mpki 0
Core_0_STLB_vberti_cross_page_prefetch 65583
Core_0_STLB_vberti_cross_page_prefetch_hit 31238
Core_0_STLB_vberti_cross_page_prefetch_miss 34345
Core_0_STLB_vberti_cross_page_prefetch_mshr_merge 0
Core_0_STLB_vberti_cross_page_prefetch_fill 0
Core_0_STLB_vberti_cross_page_prefetch_miss_rate 0.523688
Core_0_STLB_vberti_cross_page_prefetch_mpki 0.34345
Core_0_STLB_same_page_prefetch_miss_rate 0
Core_0_STLB_same_page_prefetch_mpki 0
Core_0_STLB_cross_page_prefetch_miss_rate 0.523688
Core_0_STLB_cross_page_prefetch_mpki 0.34345
Core_0_STLB_cross_page_prefetch_issued 65583
Core_0_STLB_cross_page_prefetch_lookups 65583
Core_0_STLB_cross_page_prefetch_useful 2299
Core_0_STLB_cross_page_prefetch_useless 21499
Core_0_STLB_cross_page_prefetch_late 2299
Core_0_STLB_cross_page_prefetch_too_early 0
Core_0_STLB_cross_page_prefetch_too_early_among_fill 0
Core_0_STLB_cross_page_prefetch_too_early_among_useless 0
Core_0_STLB_cross_page_prefetch_pollution_evict 0
Core_0_STLB_cross_page_prefetch_pollution_demand 0
Core_0_STLB_cross_page_prefetch_pollution_among_prefetch_fill 0
Core_0_STLB_cross_page_prefetch_accuracy 0.0350548
Core_0_STLB_cross_page_prefetch_coverage 0.0180689

========= STLB Cross-page Prefetch Buffer Stats =========
Core_0_STLB_raw_demand_miss 123150
Core_0_CP_PB_insert 34345
Core_0_CP_PB_demand_hit 2299
Core_0_STLB_PB_demand_miss 120851
Core_0_CP_PB_coverage 0.0186683
Core_0_STLB_raw_demand_mpki 1.2315
Core_0_STLB_PB_demand_mpki 1.20851
Core_0_CP_PB_demand_hit_mpki 0.02299

Core_0_TLB_demand_miss_rate 0.00537065
Core_0_TLB_demand_mpki 1.24936
Core_0_TLB_same_page_prefetch_miss_rate 0
Core_0_TLB_same_page_prefetch_mpki 0
Core_0_TLB_cross_page_prefetch_miss_rate 0.0312095
Core_0_TLB_cross_page_prefetch_mpki 0.34345
Core_0_TLB_cross_page_prefetch_issued 1100467
Core_0_TLB_cross_page_prefetch_lookups 1100467
Core_0_TLB_cross_page_prefetch_useful 483
Core_0_TLB_cross_page_prefetch_useless 33489
Core_0_TLB_cross_page_prefetch_late 7
Core_0_TLB_cross_page_prefetch_too_early 4653
Core_0_TLB_cross_page_prefetch_too_early_among_fill 0.071294
Core_0_TLB_cross_page_prefetch_too_early_among_useless 0.138941
Core_0_TLB_cross_page_prefetch_accuracy 0.000438905
Core_0_TLB_cross_page_prefetch_coverage 0.00385109
BERTI TO_L1: 45681914 TO_L2: 15515404 TO_L2_BC_MSHR: 373354
BERTI AVG_LAT: 12.7846 NUM_TRACK_LATENCY: 6613824 NUM_CANT_TRACK_LATENCY: 0
BERTI CROSS_PAGE 10657491 NO_CROSS_PAGE: 50539827
BERTI FOUND_BERTI: 19001665 NO_FOUND_BERTI: 15910517
BERTI AVERAGE_ISSUED: 2.39306
