[VMEM] WARNING: physical memory size is smaller than virtual memory size.

*** ChampSim Multicore Out-of-Order Simulator ***
Warmup Instructions: 50000000
Simulation Instructions: 100000000
Number of CPUs: 1
Page size: 4096
Core 0: /data0/tzh/champsim_traces/SPEC17/627.cam4_s-573B.champsimtrace.xz
VBerti Prefetcher
BERTI HASH ENTANGLING
BERTI IP MASK ffff
Off-chip DRAM Size: 16 GiB Channels: 1 Width: 64-bit Data Rate: 3205 MT/s
Warmup halting CPU 0 at instruction 50000001 cycle 11027527 for remainder of phase
Warmup finished CPU 0 instructions: 50000001 cycles: 11027527 cumulative IPC: 4.534 (Simulation time: 00 hr 02 min 22 sec)
Warmup complete CPU 0 instructions: 50000001 cycles: 11027527 cumulative IPC: 4.534 (Simulation time: 00 hr 02 min 22 sec)
Simulation finished CPU 0 instructions: 100000005 cycles: 63825334 cumulative IPC: 1.567 (Simulation time: 00 hr 12 min 59 sec)
Simulation complete CPU 0 instructions: 100000005 cycles: 63825334 cumulative IPC: 1.567 (Simulation time: 00 hr 12 min 59 sec)

ChampSim completed all CPUs

=== Simulation ===
CPU 0 runs /data0/tzh/champsim_traces/SPEC17/627.cam4_s-573B.champsimtrace.xz

Region of Interest Statistics

CPU 0 cumulative IPC: 1.567 instructions: 100000005 cycles: 63825334
CPU 0 Branch Prediction Accuracy: 97.7% MPKI: 3.081 Average ROB Occupancy at Mispredict: 76.74
Branch type MPKI
BRANCH_DIRECT_JUMP: 0.00688
BRANCH_INDIRECT: 0.00261
BRANCH_CONDITIONAL: 2.396
BRANCH_DIRECT_CALL: 0.02796
BRANCH_INDIRECT_CALL: 0
BRANCH_RETURN: 0.6469

cpu0->cpu0_STLB TOTAL        ACCESS:      73770 HIT:      62291 MISS:      11479 MSHR_MERGE:          0
cpu0->cpu0_STLB LOAD         ACCESS:      73770 HIT:      62291 MISS:      11479 MSHR_MERGE:          0
cpu0->cpu0_STLB RFO          ACCESS:          0 HIT:          0 MISS:          0 MSHR_MERGE:          0
cpu0->cpu0_STLB PREFETCH     ACCESS:          0 HIT:          0 MISS:          0 MSHR_MERGE:          0
cpu0->cpu0_STLB WRITE        ACCESS:          0 HIT:          0 MISS:          0 MSHR_MERGE:          0
cpu0->cpu0_STLB TRANSLATION  ACCESS:          0 HIT:          0 MISS:          0 MSHR_MERGE:          0
cpu0->cpu0_STLB PREFETCH REQUESTED:          0 ISSUED:          0 USEFUL:          0 USELESS:          0 LATE:          0 TOO_EARLY:          0
cpu0->cpu0_STLB AVERAGE MISS LATENCY: 205.7 cycles
cpu0->cpu0_L2C TOTAL        ACCESS:    3251809 HIT:    1757637 MISS:    1494172 MSHR_MERGE:     634963
cpu0->cpu0_L2C LOAD         ACCESS:     229159 HIT:     180210 MISS:      48949 MSHR_MERGE:       1785
cpu0->cpu0_L2C RFO          ACCESS:     527960 HIT:      83588 MISS:     444372 MSHR_MERGE:     312338
cpu0->cpu0_L2C PREFETCH     ACCESS:    1828212 HIT:     829173 MISS:     999039 MSHR_MERGE:     320840
cpu0->cpu0_L2C WRITE        ACCESS:     664049 HIT:     663981 MISS:         68 MSHR_MERGE:          0
cpu0->cpu0_L2C TRANSLATION  ACCESS:       2429 HIT:        685 MISS:       1744 MSHR_MERGE:          0
cpu0->cpu0_L2C PREFETCH REQUESTED:     745572 ISSUED:     703102 USEFUL:      48987 USELESS:       1798 LATE:      31815 TOO_EARLY:        383
cpu0->cpu0_L2C AVERAGE MISS LATENCY: 607.1 cycles
cpu0->cpu0_L1I TOTAL        ACCESS:   12198045 HIT:   12134457 MISS:      63588 MSHR_MERGE:      23351
cpu0->cpu0_L1I LOAD         ACCESS:   12198045 HIT:   12134457 MISS:      63588 MSHR_MERGE:      23351
cpu0->cpu0_L1I RFO          ACCESS:          0 HIT:          0 MISS:          0 MSHR_MERGE:          0
cpu0->cpu0_L1I PREFETCH     ACCESS:          0 HIT:          0 MISS:          0 MSHR_MERGE:          0
cpu0->cpu0_L1I WRITE        ACCESS:          0 HIT:          0 MISS:          0 MSHR_MERGE:          0
cpu0->cpu0_L1I TRANSLATION  ACCESS:          0 HIT:          0 MISS:          0 MSHR_MERGE:          0
cpu0->cpu0_L1I PREFETCH REQUESTED:          0 ISSUED:          0 USEFUL:          0 USELESS:          0 LATE:          0 TOO_EARLY:          0
cpu0->cpu0_L1I AVERAGE MISS LATENCY: 67 cycles
cpu0->cpu0_L1D TOTAL        ACCESS:   26581594 HIT:   22530135 MISS:    4051459 MSHR_MERGE:    2156882
cpu0->cpu0_L1D LOAD         ACCESS:   11004154 HIT:   10720940 MISS:     283214 MSHR_MERGE:      94289
cpu0->cpu0_L1D RFO          ACCESS:          0 HIT:          0 MISS:          0 MSHR_MERGE:          0
cpu0->cpu0_L1D PREFETCH     ACCESS:    5422141 HIT:    3811029 MISS:    1611112 MSHR_MERGE:     435874
cpu0->cpu0_L1D WRITE        ACCESS:   10135030 HIT:    7980545 MISS:    2154485 MSHR_MERGE:    1626500
cpu0->cpu0_L1D TRANSLATION  ACCESS:      20269 HIT:      17621 MISS:       2648 MSHR_MERGE:        219
cpu0->cpu0_L1D PREFETCH REQUESTED:  103428692 ISSUED:    5422151 USEFUL:     218707 USELESS:      15351 LATE:      24489 TOO_EARLY:       1854
cpu0->cpu0_L1D AVERAGE MISS LATENCY: 421.2 cycles
cpu0->cpu0_ITLB TOTAL        ACCESS:   10443825 HIT:   10441233 MISS:       2592 MSHR_MERGE:       1392
cpu0->cpu0_ITLB LOAD         ACCESS:   10443825 HIT:   10441233 MISS:       2592 MSHR_MERGE:       1392
cpu0->cpu0_ITLB RFO          ACCESS:          0 HIT:          0 MISS:          0 MSHR_MERGE:          0
cpu0->cpu0_ITLB PREFETCH     ACCESS:          0 HIT:          0 MISS:          0 MSHR_MERGE:          0
cpu0->cpu0_ITLB WRITE        ACCESS:          0 HIT:          0 MISS:          0 MSHR_MERGE:          0
cpu0->cpu0_ITLB TRANSLATION  ACCESS:          0 HIT:          0 MISS:          0 MSHR_MERGE:          0
cpu0->cpu0_ITLB PREFETCH REQUESTED:          0 ISSUED:          0 USEFUL:          0 USELESS:          0 LATE:          0 TOO_EARLY:          0
cpu0->cpu0_ITLB AVERAGE MISS LATENCY: 69.42 cycles
cpu0->cpu0_DTLB TOTAL        ACCESS:   23150612 HIT:   22988965 MISS:     161647 MSHR_MERGE:      89077
cpu0->cpu0_DTLB LOAD         ACCESS:   23150612 HIT:   22988965 MISS:     161647 MSHR_MERGE:      89077
cpu0->cpu0_DTLB RFO          ACCESS:          0 HIT:          0 MISS:          0 MSHR_MERGE:          0
cpu0->cpu0_DTLB PREFETCH     ACCESS:          0 HIT:          0 MISS:          0 MSHR_MERGE:          0
cpu0->cpu0_DTLB WRITE        ACCESS:          0 HIT:          0 MISS:          0 MSHR_MERGE:          0
cpu0->cpu0_DTLB TRANSLATION  ACCESS:          0 HIT:          0 MISS:          0 MSHR_MERGE:          0
cpu0->cpu0_DTLB PREFETCH REQUESTED:          0 ISSUED:          0 USEFUL:          0 USELESS:          0 LATE:          0 TOO_EARLY:          0
cpu0->cpu0_DTLB AVERAGE MISS LATENCY: 33 cycles
cpu0->LLC TOTAL        ACCESS:    1358688 HIT:     156969 MISS:    1201719 MSHR_MERGE:     281246
cpu0->LLC LOAD         ACCESS:      47164 HIT:      13867 MISS:      33297 MSHR_MERGE:         44
cpu0->LLC RFO          ACCESS:     132033 HIT:       6185 MISS:     125848 MSHR_MERGE:      17983
cpu0->LLC PREFETCH     ACCESS:     678181 HIT:      38852 MISS:     639329 MSHR_MERGE:     263219
cpu0->LLC WRITE        ACCESS:     499566 HIT:      98003 MISS:     401563 MSHR_MERGE:          0
cpu0->LLC TRANSLATION  ACCESS:       1744 HIT:         62 MISS:       1682 MSHR_MERGE:          0
cpu0->LLC PREFETCH REQUESTED:          0 ISSUED:          0 USEFUL:          0 USELESS:          0 LATE:          0 TOO_EARLY:          0
cpu0->LLC AVERAGE MISS LATENCY: 167.5 cycles

DRAM Statistics

Channel 0 RQ ROW_BUFFER_HIT:      54268
  ROW_BUFFER_MISS:     464619
  AVG DBUS CONGESTED CYCLE: 6.627
Channel 0 WQ ROW_BUFFER_HIT:      31368
  ROW_BUFFER_MISS:     443637
  FULL:       1182
Channel 0 REFRESHES ISSUED:       5319

[ROI Statistics]
[System Configuration]
num_cpus 1
cpu_freq 4000
fetch_width 6
decode_width 6
dispatch_width 6
execute_width 6
lq_width 2
sq_width 2
retire_width 6
scheduler_size 128
branch_mispredict_penalty 15
rob_size 352
lq_size 128
sq_size 72
ifetch_buffer_size 64
decode_buffer_size 32
dispatch_buffer_size 32
register_file_size 288
decode_latency 1
dispatch_latency 1
schedule_latency 1
execute_latency 1
page_size 4096
block_size 64
core_0_itlb_set 16
core_0_itlb_way 4
core_0_itlb_rq_size 16
core_0_itlb_wq_size 16
core_0_itlb_pq_size 0
core_0_itlb_mshr_size 8
core_0_itlb_hit_latency 1
core_0_itlb_fill_latency 1
core_0_itlb_max_tag_check 2
core_0_itlb_max_fill 2
core_0_dtlb_set 16
core_0_dtlb_way 4
core_0_dtlb_rq_size 16
core_0_dtlb_wq_size 16
core_0_dtlb_pq_size 0
core_0_dtlb_mshr_size 8
core_0_dtlb_hit_latency 1
core_0_dtlb_fill_latency 1
core_0_dtlb_max_tag_check 2
core_0_dtlb_max_fill 2
core_0_stlb_set 128
core_0_stlb_way 12
core_0_stlb_rq_size 32
core_0_stlb_wq_size 32
core_0_stlb_pq_size 0
core_0_stlb_mshr_size 16
core_0_stlb_hit_latency 4
core_0_stlb_fill_latency 4
core_0_stlb_max_tag_check 1
core_0_stlb_max_fill 1
core_0_l1i_set 64
core_0_l1i_way 8
core_0_l1i_rq_size 64
core_0_l1i_wq_size 64
core_0_l1i_pq_size 32
core_0_l1i_mshr_size 8
core_0_l1i_hit_latency 2
core_0_l1i_fill_latency 2
core_0_l1i_max_tag_check 2
core_0_l1i_max_fill 2
core_0_l1d_set 64
core_0_l1d_way 12
core_0_l1d_rq_size 64
core_0_l1d_wq_size 64
core_0_l1d_pq_size 8
core_0_l1d_mshr_size 16
core_0_l1d_hit_latency 2
core_0_l1d_fill_latency 3
core_0_l1d_max_tag_check 2
core_0_l1d_max_fill 2
core_0_l2c_set 1024
core_0_l2c_way 8
core_0_l2c_rq_size 32
core_0_l2c_wq_size 32
core_0_l2c_pq_size 16
core_0_l2c_mshr_size 32
core_0_l2c_hit_latency 5
core_0_l2c_fill_latency 5
core_0_l2c_max_tag_check 1
core_0_l2c_max_fill 1
llc_set 2048
llc_way 16
llc_rq_size 32
llc_wq_size 32
llc_pq_size 32
llc_mshr_size 64
llc_hit_latency 10
llc_fill_latency 10
llc_max_tag_check 1
llc_max_fill 1
dram_channels 1
dram_ranks 1
dram_bankgroups 8
dram_banks 4
dram_rows 65536
dram_columns 1024
dram_channel_width 8
dram_rq_size 64
dram_wq_size 64
dram_size 17179869184
core_0_itlb_prefetcher no
core_0_dtlb_prefetcher no
core_0_stlb_prefetcher no
core_0_l1i_prefetcher next_line
core_0_l1d_prefetcher vberti
core_0_l2c_prefetcher ip_stride
llc_prefetcher no
llc_replacement drrip

Core_0_instructions 100000005
Core_0_cycles 63825334
Core_0_IPC 1.56678
Core_0_branch_prediction_accuracy 97.6979
Core_0_branch_MPKI 3.08078
Core_0_average_ROB_occupancy_at_mispredict 76.741

Core_0_ITLB_total_access 10443825
Core_0_ITLB_total_hit 10441233
Core_0_ITLB_total_miss 2592
Core_0_ITLB_total_MPKI 0.02592
Core_0_ITLB_total_miss_rate 0.000248185
Core_0_ITLB_demand_access 10443825
Core_0_ITLB_demand_hit 10441233
Core_0_ITLB_demand_miss 2592
Core_0_ITLB_demand_MPKI 0.02592
Core_0_ITLB_demand_miss_rate 0.000248185
Core_0_ITLB_load_access 10443825
Core_0_ITLB_load_hit 10441233
Core_0_ITLB_load_miss 2592
Core_0_ITLB_load_MPKI 0.02592
Core_0_ITLB_load_miss_rate 0.000248185
Core_0_ITLB_rfo_access 0
Core_0_ITLB_rfo_hit 0
Core_0_ITLB_rfo_miss 0
Core_0_ITLB_rfo_MPKI 0
Core_0_ITLB_rfo_miss_rate 0
Core_0_ITLB_prefetch_access 0
Core_0_ITLB_prefetch_hit 0
Core_0_ITLB_prefetch_miss 0
Core_0_ITLB_prefetch_MPKI 0
Core_0_ITLB_prefetch_miss_rate 0
Core_0_ITLB_writeback_access 0
Core_0_ITLB_writeback_hit 0
Core_0_ITLB_writeback_miss 0
Core_0_ITLB_writeback_MPKI 0
Core_0_ITLB_writeback_miss_rate 0
Core_0_ITLB_prefetch_requested 0
Core_0_ITLB_prefetch_issued 0
Core_0_ITLB_prefetch_useful 0
Core_0_ITLB_prefetch_useless 0
Core_0_ITLB_prefetch_late 0
Core_0_ITLB_prefetch_fill 0
Core_0_ITLB_prefetch_too_early 0
Core_0_ITLB_prefetch_too_early_among_fill 0
Core_0_ITLB_prefetch_too_early_among_useless 0
Core_0_ITLB_prefetch_pollution_evict 0
Core_0_ITLB_prefetch_pollution_demand 0
Core_0_ITLB_prefetch_pollution_among_prefetch_fill 0
Core_0_ITLB_prefetch_accuracy 0
Core_0_ITLB_prefetch_coverage 0

Core_0_DTLB_total_access 23150612
Core_0_DTLB_total_hit 22988965
Core_0_DTLB_total_miss 161647
Core_0_DTLB_total_MPKI 1.61647
Core_0_DTLB_total_miss_rate 0.00698241
Core_0_DTLB_demand_access 23150612
Core_0_DTLB_demand_hit 22988965
Core_0_DTLB_demand_miss 161647
Core_0_DTLB_demand_MPKI 1.61647
Core_0_DTLB_demand_miss_rate 0.00698241
Core_0_DTLB_load_access 23150612
Core_0_DTLB_load_hit 22988965
Core_0_DTLB_load_miss 161647
Core_0_DTLB_load_MPKI 1.61647
Core_0_DTLB_load_miss_rate 0.00698241
Core_0_DTLB_rfo_access 0
Core_0_DTLB_rfo_hit 0
Core_0_DTLB_rfo_miss 0
Core_0_DTLB_rfo_MPKI 0
Core_0_DTLB_rfo_miss_rate 0
Core_0_DTLB_prefetch_access 0
Core_0_DTLB_prefetch_hit 0
Core_0_DTLB_prefetch_miss 0
Core_0_DTLB_prefetch_MPKI 0
Core_0_DTLB_prefetch_miss_rate 0
Core_0_DTLB_writeback_access 0
Core_0_DTLB_writeback_hit 0
Core_0_DTLB_writeback_miss 0
Core_0_DTLB_writeback_MPKI 0
Core_0_DTLB_writeback_miss_rate 0
Core_0_DTLB_prefetch_requested 0
Core_0_DTLB_prefetch_issued 0
Core_0_DTLB_prefetch_useful 0
Core_0_DTLB_prefetch_useless 0
Core_0_DTLB_prefetch_late 0
Core_0_DTLB_prefetch_fill 0
Core_0_DTLB_prefetch_too_early 0
Core_0_DTLB_prefetch_too_early_among_fill 0
Core_0_DTLB_prefetch_too_early_among_useless 0
Core_0_DTLB_prefetch_pollution_evict 0
Core_0_DTLB_prefetch_pollution_demand 0
Core_0_DTLB_prefetch_pollution_among_prefetch_fill 0
Core_0_DTLB_prefetch_accuracy 0
Core_0_DTLB_prefetch_coverage 0

Core_0_STLB_total_access 73770
Core_0_STLB_total_hit 62291
Core_0_STLB_total_miss 11479
Core_0_STLB_total_MPKI 0.11479
Core_0_STLB_total_miss_rate 0.155605
Core_0_STLB_demand_access 73770
Core_0_STLB_demand_hit 62291
Core_0_STLB_demand_miss 11479
Core_0_STLB_demand_MPKI 0.11479
Core_0_STLB_demand_miss_rate 0.155605
Core_0_STLB_load_access 73770
Core_0_STLB_load_hit 62291
Core_0_STLB_load_miss 11479
Core_0_STLB_load_MPKI 0.11479
Core_0_STLB_load_miss_rate 0.155605
Core_0_STLB_rfo_access 0
Core_0_STLB_rfo_hit 0
Core_0_STLB_rfo_miss 0
Core_0_STLB_rfo_MPKI 0
Core_0_STLB_rfo_miss_rate 0
Core_0_STLB_prefetch_access 0
Core_0_STLB_prefetch_hit 0
Core_0_STLB_prefetch_miss 0
Core_0_STLB_prefetch_MPKI 0
Core_0_STLB_prefetch_miss_rate 0
Core_0_STLB_writeback_access 0
Core_0_STLB_writeback_hit 0
Core_0_STLB_writeback_miss 0
Core_0_STLB_writeback_MPKI 0
Core_0_STLB_writeback_miss_rate 0
Core_0_STLB_prefetch_requested 0
Core_0_STLB_prefetch_issued 0
Core_0_STLB_prefetch_useful 0
Core_0_STLB_prefetch_useless 0
Core_0_STLB_prefetch_late 0
Core_0_STLB_prefetch_fill 0
Core_0_STLB_prefetch_too_early 0
Core_0_STLB_prefetch_too_early_among_fill 0
Core_0_STLB_prefetch_too_early_among_useless 0
Core_0_STLB_prefetch_pollution_evict 0
Core_0_STLB_prefetch_pollution_demand 0
Core_0_STLB_prefetch_pollution_among_prefetch_fill 0
Core_0_STLB_prefetch_accuracy 0
Core_0_STLB_prefetch_coverage 0

Core_0_L1I_total_access 12198045
Core_0_L1I_total_hit 12134457
Core_0_L1I_total_miss 63588
Core_0_L1I_total_MPKI 0.63588
Core_0_L1I_total_miss_rate 0.00521297
Core_0_L1I_demand_access 12198045
Core_0_L1I_demand_hit 12134457
Core_0_L1I_demand_miss 63588
Core_0_L1I_demand_MPKI 0.63588
Core_0_L1I_demand_miss_rate 0.00521297
Core_0_L1I_load_access 12198045
Core_0_L1I_load_hit 12134457
Core_0_L1I_load_miss 63588
Core_0_L1I_load_MPKI 0.63588
Core_0_L1I_load_miss_rate 0.00521297
Core_0_L1I_rfo_access 0
Core_0_L1I_rfo_hit 0
Core_0_L1I_rfo_miss 0
Core_0_L1I_rfo_MPKI 0
Core_0_L1I_rfo_miss_rate 0
Core_0_L1I_prefetch_access 0
Core_0_L1I_prefetch_hit 0
Core_0_L1I_prefetch_miss 0
Core_0_L1I_prefetch_MPKI 0
Core_0_L1I_prefetch_miss_rate 0
Core_0_L1I_writeback_access 0
Core_0_L1I_writeback_hit 0
Core_0_L1I_writeback_miss 0
Core_0_L1I_writeback_MPKI 0
Core_0_L1I_writeback_miss_rate 0
Core_0_L1I_prefetch_requested 0
Core_0_L1I_prefetch_issued 0
Core_0_L1I_prefetch_useful 0
Core_0_L1I_prefetch_useless 0
Core_0_L1I_prefetch_late 0
Core_0_L1I_prefetch_fill 0
Core_0_L1I_prefetch_too_early 0
Core_0_L1I_prefetch_too_early_among_fill 0
Core_0_L1I_prefetch_too_early_among_useless 0
Core_0_L1I_prefetch_pollution_evict 0
Core_0_L1I_prefetch_pollution_demand 0
Core_0_L1I_prefetch_pollution_among_prefetch_fill 0
Core_0_L1I_prefetch_accuracy 0
Core_0_L1I_prefetch_coverage 0

Core_0_L1D_total_access 26561325
Core_0_L1D_total_hit 22512514
Core_0_L1D_total_miss 4048811
Core_0_L1D_total_MPKI 40.4881
Core_0_L1D_total_miss_rate 0.152433
Core_0_L1D_demand_access 11004154
Core_0_L1D_demand_hit 10720940
Core_0_L1D_demand_miss 283214
Core_0_L1D_demand_MPKI 2.83214
Core_0_L1D_demand_miss_rate 0.025737
Core_0_L1D_load_access 11004154
Core_0_L1D_load_hit 10720940
Core_0_L1D_load_miss 283214
Core_0_L1D_load_MPKI 2.83214
Core_0_L1D_load_miss_rate 0.025737
Core_0_L1D_rfo_access 0
Core_0_L1D_rfo_hit 0
Core_0_L1D_rfo_miss 0
Core_0_L1D_rfo_MPKI 0
Core_0_L1D_rfo_miss_rate 0
Core_0_L1D_prefetch_access 5422141
Core_0_L1D_prefetch_hit 3811029
Core_0_L1D_prefetch_miss 1611112
Core_0_L1D_prefetch_MPKI 16.1111
Core_0_L1D_prefetch_miss_rate 0.297136
Core_0_L1D_writeback_access 10135030
Core_0_L1D_writeback_hit 7980545
Core_0_L1D_writeback_miss 2154485
Core_0_L1D_writeback_MPKI 21.5448
Core_0_L1D_writeback_miss_rate 0.212578
Core_0_L1D_prefetch_requested 103428692
Core_0_L1D_prefetch_issued 5422151
Core_0_L1D_prefetch_useful 218707
Core_0_L1D_prefetch_useless 15351
Core_0_L1D_prefetch_late 24489
Core_0_L1D_prefetch_fill 209566
Core_0_L1D_prefetch_too_early 1854
Core_0_L1D_prefetch_too_early_among_fill 0.00884685
Core_0_L1D_prefetch_too_early_among_useless 0.120774
Core_0_L1D_prefetch_pollution_evict 28899
Core_0_L1D_prefetch_pollution_demand 28646
Core_0_L1D_prefetch_pollution_among_prefetch_fill 0.137899
Core_0_L1D_prefetch_accuracy 0.0403358
Core_0_L1D_prefetch_coverage 0.43574

Core_0_L2C_total_access 3249380
Core_0_L2C_total_hit 1756952
Core_0_L2C_total_miss 1492428
Core_0_L2C_total_MPKI 14.9243
Core_0_L2C_total_miss_rate 0.459296
Core_0_L2C_demand_access 757119
Core_0_L2C_demand_hit 263798
Core_0_L2C_demand_miss 493321
Core_0_L2C_demand_MPKI 4.93321
Core_0_L2C_demand_miss_rate 0.651577
Core_0_L2C_load_access 229159
Core_0_L2C_load_hit 180210
Core_0_L2C_load_miss 48949
Core_0_L2C_load_MPKI 0.48949
Core_0_L2C_load_miss_rate 0.213603
Core_0_L2C_rfo_access 527960
Core_0_L2C_rfo_hit 83588
Core_0_L2C_rfo_miss 444372
Core_0_L2C_rfo_MPKI 4.44372
Core_0_L2C_rfo_miss_rate 0.841677
Core_0_L2C_prefetch_access 1828212
Core_0_L2C_prefetch_hit 829173
Core_0_L2C_prefetch_miss 999039
Core_0_L2C_prefetch_MPKI 9.99039
Core_0_L2C_prefetch_miss_rate 0.546457
Core_0_L2C_writeback_access 664049
Core_0_L2C_writeback_hit 663981
Core_0_L2C_writeback_miss 68
Core_0_L2C_writeback_MPKI 0.00068
Core_0_L2C_writeback_miss_rate 0.000102402
Core_0_L2C_prefetch_requested 745572
Core_0_L2C_prefetch_issued 703102
Core_0_L2C_prefetch_useful 48987
Core_0_L2C_prefetch_useless 1798
Core_0_L2C_prefetch_late 31815
Core_0_L2C_prefetch_fill 76403
Core_0_L2C_prefetch_too_early 383
Core_0_L2C_prefetch_too_early_among_fill 0.00501289
Core_0_L2C_prefetch_too_early_among_useless 0.213014
Core_0_L2C_prefetch_pollution_evict 5016
Core_0_L2C_prefetch_pollution_demand 5002
Core_0_L2C_prefetch_pollution_among_prefetch_fill 0.0656519
Core_0_L2C_prefetch_accuracy 0.0696727
Core_0_L2C_prefetch_coverage 0.0903306

Core_0_LLC_total_access 1356944
Core_0_LLC_total_hit 156907
Core_0_LLC_total_miss 1200037
Core_0_LLC_total_MPKI 12.0004
Core_0_LLC_total_miss_rate 0.884367
Core_0_LLC_demand_access 179197
Core_0_LLC_demand_hit 20052
Core_0_LLC_demand_miss 159145
Core_0_LLC_demand_MPKI 1.59145
Core_0_LLC_demand_miss_rate 0.888101
Core_0_LLC_load_access 47164
Core_0_LLC_load_hit 13867
Core_0_LLC_load_miss 33297
Core_0_LLC_load_MPKI 0.33297
Core_0_LLC_load_miss_rate 0.705983
Core_0_LLC_rfo_access 132033
Core_0_LLC_rfo_hit 6185
Core_0_LLC_rfo_miss 125848
Core_0_LLC_rfo_MPKI 1.25848
Core_0_LLC_rfo_miss_rate 0.953156
Core_0_LLC_prefetch_access 678181
Core_0_LLC_prefetch_hit 38852
Core_0_LLC_prefetch_miss 639329
Core_0_LLC_prefetch_MPKI 6.39329
Core_0_LLC_prefetch_miss_rate 0.942711
Core_0_LLC_writeback_access 499566
Core_0_LLC_writeback_hit 98003
Core_0_LLC_writeback_miss 401563
Core_0_LLC_writeback_MPKI 4.01563
Core_0_LLC_writeback_miss_rate 0.803824
Core_0_LLC_prefetch_requested 0
Core_0_LLC_prefetch_issued 0
Core_0_LLC_prefetch_useful 0
Core_0_LLC_prefetch_useless 0
Core_0_LLC_prefetch_late 0
Core_0_LLC_prefetch_fill 358083
Core_0_LLC_prefetch_too_early 0
Core_0_LLC_prefetch_too_early_among_fill 0
Core_0_LLC_prefetch_too_early_among_useless 0
Core_0_LLC_prefetch_pollution_evict 2609
Core_0_LLC_prefetch_pollution_demand 2609
Core_0_LLC_prefetch_pollution_among_prefetch_fill 0.00728602
Core_0_LLC_prefetch_accuracy 0
Core_0_LLC_prefetch_coverage 0

[DRAM Statistics]
Channel_0_RQ_row_buffer_hit 54268
Channel_0_RQ_row_buffer_miss 464619
Channel_0_WQ_row_buffer_hit 31368
Channel_0_WQ_row_buffer_miss 443637
Channel_0_WQ_full 1182
Channel_0_dbus_congested 3649373
DRAM_total_RQ_row_buffer_hit 54268
DRAM_total_RQ_row_buffer_miss 464619
DRAM_total_WQ_row_buffer_hit 31368
DRAM_total_WQ_row_buffer_miss 443637
DRAM_total_WQ_full 1182
DRAM_total_dbus_congested 3649373
DRAM_avg_congested_cycle 6.62712

====== DRAM_RQ_TRAFFIC ========
DRAM_RQ_READ_TRAFFIC_BREAKDOWN:
data_demand_read.count = 130381
data_demand_read.share = 25.13%

inst_demand_read.count = 10737
inst_demand_read.share = 2.07%

cache_inst_prefetch.count = 0
cache_inst_prefetch.share = 0.00%

cache_data_prefetch.count = 376110
cache_data_prefetch.share = 72.48%

stlb_data_demand.count = 572
stlb_data_demand.share = 0.11%

stlb_inst_demand.count = 115
stlb_inst_demand.share = 0.02%

stlb_l1i_pref.count = 0
stlb_l1i_pref.share = 0.00%

stlb_l1d_pref.count = 995
stlb_l1d_pref.share = 0.19%

DRAM_RQ_READ_TRAFFIC_SUMMARY:
cache_demand.count = 141118
cache_demand.share = 27.20%

cache_prefetch.count = 376110
cache_prefetch.share = 72.48%

stlb_demand.count = 687
stlb_demand.share = 0.13%

stlb_prefetch.count = 995
stlb_prefetch.share = 0.19%

DRAM_RQ_READ_TRAFFIC_DEBUG:
total_classified_read.count = 518910
unclassified_read.count = 0
total_read_with_other.count = 518910

classified_plus_unclassified_check.count = 518910
dram_rq_read_total_observed.count = 518910
dram_rq_read_total_observed.per_1K_instructions = 5.1891

STLB_MISS_PTW_DRAM_TOUCH_BREAKDOWN:
stlb_miss_total.count = 10206

stlb_miss_touch_dram.count = 1628
stlb_miss_touch_dram.share = 15.95%

stlb_miss_no_dram_touch.count = 8578
stlb_miss_no_dram_touch.share = 84.05%

STLB_MISS_PTW_DRAM_TOUCH_DEBUG:
stlb_miss_touch_plus_no_touch.count = 10206
stlb_miss_total_check.count = 10206

======STLB miss causes ========
Core_0_STLB_miss_cause_breakdown
Core_0_STLB_cause_Demand_Data_miss 2965
Core_0_STLB_cause_Demand_Data_miss_rate 0.0401925
Core_0_STLB_cause_Demand_Instruction_miss 300
Core_0_STLB_cause_Demand_Instruction_miss_rate 0.00406669
Core_0_STLB_cause_L1D_Prefetch_miss 8214
Core_0_STLB_cause_L1D_Prefetch_miss_rate 0.111346
Core_0_STLB_cause_L1D_Prefetch_Same_Page_miss 0
Core_0_STLB_cause_L1D_Prefetch_Same_Page_miss_rate 0
Core_0_STLB_cause_L1D_Prefetch_Cross_Page_miss 8214
Core_0_STLB_cause_L1D_Prefetch_Cross_Page_miss_rate 0.111346
Core_0_STLB_cause_L1I_Prefetch_miss 0
Core_0_STLB_cause_L1I_Prefetch_miss_rate 0
Core_0_STLB_cause_Other_miss 0
Core_0_STLB_cause_Other_miss_rate 0
Core_0_STLB_Demand_miss 3265
Core_0_STLB_Demand_miss_rate 0.0442592
Core_0_STLB_L1D_Prefetch_miss 8214
Core_0_STLB_L1D_Prefetch_miss_rate 0.111346
Core_0_STLB_Other_miss 0
Core_0_STLB_Other_miss_rate 0

========== vBerti-TLB Cross-page Flow Stats ==========

Core_0_vBerti_Requested 103428692
Core_0_vBerti_Cross_page_prefetch_in_Requested 23376952
Core_0_vBerti_Same_page_prefetch_in_Requested 80051740
Core_0_vBerti_Cross_page_prefetch_of_Requested 0.22602
Core_0_vBerti_Issued 5422151
Core_0_vBerti_PQ_Drop_Rate 0.947576
Core_0_vBerti_InPQ_Cross_page_prefetch_of_Requested 0.0124491
Core_0_vBerti_Cross_page_PQ_Drop_rate 0.94492
Core_0_vBerti_Cross_page_prefetch_of_Issued 0.23747

========= DTLB_vBerti Prefetch Stats =========
Core_0_DTLB_demand_access 19937452
Core_0_DTLB_demand_hit 19822853
Core_0_DTLB_demand_miss 114599
Core_0_DTLB_demand_mshr_merge 62317
Core_0_DTLB_demand_fill 56229
Core_0_DTLB_demand_miss_rate 0.00574793
Core_0_DTLB_demand_mpki 1.14599
Core_0_DTLB_vberti_prefetch_access 3213160
Core_0_DTLB_vberti_prefetch_hit 3166112
Core_0_DTLB_vberti_prefetch_miss 47048
Core_0_DTLB_vberti_prefetch_mshr_merge 26760
Core_0_DTLB_vberti_prefetch_fill 16341
Core_0_DTLB_vberti_prefetch_miss_rate 0.0146423
Core_0_DTLB_vberti_prefetch_mpki 0.47048

=== DTLB_vBerti Same/Cross-page Prefetch Stats ===
Core_0_DTLB_vberti_same_page_prefetch 2174386
Core_0_DTLB_vberti_same_page_prefetch_hit 2174357
Core_0_DTLB_vberti_same_page_prefetch_miss 29
Core_0_DTLB_vberti_same_page_prefetch_mshr_merge 2
Core_0_DTLB_vberti_same_page_prefetch_fill 27
Core_0_DTLB_vberti_same_page_prefetch_miss_rate 1.33371e-05
Core_0_DTLB_vberti_same_page_prefetch_mpki 0.00029
Core_0_DTLB_vberti_cross_page_prefetch 1038774
Core_0_DTLB_vberti_cross_page_prefetch_hit 991755
Core_0_DTLB_vberti_cross_page_prefetch_miss 47019
Core_0_DTLB_vberti_cross_page_prefetch_mshr_merge 26758
Core_0_DTLB_vberti_cross_page_prefetch_fill 16314
Core_0_DTLB_vberti_cross_page_prefetch_miss_rate 0.0452639
Core_0_DTLB_vberti_cross_page_prefetch_mpki 0.47019
Core_0_DTLB_same_page_prefetch_miss_rate 1.33371e-05
Core_0_DTLB_same_page_prefetch_mpki 0.00029
Core_0_DTLB_cross_page_prefetch_miss_rate 0.0452639
Core_0_DTLB_cross_page_prefetch_mpki 0.47019
Core_0_DTLB_cross_page_prefetch_issued 1038774
Core_0_DTLB_cross_page_prefetch_lookups 1038774
Core_0_DTLB_cross_page_prefetch_useful 17305
Core_0_DTLB_cross_page_prefetch_useless 2956
Core_0_DTLB_cross_page_prefetch_late 3947
Core_0_DTLB_cross_page_prefetch_too_early 312
Core_0_DTLB_cross_page_prefetch_too_early_among_fill 0.0191247
Core_0_DTLB_cross_page_prefetch_too_early_among_useless 0.105548
Core_0_DTLB_cross_page_prefetch_pollution_evict 4506
Core_0_DTLB_cross_page_prefetch_pollution_demand 4016
Core_0_DTLB_cross_page_prefetch_pollution_among_prefetch_fill 0.276204
Core_0_DTLB_cross_page_prefetch_accuracy 0.0166591
Core_0_DTLB_cross_page_prefetch_coverage 0.131194

========= STLB_vBerti Prefetch Stats =========
Core_0_STLB_demand_access 53482
Core_0_STLB_demand_hit 50217
Core_0_STLB_demand_miss 3265
Core_0_STLB_demand_mshr_merge 0
Core_0_STLB_demand_fill 3265
Core_0_STLB_demand_miss_rate 0.0610486
Core_0_STLB_demand_mpki 0.03265
Core_0_STLB_vberti_prefetch_access 20288
Core_0_STLB_vberti_prefetch_hit 12074
Core_0_STLB_vberti_prefetch_miss 8214
Core_0_STLB_vberti_prefetch_mshr_merge 0
Core_0_STLB_vberti_prefetch_fill 0
Core_0_STLB_vberti_prefetch_miss_rate 0.40487
Core_0_STLB_vberti_prefetch_mpki 0.08214

=== STLB_vBerti Same/Cross-page Prefetch Stats ===
Core_0_STLB_vberti_same_page_prefetch 27
Core_0_STLB_vberti_same_page_prefetch_hit 27
Core_0_STLB_vberti_same_page_prefetch_miss 0
Core_0_STLB_vberti_same_page_prefetch_mshr_merge 0
Core_0_STLB_vberti_same_page_prefetch_fill 0
Core_0_STLB_vberti_same_page_prefetch_miss_rate 0
Core_0_STLB_vberti_same_page_prefetch_mpki 0
Core_0_STLB_vberti_cross_page_prefetch 20261
Core_0_STLB_vberti_cross_page_prefetch_hit 12047
Core_0_STLB_vberti_cross_page_prefetch_miss 8214
Core_0_STLB_vberti_cross_page_prefetch_mshr_merge 0
Core_0_STLB_vberti_cross_page_prefetch_fill 0
Core_0_STLB_vberti_cross_page_prefetch_miss_rate 0.405409
Core_0_STLB_vberti_cross_page_prefetch_mpki 0.08214
Core_0_STLB_same_page_prefetch_miss_rate 0
Core_0_STLB_same_page_prefetch_mpki 0
Core_0_STLB_cross_page_prefetch_miss_rate 0.405409
Core_0_STLB_cross_page_prefetch_mpki 0.08214
Core_0_STLB_cross_page_prefetch_issued 20261
Core_0_STLB_cross_page_prefetch_lookups 20261
Core_0_STLB_cross_page_prefetch_useful 1273
Core_0_STLB_cross_page_prefetch_useless 5500
Core_0_STLB_cross_page_prefetch_late 1273
Core_0_STLB_cross_page_prefetch_too_early 0
Core_0_STLB_cross_page_prefetch_too_early_among_fill 0
Core_0_STLB_cross_page_prefetch_too_early_among_useless 0
Core_0_STLB_cross_page_prefetch_pollution_evict 0
Core_0_STLB_cross_page_prefetch_pollution_demand 0
Core_0_STLB_cross_page_prefetch_pollution_among_prefetch_fill 0
Core_0_STLB_cross_page_prefetch_accuracy 0.0628301
Core_0_STLB_cross_page_prefetch_coverage 0.28052

========= STLB Cross-page Prefetch Buffer Stats =========
Core_0_STLB_raw_demand_miss 2965
Core_0_CP_PB_insert 8214
Core_0_CP_PB_demand_hit 1273
Core_0_STLB_PB_demand_miss 1692
Core_0_CP_PB_coverage 0.429342
Core_0_STLB_raw_demand_mpki 0.02965
Core_0_STLB_PB_demand_mpki 0.01692
Core_0_CP_PB_demand_hit_mpki 0.01273

Core_0_TLB_demand_miss_rate 0.000163762
Core_0_TLB_demand_mpki 0.03265
Core_0_TLB_same_page_prefetch_miss_rate 0
Core_0_TLB_same_page_prefetch_mpki 0
Core_0_TLB_cross_page_prefetch_miss_rate 0.0079074
Core_0_TLB_cross_page_prefetch_mpki 0.08214
Core_0_TLB_cross_page_prefetch_issued 1038774
Core_0_TLB_cross_page_prefetch_lookups 1038774
Core_0_TLB_cross_page_prefetch_useful 5140
Core_0_TLB_cross_page_prefetch_useless 707
Core_0_TLB_cross_page_prefetch_late 2384
Core_0_TLB_cross_page_prefetch_too_early 65
Core_0_TLB_cross_page_prefetch_too_early_among_fill 0.00398431
Core_0_TLB_cross_page_prefetch_too_early_among_useless 0.0919378
Core_0_TLB_cross_page_prefetch_accuracy 0.00494814
Core_0_TLB_cross_page_prefetch_coverage 0.611541
BERTI TO_L1: 18600640 TO_L2: 92992111 TO_L2_BC_MSHR: 47383595
BERTI AVG_LAT: 276.997 NUM_TRACK_LATENCY: 1191082 NUM_CANT_TRACK_LATENCY: 1274
BERTI CROSS_PAGE 25151483 NO_CROSS_PAGE: 86441268
BERTI FOUND_BERTI: 19765976 NO_FOUND_BERTI: 23074141
BERTI AVERAGE_ISSUED: 2.22053
