[VMEM] WARNING: physical memory size is smaller than virtual memory size.

*** ChampSim Multicore Out-of-Order Simulator ***
Warmup Instructions: 50000000
Simulation Instructions: 100000000
Number of CPUs: 1
Page size: 4096
Core 0: /data0/tzh/champsim_traces/SPEC17/654.roms_s-523B.champsimtrace.xz
VBerti Prefetcher
BERTI HASH ENTANGLING
BERTI IP MASK ffff
Off-chip DRAM Size: 16 GiB Channels: 1 Width: 64-bit Data Rate: 3205 MT/s
Warmup halting CPU 0 at instruction 50000000 cycle 12515901 for remainder of phase
Warmup finished CPU 0 instructions: 50000000 cycles: 12515901 cumulative IPC: 3.995 (Simulation time: 00 hr 03 min 10 sec)
Warmup complete CPU 0 instructions: 50000000 cycles: 12515901 cumulative IPC: 3.995 (Simulation time: 00 hr 03 min 10 sec)
Simulation finished CPU 0 instructions: 100000000 cycles: 73406604 cumulative IPC: 1.362 (Simulation time: 00 hr 17 min 01 sec)
Simulation complete CPU 0 instructions: 100000000 cycles: 73406604 cumulative IPC: 1.362 (Simulation time: 00 hr 17 min 01 sec)

ChampSim completed all CPUs

=== Simulation ===
CPU 0 runs /data0/tzh/champsim_traces/SPEC17/654.roms_s-523B.champsimtrace.xz

Region of Interest Statistics

CPU 0 cumulative IPC: 1.362 instructions: 100000000 cycles: 73406604
CPU 0 Branch Prediction Accuracy: 99.85% MPKI: 0.1046 Average ROB Occupancy at Mispredict: 344.8
Branch type MPKI
BRANCH_DIRECT_JUMP: 2e-05
BRANCH_INDIRECT: 0
BRANCH_CONDITIONAL: 0.1046
BRANCH_DIRECT_CALL: 0
BRANCH_INDIRECT_CALL: 0
BRANCH_RETURN: 0

cpu0->cpu0_STLB TOTAL        ACCESS:      55892 HIT:       8186 MISS:      47706 MSHR_MERGE:          0
cpu0->cpu0_STLB LOAD         ACCESS:      55892 HIT:       8186 MISS:      47706 MSHR_MERGE:          0
cpu0->cpu0_STLB RFO          ACCESS:          0 HIT:          0 MISS:          0 MSHR_MERGE:          0
cpu0->cpu0_STLB PREFETCH     ACCESS:          0 HIT:          0 MISS:          0 MSHR_MERGE:          0
cpu0->cpu0_STLB WRITE        ACCESS:          0 HIT:          0 MISS:          0 MSHR_MERGE:          0
cpu0->cpu0_STLB TRANSLATION  ACCESS:          0 HIT:          0 MISS:          0 MSHR_MERGE:          0
cpu0->cpu0_STLB PREFETCH REQUESTED:          0 ISSUED:          0 USEFUL:          0 USELESS:          0 LATE:          0 TOO_EARLY:          0
cpu0->cpu0_STLB AVERAGE MISS LATENCY: 171.3 cycles
cpu0->cpu0_L2C TOTAL        ACCESS:    6589858 HIT:    1888705 MISS:    4701153 MSHR_MERGE:    1865410
cpu0->cpu0_L2C LOAD         ACCESS:     312305 HIT:     163537 MISS:     148768 MSHR_MERGE:      49654
cpu0->cpu0_L2C RFO          ACCESS:     112723 HIT:      31399 MISS:      81324 MSHR_MERGE:      12364
cpu0->cpu0_L2C PREFETCH     ACCESS:    5387351 HIT:     926990 MISS:    4460361 MSHR_MERGE:    1803392
cpu0->cpu0_L2C WRITE        ACCESS:     766324 HIT:     766262 MISS:         62 MSHR_MERGE:          0
cpu0->cpu0_L2C TRANSLATION  ACCESS:      11155 HIT:        517 MISS:      10638 MSHR_MERGE:          0
cpu0->cpu0_L2C PREFETCH REQUESTED:    1974083 ISSUED:    1972280 USEFUL:     366917 USELESS:     165933 LATE:      28262 TOO_EARLY:        551
cpu0->cpu0_L2C AVERAGE MISS LATENCY: 350.5 cycles
cpu0->cpu0_L1I TOTAL        ACCESS:   17470419 HIT:   17470377 MISS:         42 MSHR_MERGE:         10
cpu0->cpu0_L1I LOAD         ACCESS:   17470419 HIT:   17470377 MISS:         42 MSHR_MERGE:         10
cpu0->cpu0_L1I RFO          ACCESS:          0 HIT:          0 MISS:          0 MSHR_MERGE:          0
cpu0->cpu0_L1I PREFETCH     ACCESS:          0 HIT:          0 MISS:          0 MSHR_MERGE:          0
cpu0->cpu0_L1I WRITE        ACCESS:          0 HIT:          0 MISS:          0 MSHR_MERGE:          0
cpu0->cpu0_L1I TRANSLATION  ACCESS:          0 HIT:          0 MISS:          0 MSHR_MERGE:          0
cpu0->cpu0_L1I PREFETCH REQUESTED:          0 ISSUED:          0 USEFUL:          0 USELESS:          0 LATE:          0 TOO_EARLY:          0
cpu0->cpu0_L1I AVERAGE MISS LATENCY: 394.1 cycles
cpu0->cpu0_L1D TOTAL        ACCESS:   34216415 HIT:   27932695 MISS:    6283720 MSHR_MERGE:    2355241
cpu0->cpu0_L1D LOAD         ACCESS:   19952499 HIT:   18511125 MISS:    1441374 MSHR_MERGE:    1129101
cpu0->cpu0_L1D RFO          ACCESS:          0 HIT:          0 MISS:          0 MSHR_MERGE:          0
cpu0->cpu0_L1D PREFETCH     ACCESS:    8218588 HIT:    4675578 MISS:    3543010 MSHR_MERGE:      50682
cpu0->cpu0_L1D WRITE        ACCESS:    5952622 HIT:    4664660 MISS:    1287962 MSHR_MERGE:    1175239
cpu0->cpu0_L1D TRANSLATION  ACCESS:      92706 HIT:      81332 MISS:      11374 MSHR_MERGE:        219
cpu0->cpu0_L1D PREFETCH REQUESTED:  137495286 ISSUED:    8218588 USEFUL:    1821127 USELESS:      91619 LATE:     260562 TOO_EARLY:        445
cpu0->cpu0_L1D AVERAGE MISS LATENCY: 212.3 cycles
cpu0->cpu0_ITLB TOTAL        ACCESS:   14211939 HIT:   14211939 MISS:          0 MSHR_MERGE:          0
cpu0->cpu0_ITLB LOAD         ACCESS:   14211939 HIT:   14211939 MISS:          0 MSHR_MERGE:          0
cpu0->cpu0_ITLB RFO          ACCESS:          0 HIT:          0 MISS:          0 MSHR_MERGE:          0
cpu0->cpu0_ITLB PREFETCH     ACCESS:          0 HIT:          0 MISS:          0 MSHR_MERGE:          0
cpu0->cpu0_ITLB WRITE        ACCESS:          0 HIT:          0 MISS:          0 MSHR_MERGE:          0
cpu0->cpu0_ITLB TRANSLATION  ACCESS:          0 HIT:          0 MISS:          0 MSHR_MERGE:          0
cpu0->cpu0_ITLB PREFETCH REQUESTED:          0 ISSUED:          0 USEFUL:          0 USELESS:          0 LATE:          0 TOO_EARLY:          0
cpu0->cpu0_ITLB AVERAGE MISS LATENCY: - cycles
cpu0->cpu0_DTLB TOTAL        ACCESS:   30868474 HIT:   30657764 MISS:     210710 MSHR_MERGE:     154818
cpu0->cpu0_DTLB LOAD         ACCESS:   30868474 HIT:   30657764 MISS:     210710 MSHR_MERGE:     154818
cpu0->cpu0_DTLB RFO          ACCESS:          0 HIT:          0 MISS:          0 MSHR_MERGE:          0
cpu0->cpu0_DTLB PREFETCH     ACCESS:          0 HIT:          0 MISS:          0 MSHR_MERGE:          0
cpu0->cpu0_DTLB WRITE        ACCESS:          0 HIT:          0 MISS:          0 MSHR_MERGE:          0
cpu0->cpu0_DTLB TRANSLATION  ACCESS:          0 HIT:          0 MISS:          0 MSHR_MERGE:          0
cpu0->cpu0_DTLB PREFETCH REQUESTED:          0 ISSUED:          0 USEFUL:          0 USELESS:          0 LATE:          0 TOO_EARLY:          0
cpu0->cpu0_DTLB AVERAGE MISS LATENCY: 148.3 cycles
cpu0->LLC TOTAL        ACCESS:    3601015 HIT:     330872 MISS:    3270143 MSHR_MERGE:     295184
cpu0->LLC LOAD         ACCESS:      99114 HIT:      11473 MISS:      87641 MSHR_MERGE:       3490
cpu0->LLC RFO          ACCESS:      68960 HIT:       5358 MISS:      63602 MSHR_MERGE:        500
cpu0->LLC PREFETCH     ACCESS:    2656711 HIT:     160358 MISS:    2496353 MSHR_MERGE:     291194
cpu0->LLC WRITE        ACCESS:     765592 HIT:     153676 MISS:     611916 MSHR_MERGE:          0
cpu0->LLC TRANSLATION  ACCESS:      10638 HIT:          7 MISS:      10631 MSHR_MERGE:          0
cpu0->LLC PREFETCH REQUESTED:          0 ISSUED:          0 USEFUL:          0 USELESS:          0 LATE:          0 TOO_EARLY:          0
cpu0->LLC AVERAGE MISS LATENCY: 89.59 cycles

DRAM Statistics

Channel 0 RQ ROW_BUFFER_HIT:      64838
  ROW_BUFFER_MISS:    2298087
  AVG DBUS CONGESTED CYCLE: 5.615
Channel 0 WQ ROW_BUFFER_HIT:      62304
  ROW_BUFFER_MISS:     705208
  FULL:          0
Channel 0 REFRESHES ISSUED:       6118

[ROI Statistics]
[System Configuration]
num_cpus 1
cpu_freq 4000
fetch_width 6
decode_width 6
dispatch_width 6
execute_width 6
lq_width 2
sq_width 2
retire_width 6
scheduler_size 128
branch_mispredict_penalty 15
rob_size 352
lq_size 128
sq_size 72
ifetch_buffer_size 64
decode_buffer_size 32
dispatch_buffer_size 32
register_file_size 288
decode_latency 1
dispatch_latency 1
schedule_latency 1
execute_latency 1
page_size 4096
block_size 64
core_0_itlb_set 16
core_0_itlb_way 4
core_0_itlb_rq_size 16
core_0_itlb_wq_size 16
core_0_itlb_pq_size 0
core_0_itlb_mshr_size 8
core_0_itlb_hit_latency 1
core_0_itlb_fill_latency 1
core_0_itlb_max_tag_check 2
core_0_itlb_max_fill 2
core_0_dtlb_set 16
core_0_dtlb_way 4
core_0_dtlb_rq_size 16
core_0_dtlb_wq_size 16
core_0_dtlb_pq_size 0
core_0_dtlb_mshr_size 8
core_0_dtlb_hit_latency 1
core_0_dtlb_fill_latency 1
core_0_dtlb_max_tag_check 2
core_0_dtlb_max_fill 2
core_0_stlb_set 128
core_0_stlb_way 12
core_0_stlb_rq_size 32
core_0_stlb_wq_size 32
core_0_stlb_pq_size 0
core_0_stlb_mshr_size 16
core_0_stlb_hit_latency 4
core_0_stlb_fill_latency 4
core_0_stlb_max_tag_check 1
core_0_stlb_max_fill 1
core_0_l1i_set 64
core_0_l1i_way 8
core_0_l1i_rq_size 64
core_0_l1i_wq_size 64
core_0_l1i_pq_size 32
core_0_l1i_mshr_size 8
core_0_l1i_hit_latency 2
core_0_l1i_fill_latency 2
core_0_l1i_max_tag_check 2
core_0_l1i_max_fill 2
core_0_l1d_set 64
core_0_l1d_way 12
core_0_l1d_rq_size 64
core_0_l1d_wq_size 64
core_0_l1d_pq_size 8
core_0_l1d_mshr_size 16
core_0_l1d_hit_latency 2
core_0_l1d_fill_latency 3
core_0_l1d_max_tag_check 2
core_0_l1d_max_fill 2
core_0_l2c_set 1024
core_0_l2c_way 8
core_0_l2c_rq_size 32
core_0_l2c_wq_size 32
core_0_l2c_pq_size 16
core_0_l2c_mshr_size 32
core_0_l2c_hit_latency 5
core_0_l2c_fill_latency 5
core_0_l2c_max_tag_check 1
core_0_l2c_max_fill 1
llc_set 2048
llc_way 16
llc_rq_size 32
llc_wq_size 32
llc_pq_size 32
llc_mshr_size 64
llc_hit_latency 10
llc_fill_latency 10
llc_max_tag_check 1
llc_max_fill 1
dram_channels 1
dram_ranks 1
dram_bankgroups 8
dram_banks 4
dram_rows 65536
dram_columns 1024
dram_channel_width 8
dram_rq_size 64
dram_wq_size 64
dram_size 17179869184
core_0_itlb_prefetcher no
core_0_dtlb_prefetcher no
core_0_stlb_prefetcher no
core_0_l1i_prefetcher next_line
core_0_l1d_prefetcher vberti
core_0_l2c_prefetcher ip_stride
llc_prefetcher no
llc_replacement drrip

Core_0_instructions 100000000
Core_0_cycles 73406604
Core_0_IPC 1.36228
Core_0_branch_prediction_accuracy 99.8513
Core_0_branch_MPKI 0.10459
Core_0_average_ROB_occupancy_at_mispredict 344.799

Core_0_ITLB_total_access 14211939
Core_0_ITLB_total_hit 14211939
Core_0_ITLB_total_miss 0
Core_0_ITLB_total_MPKI 0
Core_0_ITLB_total_miss_rate 0
Core_0_ITLB_demand_access 14211939
Core_0_ITLB_demand_hit 14211939
Core_0_ITLB_demand_miss 0
Core_0_ITLB_demand_MPKI 0
Core_0_ITLB_demand_miss_rate 0
Core_0_ITLB_load_access 14211939
Core_0_ITLB_load_hit 14211939
Core_0_ITLB_load_miss 0
Core_0_ITLB_load_MPKI 0
Core_0_ITLB_load_miss_rate 0
Core_0_ITLB_rfo_access 0
Core_0_ITLB_rfo_hit 0
Core_0_ITLB_rfo_miss 0
Core_0_ITLB_rfo_MPKI 0
Core_0_ITLB_rfo_miss_rate 0
Core_0_ITLB_prefetch_access 0
Core_0_ITLB_prefetch_hit 0
Core_0_ITLB_prefetch_miss 0
Core_0_ITLB_prefetch_MPKI 0
Core_0_ITLB_prefetch_miss_rate 0
Core_0_ITLB_writeback_access 0
Core_0_ITLB_writeback_hit 0
Core_0_ITLB_writeback_miss 0
Core_0_ITLB_writeback_MPKI 0
Core_0_ITLB_writeback_miss_rate 0
Core_0_ITLB_prefetch_requested 0
Core_0_ITLB_prefetch_issued 0
Core_0_ITLB_prefetch_useful 0
Core_0_ITLB_prefetch_useless 0
Core_0_ITLB_prefetch_late 0
Core_0_ITLB_prefetch_fill 0
Core_0_ITLB_prefetch_too_early 0
Core_0_ITLB_prefetch_too_early_among_fill 0
Core_0_ITLB_prefetch_too_early_among_useless 0
Core_0_ITLB_prefetch_pollution_evict 0
Core_0_ITLB_prefetch_pollution_demand 0
Core_0_ITLB_prefetch_pollution_among_prefetch_fill 0
Core_0_ITLB_prefetch_accuracy 0
Core_0_ITLB_prefetch_coverage 0

Core_0_DTLB_total_access 30868474
Core_0_DTLB_total_hit 30657764
Core_0_DTLB_total_miss 210710
Core_0_DTLB_total_MPKI 2.1071
Core_0_DTLB_total_miss_rate 0.00682606
Core_0_DTLB_demand_access 30868474
Core_0_DTLB_demand_hit 30657764
Core_0_DTLB_demand_miss 210710
Core_0_DTLB_demand_MPKI 2.1071
Core_0_DTLB_demand_miss_rate 0.00682606
Core_0_DTLB_load_access 30868474
Core_0_DTLB_load_hit 30657764
Core_0_DTLB_load_miss 210710
Core_0_DTLB_load_MPKI 2.1071
Core_0_DTLB_load_miss_rate 0.00682606
Core_0_DTLB_rfo_access 0
Core_0_DTLB_rfo_hit 0
Core_0_DTLB_rfo_miss 0
Core_0_DTLB_rfo_MPKI 0
Core_0_DTLB_rfo_miss_rate 0
Core_0_DTLB_prefetch_access 0
Core_0_DTLB_prefetch_hit 0
Core_0_DTLB_prefetch_miss 0
Core_0_DTLB_prefetch_MPKI 0
Core_0_DTLB_prefetch_miss_rate 0
Core_0_DTLB_writeback_access 0
Core_0_DTLB_writeback_hit 0
Core_0_DTLB_writeback_miss 0
Core_0_DTLB_writeback_MPKI 0
Core_0_DTLB_writeback_miss_rate 0
Core_0_DTLB_prefetch_requested 0
Core_0_DTLB_prefetch_issued 0
Core_0_DTLB_prefetch_useful 0
Core_0_DTLB_prefetch_useless 0
Core_0_DTLB_prefetch_late 0
Core_0_DTLB_prefetch_fill 0
Core_0_DTLB_prefetch_too_early 0
Core_0_DTLB_prefetch_too_early_among_fill 0
Core_0_DTLB_prefetch_too_early_among_useless 0
Core_0_DTLB_prefetch_pollution_evict 0
Core_0_DTLB_prefetch_pollution_demand 0
Core_0_DTLB_prefetch_pollution_among_prefetch_fill 0
Core_0_DTLB_prefetch_accuracy 0
Core_0_DTLB_prefetch_coverage 0

Core_0_STLB_total_access 55892
Core_0_STLB_total_hit 8186
Core_0_STLB_total_miss 47706
Core_0_STLB_total_MPKI 0.47706
Core_0_STLB_total_miss_rate 0.853539
Core_0_STLB_demand_access 55892
Core_0_STLB_demand_hit 8186
Core_0_STLB_demand_miss 47706
Core_0_STLB_demand_MPKI 0.47706
Core_0_STLB_demand_miss_rate 0.853539
Core_0_STLB_load_access 55892
Core_0_STLB_load_hit 8186
Core_0_STLB_load_miss 47706
Core_0_STLB_load_MPKI 0.47706
Core_0_STLB_load_miss_rate 0.853539
Core_0_STLB_rfo_access 0
Core_0_STLB_rfo_hit 0
Core_0_STLB_rfo_miss 0
Core_0_STLB_rfo_MPKI 0
Core_0_STLB_rfo_miss_rate 0
Core_0_STLB_prefetch_access 0
Core_0_STLB_prefetch_hit 0
Core_0_STLB_prefetch_miss 0
Core_0_STLB_prefetch_MPKI 0
Core_0_STLB_prefetch_miss_rate 0
Core_0_STLB_writeback_access 0
Core_0_STLB_writeback_hit 0
Core_0_STLB_writeback_miss 0
Core_0_STLB_writeback_MPKI 0
Core_0_STLB_writeback_miss_rate 0
Core_0_STLB_prefetch_requested 0
Core_0_STLB_prefetch_issued 0
Core_0_STLB_prefetch_useful 0
Core_0_STLB_prefetch_useless 0
Core_0_STLB_prefetch_late 0
Core_0_STLB_prefetch_fill 0
Core_0_STLB_prefetch_too_early 0
Core_0_STLB_prefetch_too_early_among_fill 0
Core_0_STLB_prefetch_too_early_among_useless 0
Core_0_STLB_prefetch_pollution_evict 0
Core_0_STLB_prefetch_pollution_demand 0
Core_0_STLB_prefetch_pollution_among_prefetch_fill 0
Core_0_STLB_prefetch_accuracy 0
Core_0_STLB_prefetch_coverage 0

Core_0_L1I_total_access 17470419
Core_0_L1I_total_hit 17470377
Core_0_L1I_total_miss 42
Core_0_L1I_total_MPKI 0.00042
Core_0_L1I_total_miss_rate 2.40406e-06
Core_0_L1I_demand_access 17470419
Core_0_L1I_demand_hit 17470377
Core_0_L1I_demand_miss 42
Core_0_L1I_demand_MPKI 0.00042
Core_0_L1I_demand_miss_rate 2.40406e-06
Core_0_L1I_load_access 17470419
Core_0_L1I_load_hit 17470377
Core_0_L1I_load_miss 42
Core_0_L1I_load_MPKI 0.00042
Core_0_L1I_load_miss_rate 2.40406e-06
Core_0_L1I_rfo_access 0
Core_0_L1I_rfo_hit 0
Core_0_L1I_rfo_miss 0
Core_0_L1I_rfo_MPKI 0
Core_0_L1I_rfo_miss_rate 0
Core_0_L1I_prefetch_access 0
Core_0_L1I_prefetch_hit 0
Core_0_L1I_prefetch_miss 0
Core_0_L1I_prefetch_MPKI 0
Core_0_L1I_prefetch_miss_rate 0
Core_0_L1I_writeback_access 0
Core_0_L1I_writeback_hit 0
Core_0_L1I_writeback_miss 0
Core_0_L1I_writeback_MPKI 0
Core_0_L1I_writeback_miss_rate 0
Core_0_L1I_prefetch_requested 0
Core_0_L1I_prefetch_issued 0
Core_0_L1I_prefetch_useful 0
Core_0_L1I_prefetch_useless 0
Core_0_L1I_prefetch_late 0
Core_0_L1I_prefetch_fill 0
Core_0_L1I_prefetch_too_early 0
Core_0_L1I_prefetch_too_early_among_fill 0
Core_0_L1I_prefetch_too_early_among_useless 0
Core_0_L1I_prefetch_pollution_evict 0
Core_0_L1I_prefetch_pollution_demand 0
Core_0_L1I_prefetch_pollution_among_prefetch_fill 0
Core_0_L1I_prefetch_accuracy 0
Core_0_L1I_prefetch_coverage 0

Core_0_L1D_total_access 34123709
Core_0_L1D_total_hit 27851363
Core_0_L1D_total_miss 6272346
Core_0_L1D_total_MPKI 62.7235
Core_0_L1D_total_miss_rate 0.183812
Core_0_L1D_demand_access 19952499
Core_0_L1D_demand_hit 18511125
Core_0_L1D_demand_miss 1441374
Core_0_L1D_demand_MPKI 14.4137
Core_0_L1D_demand_miss_rate 0.0722403
Core_0_L1D_load_access 19952499
Core_0_L1D_load_hit 18511125
Core_0_L1D_load_miss 1441374
Core_0_L1D_load_MPKI 14.4137
Core_0_L1D_load_miss_rate 0.0722403
Core_0_L1D_rfo_access 0
Core_0_L1D_rfo_hit 0
Core_0_L1D_rfo_miss 0
Core_0_L1D_rfo_MPKI 0
Core_0_L1D_rfo_miss_rate 0
Core_0_L1D_prefetch_access 8218588
Core_0_L1D_prefetch_hit 4675578
Core_0_L1D_prefetch_miss 3543010
Core_0_L1D_prefetch_MPKI 35.4301
Core_0_L1D_prefetch_miss_rate 0.431097
Core_0_L1D_writeback_access 5952622
Core_0_L1D_writeback_hit 4664660
Core_0_L1D_writeback_miss 1287962
Core_0_L1D_writeback_MPKI 12.8796
Core_0_L1D_writeback_miss_rate 0.216369
Core_0_L1D_prefetch_requested 137495286
Core_0_L1D_prefetch_issued 8218588
Core_0_L1D_prefetch_useful 1821127
Core_0_L1D_prefetch_useless 91619
Core_0_L1D_prefetch_late 260562
Core_0_L1D_prefetch_fill 1652220
Core_0_L1D_prefetch_too_early 445
Core_0_L1D_prefetch_too_early_among_fill 0.000269335
Core_0_L1D_prefetch_too_early_among_useless 0.00485707
Core_0_L1D_prefetch_pollution_evict 3273
Core_0_L1D_prefetch_pollution_demand 3259
Core_0_L1D_prefetch_pollution_among_prefetch_fill 0.00198097
Core_0_L1D_prefetch_accuracy 0.221586
Core_0_L1D_prefetch_coverage 0.5582

Core_0_L2C_total_access 6578703
Core_0_L2C_total_hit 1888188
Core_0_L2C_total_miss 4690515
Core_0_L2C_total_MPKI 46.9051
Core_0_L2C_total_miss_rate 0.712985
Core_0_L2C_demand_access 425028
Core_0_L2C_demand_hit 194936
Core_0_L2C_demand_miss 230092
Core_0_L2C_demand_MPKI 2.30092
Core_0_L2C_demand_miss_rate 0.541357
Core_0_L2C_load_access 312305
Core_0_L2C_load_hit 163537
Core_0_L2C_load_miss 148768
Core_0_L2C_load_MPKI 1.48768
Core_0_L2C_load_miss_rate 0.476355
Core_0_L2C_rfo_access 112723
Core_0_L2C_rfo_hit 31399
Core_0_L2C_rfo_miss 81324
Core_0_L2C_rfo_MPKI 0.81324
Core_0_L2C_rfo_miss_rate 0.72145
Core_0_L2C_prefetch_access 5387351
Core_0_L2C_prefetch_hit 926990
Core_0_L2C_prefetch_miss 4460361
Core_0_L2C_prefetch_MPKI 44.6036
Core_0_L2C_prefetch_miss_rate 0.827932
Core_0_L2C_writeback_access 766324
Core_0_L2C_writeback_hit 766262
Core_0_L2C_writeback_miss 62
Core_0_L2C_writeback_MPKI 0.00062
Core_0_L2C_writeback_miss_rate 8.09057e-05
Core_0_L2C_prefetch_requested 1974083
Core_0_L2C_prefetch_issued 1972280
Core_0_L2C_prefetch_useful 366917
Core_0_L2C_prefetch_useless 165933
Core_0_L2C_prefetch_late 28262
Core_0_L2C_prefetch_fill 2139991
Core_0_L2C_prefetch_too_early 551
Core_0_L2C_prefetch_too_early_among_fill 0.000257478
Core_0_L2C_prefetch_too_early_among_useless 0.00332062
Core_0_L2C_prefetch_pollution_evict 30
Core_0_L2C_prefetch_pollution_demand 30
Core_0_L2C_prefetch_pollution_among_prefetch_fill 1.40188e-05
Core_0_L2C_prefetch_accuracy 0.186037
Core_0_L2C_prefetch_coverage 0.614592

Core_0_LLC_total_access 3590377
Core_0_LLC_total_hit 330865
Core_0_LLC_total_miss 3259512
Core_0_LLC_total_MPKI 32.5951
Core_0_LLC_total_miss_rate 0.907847
Core_0_LLC_demand_access 168074
Core_0_LLC_demand_hit 16831
Core_0_LLC_demand_miss 151243
Core_0_LLC_demand_MPKI 1.51243
Core_0_LLC_demand_miss_rate 0.89986
Core_0_LLC_load_access 99114
Core_0_LLC_load_hit 11473
Core_0_LLC_load_miss 87641
Core_0_LLC_load_MPKI 0.87641
Core_0_LLC_load_miss_rate 0.884244
Core_0_LLC_rfo_access 68960
Core_0_LLC_rfo_hit 5358
Core_0_LLC_rfo_miss 63602
Core_0_LLC_rfo_MPKI 0.63602
Core_0_LLC_rfo_miss_rate 0.922303
Core_0_LLC_prefetch_access 2656711
Core_0_LLC_prefetch_hit 160358
Core_0_LLC_prefetch_miss 2496353
Core_0_LLC_prefetch_MPKI 24.9635
Core_0_LLC_prefetch_miss_rate 0.93964
Core_0_LLC_writeback_access 765592
Core_0_LLC_writeback_hit 153676
Core_0_LLC_writeback_miss 611916
Core_0_LLC_writeback_MPKI 6.11916
Core_0_LLC_writeback_miss_rate 0.799272
Core_0_LLC_prefetch_requested 0
Core_0_LLC_prefetch_issued 0
Core_0_LLC_prefetch_useful 0
Core_0_LLC_prefetch_useless 0
Core_0_LLC_prefetch_late 0
Core_0_LLC_prefetch_fill 2201157
Core_0_LLC_prefetch_too_early 0
Core_0_LLC_prefetch_too_early_among_fill 0
Core_0_LLC_prefetch_too_early_among_useless 0
Core_0_LLC_prefetch_pollution_evict 803
Core_0_LLC_prefetch_pollution_demand 803
Core_0_LLC_prefetch_pollution_among_prefetch_fill 0.000364808
Core_0_LLC_prefetch_accuracy 0
Core_0_LLC_prefetch_coverage 0

[DRAM Statistics]
Channel_0_RQ_row_buffer_hit 64838
Channel_0_RQ_row_buffer_miss 2298087
Channel_0_WQ_row_buffer_hit 62304
Channel_0_WQ_row_buffer_miss 705208
Channel_0_WQ_full 0
Channel_0_dbus_congested 8874928
DRAM_total_RQ_row_buffer_hit 64838
DRAM_total_RQ_row_buffer_miss 2298087
DRAM_total_WQ_row_buffer_hit 62304
DRAM_total_WQ_row_buffer_miss 705208
DRAM_total_WQ_full 0
DRAM_total_dbus_congested 8874928
DRAM_avg_congested_cycle 5.61534

====== DRAM_RQ_TRAFFIC ========
DRAM_RQ_READ_TRAFFIC_BREAKDOWN:
data_demand_read.count = 147221
data_demand_read.share = 6.23%

inst_demand_read.count = 32
inst_demand_read.share = 0.00%

cache_inst_prefetch.count = 0
cache_inst_prefetch.share = 0.00%

cache_data_prefetch.count = 2205159
cache_data_prefetch.share = 93.32%

stlb_data_demand.count = 3491
stlb_data_demand.share = 0.15%

stlb_inst_demand.count = 0
stlb_inst_demand.share = 0.00%

stlb_l1i_pref.count = 0
stlb_l1i_pref.share = 0.00%

stlb_l1d_pref.count = 7140
stlb_l1d_pref.share = 0.30%

DRAM_RQ_READ_TRAFFIC_SUMMARY:
cache_demand.count = 147253
cache_demand.share = 6.23%

cache_prefetch.count = 2205159
cache_prefetch.share = 93.32%

stlb_demand.count = 3491
stlb_demand.share = 0.15%

stlb_prefetch.count = 7140
stlb_prefetch.share = 0.30%

DRAM_RQ_READ_TRAFFIC_DEBUG:
total_classified_read.count = 2363043
unclassified_read.count = 0
total_read_with_other.count = 2363043

classified_plus_unclassified_check.count = 2363043
dram_rq_read_total_observed.count = 2363043
dram_rq_read_total_observed.per_1K_instructions = 23.6304

STLB_MISS_PTW_DRAM_TOUCH_BREAKDOWN:
stlb_miss_total.count = 46472

stlb_miss_touch_dram.count = 10542
stlb_miss_touch_dram.share = 22.68%

stlb_miss_no_dram_touch.count = 35930
stlb_miss_no_dram_touch.share = 77.32%

STLB_MISS_PTW_DRAM_TOUCH_DEBUG:
stlb_miss_touch_plus_no_touch.count = 46472
stlb_miss_total_check.count = 46472

======STLB miss causes ========
Core_0_STLB_miss_cause_breakdown
Core_0_STLB_cause_Demand_Data_miss 11397
Core_0_STLB_cause_Demand_Data_miss_rate 0.203911
Core_0_STLB_cause_Demand_Instruction_miss 0
Core_0_STLB_cause_Demand_Instruction_miss_rate 0
Core_0_STLB_cause_L1D_Prefetch_miss 36309
Core_0_STLB_cause_L1D_Prefetch_miss_rate 0.649628
Core_0_STLB_cause_L1D_Prefetch_Same_Page_miss 3
Core_0_STLB_cause_L1D_Prefetch_Same_Page_miss_rate 5.36749e-05
Core_0_STLB_cause_L1D_Prefetch_Cross_Page_miss 36306
Core_0_STLB_cause_L1D_Prefetch_Cross_Page_miss_rate 0.649574
Core_0_STLB_cause_L1I_Prefetch_miss 0
Core_0_STLB_cause_L1I_Prefetch_miss_rate 0
Core_0_STLB_cause_Other_miss 0
Core_0_STLB_cause_Other_miss_rate 0
Core_0_STLB_Demand_miss 11397
Core_0_STLB_Demand_miss_rate 0.203911
Core_0_STLB_L1D_Prefetch_miss 36309
Core_0_STLB_L1D_Prefetch_miss_rate 0.649628
Core_0_STLB_Other_miss 0
Core_0_STLB_Other_miss_rate 0

========== vBerti-TLB Cross-page Flow Stats ==========

Core_0_vBerti_Requested 137495286
Core_0_vBerti_Cross_page_prefetch_in_Requested 17701407
Core_0_vBerti_Same_page_prefetch_in_Requested 119793879
Core_0_vBerti_Cross_page_prefetch_of_Requested 0.128742
Core_0_vBerti_Issued 8218588
Core_0_vBerti_PQ_Drop_Rate 0.940226
Core_0_vBerti_InPQ_Cross_page_prefetch_of_Requested 0.00623159
Core_0_vBerti_Cross_page_PQ_Drop_rate 0.951596
Core_0_vBerti_Cross_page_prefetch_of_Issued 0.104253

========= DTLB_vBerti Prefetch Stats =========
Core_0_DTLB_demand_access 24111199
Core_0_DTLB_demand_hit 24021730
Core_0_DTLB_demand_miss 89469
Core_0_DTLB_demand_mshr_merge 72485
Core_0_DTLB_demand_fill 19473
Core_0_DTLB_demand_miss_rate 0.00371068
Core_0_DTLB_demand_mpki 0.89469
Core_0_DTLB_vberti_prefetch_access 6757275
Core_0_DTLB_vberti_prefetch_hit 6636034
Core_0_DTLB_vberti_prefetch_miss 121241
Core_0_DTLB_vberti_prefetch_mshr_merge 82333
Core_0_DTLB_vberti_prefetch_fill 36419
Core_0_DTLB_vberti_prefetch_miss_rate 0.0179423
Core_0_DTLB_vberti_prefetch_mpki 1.21241

=== DTLB_vBerti Same/Cross-page Prefetch Stats ===
Core_0_DTLB_vberti_same_page_prefetch 5991191
Core_0_DTLB_vberti_same_page_prefetch_hit 5991142
Core_0_DTLB_vberti_same_page_prefetch_miss 49
Core_0_DTLB_vberti_same_page_prefetch_mshr_merge 20
Core_0_DTLB_vberti_same_page_prefetch_fill 8
Core_0_DTLB_vberti_same_page_prefetch_miss_rate 8.17867e-06
Core_0_DTLB_vberti_same_page_prefetch_mpki 0.00049
Core_0_DTLB_vberti_cross_page_prefetch 766084
Core_0_DTLB_vberti_cross_page_prefetch_hit 644892
Core_0_DTLB_vberti_cross_page_prefetch_miss 121192
Core_0_DTLB_vberti_cross_page_prefetch_mshr_merge 82313
Core_0_DTLB_vberti_cross_page_prefetch_fill 36411
Core_0_DTLB_vberti_cross_page_prefetch_miss_rate 0.158197
Core_0_DTLB_vberti_cross_page_prefetch_mpki 1.21192
Core_0_DTLB_same_page_prefetch_miss_rate 8.17867e-06
Core_0_DTLB_same_page_prefetch_mpki 0.00049
Core_0_DTLB_cross_page_prefetch_miss_rate 0.158197
Core_0_DTLB_cross_page_prefetch_mpki 1.21192
Core_0_DTLB_cross_page_prefetch_issued 766084
Core_0_DTLB_cross_page_prefetch_lookups 766084
Core_0_DTLB_cross_page_prefetch_useful 35139
Core_0_DTLB_cross_page_prefetch_useless 3740
Core_0_DTLB_cross_page_prefetch_late 2468
Core_0_DTLB_cross_page_prefetch_too_early 50
Core_0_DTLB_cross_page_prefetch_too_early_among_fill 0.00137321
Core_0_DTLB_cross_page_prefetch_too_early_among_useless 0.013369
Core_0_DTLB_cross_page_prefetch_pollution_evict 478
Core_0_DTLB_cross_page_prefetch_pollution_demand 386
Core_0_DTLB_cross_page_prefetch_pollution_among_prefetch_fill 0.0131279
Core_0_DTLB_cross_page_prefetch_accuracy 0.0458683
Core_0_DTLB_cross_page_prefetch_coverage 0.281996

========= STLB_vBerti Prefetch Stats =========
Core_0_STLB_demand_access 16984
Core_0_STLB_demand_hit 5587
Core_0_STLB_demand_miss 11397
Core_0_STLB_demand_mshr_merge 0
Core_0_STLB_demand_fill 11397
Core_0_STLB_demand_miss_rate 0.671043
Core_0_STLB_demand_mpki 0.11397
Core_0_STLB_vberti_prefetch_access 38908
Core_0_STLB_vberti_prefetch_hit 2599
Core_0_STLB_vberti_prefetch_miss 36309
Core_0_STLB_vberti_prefetch_mshr_merge 0
Core_0_STLB_vberti_prefetch_fill 3
Core_0_STLB_vberti_prefetch_miss_rate 0.933201
Core_0_STLB_vberti_prefetch_mpki 0.36309

=== STLB_vBerti Same/Cross-page Prefetch Stats ===
Core_0_STLB_vberti_same_page_prefetch 29
Core_0_STLB_vberti_same_page_prefetch_hit 26
Core_0_STLB_vberti_same_page_prefetch_miss 3
Core_0_STLB_vberti_same_page_prefetch_mshr_merge 0
Core_0_STLB_vberti_same_page_prefetch_fill 3
Core_0_STLB_vberti_same_page_prefetch_miss_rate 0.103448
Core_0_STLB_vberti_same_page_prefetch_mpki 3e-05
Core_0_STLB_vberti_cross_page_prefetch 38879
Core_0_STLB_vberti_cross_page_prefetch_hit 2573
Core_0_STLB_vberti_cross_page_prefetch_miss 36306
Core_0_STLB_vberti_cross_page_prefetch_mshr_merge 0
Core_0_STLB_vberti_cross_page_prefetch_fill 0
Core_0_STLB_vberti_cross_page_prefetch_miss_rate 0.93382
Core_0_STLB_vberti_cross_page_prefetch_mpki 0.36306
Core_0_STLB_same_page_prefetch_miss_rate 0.103448
Core_0_STLB_same_page_prefetch_mpki 3e-05
Core_0_STLB_cross_page_prefetch_miss_rate 0.93382
Core_0_STLB_cross_page_prefetch_mpki 0.36306
Core_0_STLB_cross_page_prefetch_issued 38879
Core_0_STLB_cross_page_prefetch_lookups 38879
Core_0_STLB_cross_page_prefetch_useful 1234
Core_0_STLB_cross_page_prefetch_useless 34204
Core_0_STLB_cross_page_prefetch_late 1234
Core_0_STLB_cross_page_prefetch_too_early 0
Core_0_STLB_cross_page_prefetch_too_early_among_fill 0
Core_0_STLB_cross_page_prefetch_too_early_among_useless 0
Core_0_STLB_cross_page_prefetch_pollution_evict 0
Core_0_STLB_cross_page_prefetch_pollution_demand 0
Core_0_STLB_cross_page_prefetch_pollution_among_prefetch_fill 0
Core_0_STLB_cross_page_prefetch_accuracy 0.0317395
Core_0_STLB_cross_page_prefetch_coverage 0.0976961

========= STLB Cross-page Prefetch Buffer Stats =========
Core_0_STLB_raw_demand_miss 11397
Core_0_CP_PB_insert 36306
Core_0_CP_PB_demand_hit 1234
Core_0_STLB_PB_demand_miss 10163
Core_0_CP_PB_coverage 0.108274
Core_0_STLB_raw_demand_mpki 0.11397
Core_0_STLB_PB_demand_mpki 0.10163
Core_0_CP_PB_demand_hit_mpki 0.01234

Core_0_TLB_demand_miss_rate 0.000472685
Core_0_TLB_demand_mpki 0.11397
Core_0_TLB_same_page_prefetch_miss_rate 5.00735e-07
Core_0_TLB_same_page_prefetch_mpki 3e-05
Core_0_TLB_cross_page_prefetch_miss_rate 0.0473917
Core_0_TLB_cross_page_prefetch_mpki 0.36306
Core_0_TLB_cross_page_prefetch_issued 766084
Core_0_TLB_cross_page_prefetch_lookups 766084
Core_0_TLB_cross_page_prefetch_useful 15952
Core_0_TLB_cross_page_prefetch_useless 3158
Core_0_TLB_cross_page_prefetch_late 1480
Core_0_TLB_cross_page_prefetch_too_early 39
Core_0_TLB_cross_page_prefetch_too_early_among_fill 0.0010711
Core_0_TLB_cross_page_prefetch_too_early_among_useless 0.0123496
Core_0_TLB_cross_page_prefetch_accuracy 0.0208228
Core_0_TLB_cross_page_prefetch_coverage 0.583275
BERTI TO_L1: 128428450 TO_L2: 61401617 TO_L2_BC_MSHR: 22076097
BERTI AVG_LAT: 202.297 NUM_TRACK_LATENCY: 3562453 NUM_CANT_TRACK_LATENCY: 2
BERTI CROSS_PAGE 25177900 NO_CROSS_PAGE: 164652167
BERTI FOUND_BERTI: 25664901 NO_FOUND_BERTI: 10930492
BERTI AVERAGE_ISSUED: 1.56929
