[VMEM] WARNING: physical memory size is smaller than virtual memory size.

*** ChampSim Multicore Out-of-Order Simulator ***
Warmup Instructions: 50000000
Simulation Instructions: 100000000
Number of CPUs: 1
Page size: 4096
Core 0: /data2/zcq/champsim_traces_gap/bfs.road-19B.champsimtrace.xz
VBerti Prefetcher
BERTI HASH ENTANGLING
BERTI IP MASK ffff
Off-chip DRAM Size: 16 GiB Channels: 1 Width: 64-bit Data Rate: 3205 MT/s
Warmup halting CPU 0 at instruction 50000000 cycle 16119237 for remainder of phase
Warmup finished CPU 0 instructions: 50000000 cycles: 16119237 cumulative IPC: 3.102 (Simulation time: 00 hr 03 min 30 sec)
Warmup complete CPU 0 instructions: 50000000 cycles: 16119237 cumulative IPC: 3.102 (Simulation time: 00 hr 03 min 30 sec)
Simulation finished CPU 0 instructions: 100000000 cycles: 424174578 cumulative IPC: 0.2358 (Simulation time: 00 hr 34 min 32 sec)
Simulation complete CPU 0 instructions: 100000000 cycles: 424174578 cumulative IPC: 0.2358 (Simulation time: 00 hr 34 min 32 sec)

ChampSim completed all CPUs

=== Simulation ===
CPU 0 runs /data2/zcq/champsim_traces_gap/bfs.road-19B.champsimtrace.xz

Region of Interest Statistics

CPU 0 cumulative IPC: 0.2358 instructions: 100000000 cycles: 424174578
CPU 0 Branch Prediction Accuracy: 86.76% MPKI: 23.03 Average ROB Occupancy at Mispredict: 20.54
Branch type MPKI
BRANCH_DIRECT_JUMP: 0.00789
BRANCH_INDIRECT: 0.01578
BRANCH_CONDITIONAL: 22.96
BRANCH_DIRECT_CALL: 0
BRANCH_INDIRECT_CALL: 0.00789
BRANCH_RETURN: 0.03156

cpu0->cpu0_STLB TOTAL        ACCESS:    1286594 HIT:    1058939 MISS:     227655 MSHR_MERGE:          0
cpu0->cpu0_STLB LOAD         ACCESS:    1286594 HIT:    1058939 MISS:     227655 MSHR_MERGE:          0
cpu0->cpu0_STLB RFO          ACCESS:          0 HIT:          0 MISS:          0 MSHR_MERGE:          0
cpu0->cpu0_STLB PREFETCH     ACCESS:          0 HIT:          0 MISS:          0 MSHR_MERGE:          0
cpu0->cpu0_STLB WRITE        ACCESS:          0 HIT:          0 MISS:          0 MSHR_MERGE:          0
cpu0->cpu0_STLB TRANSLATION  ACCESS:          0 HIT:          0 MISS:          0 MSHR_MERGE:          0
cpu0->cpu0_STLB PREFETCH REQUESTED:          0 ISSUED:          0 USEFUL:          0 USELESS:          0 LATE:          0 TOO_EARLY:          0
cpu0->cpu0_STLB AVERAGE MISS LATENCY: 41.31 cycles
cpu0->cpu0_L2C TOTAL        ACCESS:   11295629 HIT:    7601099 MISS:    3694530 MSHR_MERGE:      98959
cpu0->cpu0_L2C LOAD         ACCESS:    4955603 HIT:    1705390 MISS:    3250213 MSHR_MERGE:        505
cpu0->cpu0_L2C RFO          ACCESS:      22021 HIT:      13872 MISS:       8149 MSHR_MERGE:          0
cpu0->cpu0_L2C PREFETCH     ACCESS:    4652583 HIT:    4302143 MISS:     350440 MSHR_MERGE:      98454
cpu0->cpu0_L2C WRITE        ACCESS:    1492956 HIT:    1492954 MISS:          2 MSHR_MERGE:          0
cpu0->cpu0_L2C TRANSLATION  ACCESS:     172466 HIT:      86740 MISS:      85726 MSHR_MERGE:          0
cpu0->cpu0_L2C PREFETCH REQUESTED:    1065871 ISSUED:    1050391 USEFUL:     101222 USELESS:      26300 LATE:        145 TOO_EARLY:      15852
cpu0->cpu0_L2C AVERAGE MISS LATENCY: 71.57 cycles
cpu0->cpu0_L1I TOTAL        ACCESS:    7390189 HIT:    7360852 MISS:      29337 MSHR_MERGE:       8823
cpu0->cpu0_L1I LOAD         ACCESS:    7390189 HIT:    7360852 MISS:      29337 MSHR_MERGE:       8823
cpu0->cpu0_L1I RFO          ACCESS:          0 HIT:          0 MISS:          0 MSHR_MERGE:          0
cpu0->cpu0_L1I PREFETCH     ACCESS:          0 HIT:          0 MISS:          0 MSHR_MERGE:          0
cpu0->cpu0_L1I WRITE        ACCESS:          0 HIT:          0 MISS:          0 MSHR_MERGE:          0
cpu0->cpu0_L1I TRANSLATION  ACCESS:          0 HIT:          0 MISS:          0 MSHR_MERGE:          0
cpu0->cpu0_L1I PREFETCH REQUESTED:          0 ISSUED:          0 USEFUL:          0 USELESS:          0 LATE:          0 TOO_EARLY:          0
cpu0->cpu0_L1I AVERAGE MISS LATENCY: 14.51 cycles
cpu0->cpu0_L1D TOTAL        ACCESS:   95576298 HIT:   85929459 MISS:    9646839 MSHR_MERGE:     911199
cpu0->cpu0_L1D LOAD         ACCESS:   31150309 HIT:   25335238 MISS:    5815071 MSHR_MERGE:     879982
cpu0->cpu0_L1D RFO          ACCESS:          0 HIT:          0 MISS:          0 MSHR_MERGE:          0
cpu0->cpu0_L1D PREFETCH     ACCESS:   53096880 HIT:   49474481 MISS:    3622399 MSHR_MERGE:      16335
cpu0->cpu0_L1D WRITE        ACCESS:   10832877 HIT:   10796434 MISS:      36443 MSHR_MERGE:      14422
cpu0->cpu0_L1D TRANSLATION  ACCESS:     496232 HIT:     323306 MISS:     172926 MSHR_MERGE:        460
cpu0->cpu0_L1D PREFETCH REQUESTED:  125928607 ISSUED:   53096873 USEFUL:     400538 USELESS:      16102 LATE:        124 TOO_EARLY:        578
cpu0->cpu0_L1D AVERAGE MISS LATENCY: 55.3 cycles
cpu0->cpu0_ITLB TOTAL        ACCESS:    7298271 HIT:    7295115 MISS:       3156 MSHR_MERGE:        789
cpu0->cpu0_ITLB LOAD         ACCESS:    7298271 HIT:    7295115 MISS:       3156 MSHR_MERGE:        789
cpu0->cpu0_ITLB RFO          ACCESS:          0 HIT:          0 MISS:          0 MSHR_MERGE:          0
cpu0->cpu0_ITLB PREFETCH     ACCESS:          0 HIT:          0 MISS:          0 MSHR_MERGE:          0
cpu0->cpu0_ITLB WRITE        ACCESS:          0 HIT:          0 MISS:          0 MSHR_MERGE:          0
cpu0->cpu0_ITLB TRANSLATION  ACCESS:          0 HIT:          0 MISS:          0 MSHR_MERGE:          0
cpu0->cpu0_ITLB PREFETCH REQUESTED:          0 ISSUED:          0 USEFUL:          0 USELESS:          0 LATE:          0 TOO_EARLY:          0
cpu0->cpu0_ITLB AVERAGE MISS LATENCY: 17.31 cycles
cpu0->cpu0_DTLB TOTAL        ACCESS:   73084066 HIT:   71446227 MISS:    1637839 MSHR_MERGE:     353612
cpu0->cpu0_DTLB LOAD         ACCESS:   73084066 HIT:   71446227 MISS:    1637839 MSHR_MERGE:     353612
cpu0->cpu0_DTLB RFO          ACCESS:          0 HIT:          0 MISS:          0 MSHR_MERGE:          0
cpu0->cpu0_DTLB PREFETCH     ACCESS:          0 HIT:          0 MISS:          0 MSHR_MERGE:          0
cpu0->cpu0_DTLB WRITE        ACCESS:          0 HIT:          0 MISS:          0 MSHR_MERGE:          0
cpu0->cpu0_DTLB TRANSLATION  ACCESS:          0 HIT:          0 MISS:          0 MSHR_MERGE:          0
cpu0->cpu0_DTLB PREFETCH REQUESTED:          0 ISSUED:          0 USEFUL:          0 USELESS:          0 LATE:          0 TOO_EARLY:          0
cpu0->cpu0_DTLB AVERAGE MISS LATENCY: 12.46 cycles
cpu0->LLC TOTAL        ACCESS:    4508002 HIT:    3261312 MISS:    1246690 MSHR_MERGE:          0
cpu0->LLC LOAD         ACCESS:    3249708 HIT:    2205133 MISS:    1044575 MSHR_MERGE:          0
cpu0->LLC RFO          ACCESS:       8149 HIT:       8104 MISS:         45 MSHR_MERGE:          0
cpu0->LLC PREFETCH     ACCESS:     251986 HIT:      97964 MISS:     154022 MSHR_MERGE:          0
cpu0->LLC WRITE        ACCESS:     912433 HIT:     874186 MISS:      38247 MSHR_MERGE:          0
cpu0->LLC TRANSLATION  ACCESS:      85726 HIT:      75925 MISS:       9801 MSHR_MERGE:          0
cpu0->LLC PREFETCH REQUESTED:          0 ISSUED:          0 USEFUL:          0 USELESS:          0 LATE:          0 TOO_EARLY:          0
cpu0->LLC AVERAGE MISS LATENCY: 172.5 cycles

DRAM Statistics

Channel 0 RQ ROW_BUFFER_HIT:       3722
  ROW_BUFFER_MISS:    1204704
  AVG DBUS CONGESTED CYCLE: 20.7
Channel 0 WQ ROW_BUFFER_HIT:      76132
  ROW_BUFFER_MISS:     205920
  FULL:          0
Channel 0 REFRESHES ISSUED:      35348

[ROI Statistics]
[System Configuration]
num_cpus 1
cpu_freq 4000
fetch_width 6
decode_width 6
dispatch_width 6
execute_width 6
lq_width 2
sq_width 2
retire_width 6
scheduler_size 128
branch_mispredict_penalty 15
rob_size 352
lq_size 128
sq_size 72
ifetch_buffer_size 64
decode_buffer_size 32
dispatch_buffer_size 32
register_file_size 288
decode_latency 1
dispatch_latency 1
schedule_latency 1
execute_latency 1
page_size 4096
block_size 64
core_0_itlb_set 16
core_0_itlb_way 4
core_0_itlb_rq_size 16
core_0_itlb_wq_size 16
core_0_itlb_pq_size 0
core_0_itlb_mshr_size 8
core_0_itlb_hit_latency 1
core_0_itlb_fill_latency 1
core_0_itlb_max_tag_check 2
core_0_itlb_max_fill 2
core_0_dtlb_set 16
core_0_dtlb_way 4
core_0_dtlb_rq_size 16
core_0_dtlb_wq_size 16
core_0_dtlb_pq_size 0
core_0_dtlb_mshr_size 8
core_0_dtlb_hit_latency 1
core_0_dtlb_fill_latency 1
core_0_dtlb_max_tag_check 2
core_0_dtlb_max_fill 2
core_0_stlb_set 128
core_0_stlb_way 12
core_0_stlb_rq_size 32
core_0_stlb_wq_size 32
core_0_stlb_pq_size 0
core_0_stlb_mshr_size 16
core_0_stlb_hit_latency 4
core_0_stlb_fill_latency 4
core_0_stlb_max_tag_check 1
core_0_stlb_max_fill 1
core_0_l1i_set 64
core_0_l1i_way 8
core_0_l1i_rq_size 64
core_0_l1i_wq_size 64
core_0_l1i_pq_size 32
core_0_l1i_mshr_size 8
core_0_l1i_hit_latency 2
core_0_l1i_fill_latency 2
core_0_l1i_max_tag_check 2
core_0_l1i_max_fill 2
core_0_l1d_set 64
core_0_l1d_way 12
core_0_l1d_rq_size 64
core_0_l1d_wq_size 64
core_0_l1d_pq_size 8
core_0_l1d_mshr_size 16
core_0_l1d_hit_latency 2
core_0_l1d_fill_latency 3
core_0_l1d_max_tag_check 2
core_0_l1d_max_fill 2
core_0_l2c_set 1024
core_0_l2c_way 8
core_0_l2c_rq_size 32
core_0_l2c_wq_size 32
core_0_l2c_pq_size 16
core_0_l2c_mshr_size 32
core_0_l2c_hit_latency 5
core_0_l2c_fill_latency 5
core_0_l2c_max_tag_check 1
core_0_l2c_max_fill 1
llc_set 2048
llc_way 16
llc_rq_size 32
llc_wq_size 32
llc_pq_size 32
llc_mshr_size 64
llc_hit_latency 10
llc_fill_latency 10
llc_max_tag_check 1
llc_max_fill 1
dram_channels 1
dram_ranks 1
dram_bankgroups 8
dram_banks 4
dram_rows 65536
dram_columns 1024
dram_channel_width 8
dram_rq_size 64
dram_wq_size 64
dram_size 17179869184
core_0_itlb_prefetcher no
core_0_dtlb_prefetcher no
core_0_stlb_prefetcher no
core_0_l1i_prefetcher next_line
core_0_l1d_prefetcher vberti
core_0_l2c_prefetcher ip_stride
llc_prefetcher no
llc_replacement drrip

Core_0_instructions 100000000
Core_0_cycles 424174578
Core_0_IPC 0.235752
Core_0_branch_prediction_accuracy 86.7629
Core_0_branch_MPKI 23.026
Core_0_average_ROB_occupancy_at_mispredict 20.5447

Core_0_ITLB_total_access 7298271
Core_0_ITLB_total_hit 7295115
Core_0_ITLB_total_miss 3156
Core_0_ITLB_total_MPKI 0.03156
Core_0_ITLB_total_miss_rate 0.000432431
Core_0_ITLB_demand_access 7298271
Core_0_ITLB_demand_hit 7295115
Core_0_ITLB_demand_miss 3156
Core_0_ITLB_demand_MPKI 0.03156
Core_0_ITLB_demand_miss_rate 0.000432431
Core_0_ITLB_load_access 7298271
Core_0_ITLB_load_hit 7295115
Core_0_ITLB_load_miss 3156
Core_0_ITLB_load_MPKI 0.03156
Core_0_ITLB_load_miss_rate 0.000432431
Core_0_ITLB_rfo_access 0
Core_0_ITLB_rfo_hit 0
Core_0_ITLB_rfo_miss 0
Core_0_ITLB_rfo_MPKI 0
Core_0_ITLB_rfo_miss_rate 0
Core_0_ITLB_prefetch_access 0
Core_0_ITLB_prefetch_hit 0
Core_0_ITLB_prefetch_miss 0
Core_0_ITLB_prefetch_MPKI 0
Core_0_ITLB_prefetch_miss_rate 0
Core_0_ITLB_writeback_access 0
Core_0_ITLB_writeback_hit 0
Core_0_ITLB_writeback_miss 0
Core_0_ITLB_writeback_MPKI 0
Core_0_ITLB_writeback_miss_rate 0
Core_0_ITLB_prefetch_requested 0
Core_0_ITLB_prefetch_issued 0
Core_0_ITLB_prefetch_useful 0
Core_0_ITLB_prefetch_useless 0
Core_0_ITLB_prefetch_late 0
Core_0_ITLB_prefetch_fill 0
Core_0_ITLB_prefetch_too_early 0
Core_0_ITLB_prefetch_too_early_among_fill 0
Core_0_ITLB_prefetch_too_early_among_useless 0
Core_0_ITLB_prefetch_pollution_evict 0
Core_0_ITLB_prefetch_pollution_demand 0
Core_0_ITLB_prefetch_pollution_among_prefetch_fill 0
Core_0_ITLB_prefetch_accuracy 0
Core_0_ITLB_prefetch_coverage 0

Core_0_DTLB_total_access 73084066
Core_0_DTLB_total_hit 71446227
Core_0_DTLB_total_miss 1637839
Core_0_DTLB_total_MPKI 16.3784
Core_0_DTLB_total_miss_rate 0.0224103
Core_0_DTLB_demand_access 73084066
Core_0_DTLB_demand_hit 71446227
Core_0_DTLB_demand_miss 1637839
Core_0_DTLB_demand_MPKI 16.3784
Core_0_DTLB_demand_miss_rate 0.0224103
Core_0_DTLB_load_access 73084066
Core_0_DTLB_load_hit 71446227
Core_0_DTLB_load_miss 1637839
Core_0_DTLB_load_MPKI 16.3784
Core_0_DTLB_load_miss_rate 0.0224103
Core_0_DTLB_rfo_access 0
Core_0_DTLB_rfo_hit 0
Core_0_DTLB_rfo_miss 0
Core_0_DTLB_rfo_MPKI 0
Core_0_DTLB_rfo_miss_rate 0
Core_0_DTLB_prefetch_access 0
Core_0_DTLB_prefetch_hit 0
Core_0_DTLB_prefetch_miss 0
Core_0_DTLB_prefetch_MPKI 0
Core_0_DTLB_prefetch_miss_rate 0
Core_0_DTLB_writeback_access 0
Core_0_DTLB_writeback_hit 0
Core_0_DTLB_writeback_miss 0
Core_0_DTLB_writeback_MPKI 0
Core_0_DTLB_writeback_miss_rate 0
Core_0_DTLB_prefetch_requested 0
Core_0_DTLB_prefetch_issued 0
Core_0_DTLB_prefetch_useful 0
Core_0_DTLB_prefetch_useless 0
Core_0_DTLB_prefetch_late 0
Core_0_DTLB_prefetch_fill 0
Core_0_DTLB_prefetch_too_early 0
Core_0_DTLB_prefetch_too_early_among_fill 0
Core_0_DTLB_prefetch_too_early_among_useless 0
Core_0_DTLB_prefetch_pollution_evict 0
Core_0_DTLB_prefetch_pollution_demand 0
Core_0_DTLB_prefetch_pollution_among_prefetch_fill 0
Core_0_DTLB_prefetch_accuracy 0
Core_0_DTLB_prefetch_coverage 0

Core_0_STLB_total_access 1286594
Core_0_STLB_total_hit 1058939
Core_0_STLB_total_miss 227655
Core_0_STLB_total_MPKI 2.27655
Core_0_STLB_total_miss_rate 0.176944
Core_0_STLB_demand_access 1286594
Core_0_STLB_demand_hit 1058939
Core_0_STLB_demand_miss 227655
Core_0_STLB_demand_MPKI 2.27655
Core_0_STLB_demand_miss_rate 0.176944
Core_0_STLB_load_access 1286594
Core_0_STLB_load_hit 1058939
Core_0_STLB_load_miss 227655
Core_0_STLB_load_MPKI 2.27655
Core_0_STLB_load_miss_rate 0.176944
Core_0_STLB_rfo_access 0
Core_0_STLB_rfo_hit 0
Core_0_STLB_rfo_miss 0
Core_0_STLB_rfo_MPKI 0
Core_0_STLB_rfo_miss_rate 0
Core_0_STLB_prefetch_access 0
Core_0_STLB_prefetch_hit 0
Core_0_STLB_prefetch_miss 0
Core_0_STLB_prefetch_MPKI 0
Core_0_STLB_prefetch_miss_rate 0
Core_0_STLB_writeback_access 0
Core_0_STLB_writeback_hit 0
Core_0_STLB_writeback_miss 0
Core_0_STLB_writeback_MPKI 0
Core_0_STLB_writeback_miss_rate 0
Core_0_STLB_prefetch_requested 0
Core_0_STLB_prefetch_issued 0
Core_0_STLB_prefetch_useful 0
Core_0_STLB_prefetch_useless 0
Core_0_STLB_prefetch_late 0
Core_0_STLB_prefetch_fill 0
Core_0_STLB_prefetch_too_early 0
Core_0_STLB_prefetch_too_early_among_fill 0
Core_0_STLB_prefetch_too_early_among_useless 0
Core_0_STLB_prefetch_pollution_evict 0
Core_0_STLB_prefetch_pollution_demand 0
Core_0_STLB_prefetch_pollution_among_prefetch_fill 0
Core_0_STLB_prefetch_accuracy 0
Core_0_STLB_prefetch_coverage 0

Core_0_L1I_total_access 7390189
Core_0_L1I_total_hit 7360852
Core_0_L1I_total_miss 29337
Core_0_L1I_total_MPKI 0.29337
Core_0_L1I_total_miss_rate 0.00396972
Core_0_L1I_demand_access 7390189
Core_0_L1I_demand_hit 7360852
Core_0_L1I_demand_miss 29337
Core_0_L1I_demand_MPKI 0.29337
Core_0_L1I_demand_miss_rate 0.00396972
Core_0_L1I_load_access 7390189
Core_0_L1I_load_hit 7360852
Core_0_L1I_load_miss 29337
Core_0_L1I_load_MPKI 0.29337
Core_0_L1I_load_miss_rate 0.00396972
Core_0_L1I_rfo_access 0
Core_0_L1I_rfo_hit 0
Core_0_L1I_rfo_miss 0
Core_0_L1I_rfo_MPKI 0
Core_0_L1I_rfo_miss_rate 0
Core_0_L1I_prefetch_access 0
Core_0_L1I_prefetch_hit 0
Core_0_L1I_prefetch_miss 0
Core_0_L1I_prefetch_MPKI 0
Core_0_L1I_prefetch_miss_rate 0
Core_0_L1I_writeback_access 0
Core_0_L1I_writeback_hit 0
Core_0_L1I_writeback_miss 0
Core_0_L1I_writeback_MPKI 0
Core_0_L1I_writeback_miss_rate 0
Core_0_L1I_prefetch_requested 0
Core_0_L1I_prefetch_issued 0
Core_0_L1I_prefetch_useful 0
Core_0_L1I_prefetch_useless 0
Core_0_L1I_prefetch_late 0
Core_0_L1I_prefetch_fill 0
Core_0_L1I_prefetch_too_early 0
Core_0_L1I_prefetch_too_early_among_fill 0
Core_0_L1I_prefetch_too_early_among_useless 0
Core_0_L1I_prefetch_pollution_evict 0
Core_0_L1I_prefetch_pollution_demand 0
Core_0_L1I_prefetch_pollution_among_prefetch_fill 0
Core_0_L1I_prefetch_accuracy 0
Core_0_L1I_prefetch_coverage 0

Core_0_L1D_total_access 95080066
Core_0_L1D_total_hit 85606153
Core_0_L1D_total_miss 9473913
Core_0_L1D_total_MPKI 94.7391
Core_0_L1D_total_miss_rate 0.0996414
Core_0_L1D_demand_access 31150309
Core_0_L1D_demand_hit 25335238
Core_0_L1D_demand_miss 5815071
Core_0_L1D_demand_MPKI 58.1507
Core_0_L1D_demand_miss_rate 0.186678
Core_0_L1D_load_access 31150309
Core_0_L1D_load_hit 25335238
Core_0_L1D_load_miss 5815071
Core_0_L1D_load_MPKI 58.1507
Core_0_L1D_load_miss_rate 0.186678
Core_0_L1D_rfo_access 0
Core_0_L1D_rfo_hit 0
Core_0_L1D_rfo_miss 0
Core_0_L1D_rfo_MPKI 0
Core_0_L1D_rfo_miss_rate 0
Core_0_L1D_prefetch_access 53096880
Core_0_L1D_prefetch_hit 49474481
Core_0_L1D_prefetch_miss 3622399
Core_0_L1D_prefetch_MPKI 36.224
Core_0_L1D_prefetch_miss_rate 0.0682224
Core_0_L1D_writeback_access 10832877
Core_0_L1D_writeback_hit 10796434
Core_0_L1D_writeback_miss 36443
Core_0_L1D_writeback_MPKI 0.36443
Core_0_L1D_writeback_miss_rate 0.00336411
Core_0_L1D_prefetch_requested 125928607
Core_0_L1D_prefetch_issued 53096873
Core_0_L1D_prefetch_useful 400538
Core_0_L1D_prefetch_useless 16102
Core_0_L1D_prefetch_late 124
Core_0_L1D_prefetch_fill 416526
Core_0_L1D_prefetch_too_early 578
Core_0_L1D_prefetch_too_early_among_fill 0.00138767
Core_0_L1D_prefetch_too_early_among_useless 0.0358962
Core_0_L1D_prefetch_pollution_evict 193061
Core_0_L1D_prefetch_pollution_demand 193042
Core_0_L1D_prefetch_pollution_among_prefetch_fill 0.463503
Core_0_L1D_prefetch_accuracy 0.00754353
Core_0_L1D_prefetch_coverage 0.0644407

Core_0_L2C_total_access 11123163
Core_0_L2C_total_hit 7514359
Core_0_L2C_total_miss 3608804
Core_0_L2C_total_MPKI 36.088
Core_0_L2C_total_miss_rate 0.32444
Core_0_L2C_demand_access 4977624
Core_0_L2C_demand_hit 1719262
Core_0_L2C_demand_miss 3258362
Core_0_L2C_demand_MPKI 32.5836
Core_0_L2C_demand_miss_rate 0.654602
Core_0_L2C_load_access 4955603
Core_0_L2C_load_hit 1705390
Core_0_L2C_load_miss 3250213
Core_0_L2C_load_MPKI 32.5021
Core_0_L2C_load_miss_rate 0.655866
Core_0_L2C_rfo_access 22021
Core_0_L2C_rfo_hit 13872
Core_0_L2C_rfo_miss 8149
Core_0_L2C_rfo_MPKI 0.08149
Core_0_L2C_rfo_miss_rate 0.370056
Core_0_L2C_prefetch_access 4652583
Core_0_L2C_prefetch_hit 4302143
Core_0_L2C_prefetch_miss 350440
Core_0_L2C_prefetch_MPKI 3.5044
Core_0_L2C_prefetch_miss_rate 0.0753216
Core_0_L2C_writeback_access 1492956
Core_0_L2C_writeback_hit 1492954
Core_0_L2C_writeback_miss 2
Core_0_L2C_writeback_MPKI 2e-05
Core_0_L2C_writeback_miss_rate 1.33962e-06
Core_0_L2C_prefetch_requested 1065871
Core_0_L2C_prefetch_issued 1050391
Core_0_L2C_prefetch_useful 101222
Core_0_L2C_prefetch_useless 26300
Core_0_L2C_prefetch_late 145
Core_0_L2C_prefetch_fill 251471
Core_0_L2C_prefetch_too_early 15852
Core_0_L2C_prefetch_too_early_among_fill 0.0630371
Core_0_L2C_prefetch_too_early_among_useless 0.602738
Core_0_L2C_prefetch_pollution_evict 178905
Core_0_L2C_prefetch_pollution_demand 177873
Core_0_L2C_prefetch_pollution_among_prefetch_fill 0.711434
Core_0_L2C_prefetch_accuracy 0.096366
Core_0_L2C_prefetch_coverage 0.0301293

Core_0_LLC_total_access 4422276
Core_0_LLC_total_hit 3185387
Core_0_LLC_total_miss 1236889
Core_0_LLC_total_MPKI 12.3689
Core_0_LLC_total_miss_rate 0.279695
Core_0_LLC_demand_access 3257857
Core_0_LLC_demand_hit 2213237
Core_0_LLC_demand_miss 1044620
Core_0_LLC_demand_MPKI 10.4462
Core_0_LLC_demand_miss_rate 0.320646
Core_0_LLC_load_access 3249708
Core_0_LLC_load_hit 2205133
Core_0_LLC_load_miss 1044575
Core_0_LLC_load_MPKI 10.4458
Core_0_LLC_load_miss_rate 0.321437
Core_0_LLC_rfo_access 8149
Core_0_LLC_rfo_hit 8104
Core_0_LLC_rfo_miss 45
Core_0_LLC_rfo_MPKI 0.00045
Core_0_LLC_rfo_miss_rate 0.00552215
Core_0_LLC_prefetch_access 251986
Core_0_LLC_prefetch_hit 97964
Core_0_LLC_prefetch_miss 154022
Core_0_LLC_prefetch_MPKI 1.54022
Core_0_LLC_prefetch_miss_rate 0.611232
Core_0_LLC_writeback_access 912433
Core_0_LLC_writeback_hit 874186
Core_0_LLC_writeback_miss 38247
Core_0_LLC_writeback_MPKI 0.38247
Core_0_LLC_writeback_miss_rate 0.0419176
Core_0_LLC_prefetch_requested 0
Core_0_LLC_prefetch_issued 0
Core_0_LLC_prefetch_useful 0
Core_0_LLC_prefetch_useless 0
Core_0_LLC_prefetch_late 0
Core_0_LLC_prefetch_fill 154022
Core_0_LLC_prefetch_too_early 0
Core_0_LLC_prefetch_too_early_among_fill 0
Core_0_LLC_prefetch_too_early_among_useless 0
Core_0_LLC_prefetch_pollution_evict 52541
Core_0_LLC_prefetch_pollution_demand 52541
Core_0_LLC_prefetch_pollution_among_prefetch_fill 0.341127
Core_0_LLC_prefetch_accuracy 0
Core_0_LLC_prefetch_coverage 0

[DRAM Statistics]
Channel_0_RQ_row_buffer_hit 3722
Channel_0_RQ_row_buffer_miss 1204704
Channel_0_WQ_row_buffer_hit 76132
Channel_0_WQ_row_buffer_miss 205920
Channel_0_WQ_full 0
Channel_0_dbus_congested 3672950
DRAM_total_RQ_row_buffer_hit 3722
DRAM_total_RQ_row_buffer_miss 1204704
DRAM_total_WQ_row_buffer_hit 76132
DRAM_total_WQ_row_buffer_miss 205920
DRAM_total_WQ_full 0
DRAM_total_dbus_congested 3672950
DRAM_avg_congested_cycle 20.6954

====== DRAM_RQ_TRAFFIC ========
DRAM_RQ_READ_TRAFFIC_BREAKDOWN:
data_demand_read.count = 1044594
data_demand_read.share = 86.44%

inst_demand_read.count = 26
inst_demand_read.share = 0.00%

cache_inst_prefetch.count = 0
cache_inst_prefetch.share = 0.00%

cache_data_prefetch.count = 154022
cache_data_prefetch.share = 12.75%

stlb_data_demand.count = 9473
stlb_data_demand.share = 0.78%

stlb_inst_demand.count = 45
stlb_inst_demand.share = 0.00%

stlb_l1i_pref.count = 0
stlb_l1i_pref.share = 0.00%

stlb_l1d_pref.count = 283
stlb_l1d_pref.share = 0.02%

DRAM_RQ_READ_TRAFFIC_SUMMARY:
cache_demand.count = 1044620
cache_demand.share = 86.44%

cache_prefetch.count = 154022
cache_prefetch.share = 12.75%

stlb_demand.count = 9518
stlb_demand.share = 0.79%

stlb_prefetch.count = 283
stlb_prefetch.share = 0.02%

DRAM_RQ_READ_TRAFFIC_DEBUG:
total_classified_read.count = 1208443
unclassified_read.count = 0
total_read_with_other.count = 1208443

classified_plus_unclassified_check.count = 1208443
dram_rq_read_total_observed.count = 1208443
dram_rq_read_total_observed.per_1K_instructions = 12.0844

STLB_MISS_PTW_DRAM_TOUCH_BREAKDOWN:
stlb_miss_total.count = 227240

stlb_miss_touch_dram.count = 9734
stlb_miss_touch_dram.share = 4.28%

stlb_miss_no_dram_touch.count = 217506
stlb_miss_no_dram_touch.share = 95.72%

STLB_MISS_PTW_DRAM_TOUCH_DEBUG:
stlb_miss_touch_plus_no_touch.count = 227240
stlb_miss_total_check.count = 227240

======STLB miss causes ========
Core_0_STLB_miss_cause_breakdown
Core_0_STLB_cause_Demand_Data_miss 222107
Core_0_STLB_cause_Demand_Data_miss_rate 0.172632
Core_0_STLB_cause_Demand_Instruction_miss 601
Core_0_STLB_cause_Demand_Instruction_miss_rate 0.000467125
Core_0_STLB_cause_L1D_Prefetch_miss 4947
Core_0_STLB_cause_L1D_Prefetch_miss_rate 0.00384504
Core_0_STLB_cause_L1D_Prefetch_Same_Page_miss 0
Core_0_STLB_cause_L1D_Prefetch_Same_Page_miss_rate 0
Core_0_STLB_cause_L1D_Prefetch_Cross_Page_miss 4947
Core_0_STLB_cause_L1D_Prefetch_Cross_Page_miss_rate 0.00384504
Core_0_STLB_cause_L1I_Prefetch_miss 0
Core_0_STLB_cause_L1I_Prefetch_miss_rate 0
Core_0_STLB_cause_Other_miss 0
Core_0_STLB_cause_Other_miss_rate 0
Core_0_STLB_Demand_miss 222708
Core_0_STLB_Demand_miss_rate 0.173099
Core_0_STLB_L1D_Prefetch_miss 4947
Core_0_STLB_L1D_Prefetch_miss_rate 0.00384504
Core_0_STLB_Other_miss 0
Core_0_STLB_Other_miss_rate 0

========== vBerti-TLB Cross-page Flow Stats ==========

Core_0_vBerti_Requested 125928607
Core_0_vBerti_Cross_page_prefetch_in_Requested 8589113
Core_0_vBerti_Same_page_prefetch_in_Requested 117339494
Core_0_vBerti_Cross_page_prefetch_of_Requested 0.0682062
Core_0_vBerti_Issued 53096873
Core_0_vBerti_PQ_Drop_Rate 0.578357
Core_0_vBerti_InPQ_Cross_page_prefetch_of_Requested 0.0164371
Core_0_vBerti_Cross_page_PQ_Drop_rate 0.759009
Core_0_vBerti_Cross_page_prefetch_of_Issued 0.0389834

========= DTLB_vBerti Prefetch Stats =========
Core_0_DTLB_demand_access 38871842
Core_0_DTLB_demand_hit 37249157
Core_0_DTLB_demand_miss 1622685
Core_0_DTLB_demand_mshr_merge 346075
Core_0_DTLB_demand_fill 1276612
Core_0_DTLB_demand_miss_rate 0.0417445
Core_0_DTLB_demand_mpki 16.2268
Core_0_DTLB_vberti_prefetch_access 34212224
Core_0_DTLB_vberti_prefetch_hit 34197070
Core_0_DTLB_vberti_prefetch_miss 15154
Core_0_DTLB_vberti_prefetch_mshr_merge 7537
Core_0_DTLB_vberti_prefetch_fill 7615
Core_0_DTLB_vberti_prefetch_miss_rate 0.000442941
Core_0_DTLB_vberti_prefetch_mpki 0.15154

=== DTLB_vBerti Same/Cross-page Prefetch Stats ===
Core_0_DTLB_vberti_same_page_prefetch 32706582
Core_0_DTLB_vberti_same_page_prefetch_hit 32706582
Core_0_DTLB_vberti_same_page_prefetch_miss 0
Core_0_DTLB_vberti_same_page_prefetch_mshr_merge 0
Core_0_DTLB_vberti_same_page_prefetch_fill 0
Core_0_DTLB_vberti_same_page_prefetch_miss_rate 0
Core_0_DTLB_vberti_same_page_prefetch_mpki 0
Core_0_DTLB_vberti_cross_page_prefetch 1505642
Core_0_DTLB_vberti_cross_page_prefetch_hit 1490488
Core_0_DTLB_vberti_cross_page_prefetch_miss 15154
Core_0_DTLB_vberti_cross_page_prefetch_mshr_merge 7537
Core_0_DTLB_vberti_cross_page_prefetch_fill 7615
Core_0_DTLB_vberti_cross_page_prefetch_miss_rate 0.0100648
Core_0_DTLB_vberti_cross_page_prefetch_mpki 0.15154
Core_0_DTLB_same_page_prefetch_miss_rate 0
Core_0_DTLB_same_page_prefetch_mpki 0
Core_0_DTLB_cross_page_prefetch_miss_rate 0.0100648
Core_0_DTLB_cross_page_prefetch_mpki 0.15154
Core_0_DTLB_cross_page_prefetch_issued 1505642
Core_0_DTLB_cross_page_prefetch_lookups 1505642
Core_0_DTLB_cross_page_prefetch_useful 6414
Core_0_DTLB_cross_page_prefetch_useless 1203
Core_0_DTLB_cross_page_prefetch_late 2
Core_0_DTLB_cross_page_prefetch_too_early 391
Core_0_DTLB_cross_page_prefetch_too_early_among_fill 0.051346
Core_0_DTLB_cross_page_prefetch_too_early_among_useless 0.325021
Core_0_DTLB_cross_page_prefetch_pollution_evict 7414
Core_0_DTLB_cross_page_prefetch_pollution_demand 7409
Core_0_DTLB_cross_page_prefetch_pollution_among_prefetch_fill 0.973605
Core_0_DTLB_cross_page_prefetch_accuracy 0.00425998
Core_0_DTLB_cross_page_prefetch_coverage 0.00393715

========= STLB_vBerti Prefetch Stats =========
Core_0_STLB_demand_access 1278977
Core_0_STLB_demand_hit 1056269
Core_0_STLB_demand_miss 222708
Core_0_STLB_demand_mshr_merge 0
Core_0_STLB_demand_fill 222708
Core_0_STLB_demand_miss_rate 0.17413
Core_0_STLB_demand_mpki 2.22708
Core_0_STLB_vberti_prefetch_access 7617
Core_0_STLB_vberti_prefetch_hit 2670
Core_0_STLB_vberti_prefetch_miss 4947
Core_0_STLB_vberti_prefetch_mshr_merge 0
Core_0_STLB_vberti_prefetch_fill 0
Core_0_STLB_vberti_prefetch_miss_rate 0.649468
Core_0_STLB_vberti_prefetch_mpki 0.04947

=== STLB_vBerti Same/Cross-page Prefetch Stats ===
Core_0_STLB_vberti_same_page_prefetch 0
Core_0_STLB_vberti_same_page_prefetch_hit 0
Core_0_STLB_vberti_same_page_prefetch_miss 0
Core_0_STLB_vberti_same_page_prefetch_mshr_merge 0
Core_0_STLB_vberti_same_page_prefetch_fill 0
Core_0_STLB_vberti_same_page_prefetch_miss_rate 0
Core_0_STLB_vberti_same_page_prefetch_mpki 0
Core_0_STLB_vberti_cross_page_prefetch 7617
Core_0_STLB_vberti_cross_page_prefetch_hit 2670
Core_0_STLB_vberti_cross_page_prefetch_miss 4947
Core_0_STLB_vberti_cross_page_prefetch_mshr_merge 0
Core_0_STLB_vberti_cross_page_prefetch_fill 0
Core_0_STLB_vberti_cross_page_prefetch_miss_rate 0.649468
Core_0_STLB_vberti_cross_page_prefetch_mpki 0.04947
Core_0_STLB_same_page_prefetch_miss_rate 0
Core_0_STLB_same_page_prefetch_mpki 0
Core_0_STLB_cross_page_prefetch_miss_rate 0.649468
Core_0_STLB_cross_page_prefetch_mpki 0.04947
Core_0_STLB_cross_page_prefetch_issued 7617
Core_0_STLB_cross_page_prefetch_lookups 7617
Core_0_STLB_cross_page_prefetch_useful 415
Core_0_STLB_cross_page_prefetch_useless 3516
Core_0_STLB_cross_page_prefetch_late 415
Core_0_STLB_cross_page_prefetch_too_early 0
Core_0_STLB_cross_page_prefetch_too_early_among_fill 0
Core_0_STLB_cross_page_prefetch_too_early_among_useless 0
Core_0_STLB_cross_page_prefetch_pollution_evict 0
Core_0_STLB_cross_page_prefetch_pollution_demand 0
Core_0_STLB_cross_page_prefetch_pollution_among_prefetch_fill 0
Core_0_STLB_cross_page_prefetch_accuracy 0.0544834
Core_0_STLB_cross_page_prefetch_coverage 0.00185996

========= STLB Cross-page Prefetch Buffer Stats =========
Core_0_STLB_raw_demand_miss 222107
Core_0_CP_PB_insert 4947
Core_0_CP_PB_demand_hit 415
Core_0_STLB_PB_demand_miss 221692
Core_0_CP_PB_coverage 0.00186847
Core_0_STLB_raw_demand_mpki 2.22107
Core_0_STLB_PB_demand_mpki 2.21692
Core_0_CP_PB_demand_hit_mpki 0.00415

Core_0_TLB_demand_miss_rate 0.00572929
Core_0_TLB_demand_mpki 2.22708
Core_0_TLB_same_page_prefetch_miss_rate 0
Core_0_TLB_same_page_prefetch_mpki 0
Core_0_TLB_cross_page_prefetch_miss_rate 0.00328564
Core_0_TLB_cross_page_prefetch_mpki 0.04947
Core_0_TLB_cross_page_prefetch_issued 1505642
Core_0_TLB_cross_page_prefetch_lookups 1505642
Core_0_TLB_cross_page_prefetch_useful 2153
Core_0_TLB_cross_page_prefetch_useless 1022
Core_0_TLB_cross_page_prefetch_late 2
Core_0_TLB_cross_page_prefetch_too_early 353
Core_0_TLB_cross_page_prefetch_too_early_among_fill 0.0463559
Core_0_TLB_cross_page_prefetch_too_early_among_useless 0.345401
Core_0_TLB_cross_page_prefetch_accuracy 0.00142995
Core_0_TLB_cross_page_prefetch_coverage 0.0095748
BERTI TO_L1: 160120994 TO_L2: 16831782 TO_L2_BC_MSHR: 10
BERTI AVG_LAT: 40.3233 NUM_TRACK_LATENCY: 8010776 NUM_CANT_TRACK_LATENCY: 5
BERTI CROSS_PAGE 12292660 NO_CROSS_PAGE: 164660116
BERTI FOUND_BERTI: 42223697 NO_FOUND_BERTI: 14284942
BERTI AVERAGE_ISSUED: 3.08592
