[VMEM] WARNING: physical memory size is smaller than virtual memory size.

*** ChampSim Multicore Out-of-Order Simulator ***
Warmup Instructions: 50000000
Simulation Instructions: 100000000
Number of CPUs: 1
Page size: 4096
Core 0: /data2/zcq/champsim_traces_gap/cc.twitter-16B.champsimtrace.xz
VBerti Prefetcher
BERTI HASH ENTANGLING
BERTI IP MASK ffff
Off-chip DRAM Size: 16 GiB Channels: 1 Width: 64-bit Data Rate: 3205 MT/s
Warmup halting CPU 0 at instruction 50000002 cycle 15789664 for remainder of phase
Warmup finished CPU 0 instructions: 50000002 cycles: 15789664 cumulative IPC: 3.167 (Simulation time: 00 hr 03 min 28 sec)
Warmup complete CPU 0 instructions: 50000002 cycles: 15789664 cumulative IPC: 3.167 (Simulation time: 00 hr 03 min 28 sec)
Simulation finished CPU 0 instructions: 100000000 cycles: 187113205 cumulative IPC: 0.5344 (Simulation time: 00 hr 24 min 16 sec)
Simulation complete CPU 0 instructions: 100000000 cycles: 187113205 cumulative IPC: 0.5344 (Simulation time: 00 hr 24 min 16 sec)

ChampSim completed all CPUs

=== Simulation ===
CPU 0 runs /data2/zcq/champsim_traces_gap/cc.twitter-16B.champsimtrace.xz

Region of Interest Statistics

CPU 0 cumulative IPC: 0.5344 instructions: 100000000 cycles: 187113205
CPU 0 Branch Prediction Accuracy: 98.46% MPKI: 2.83 Average ROB Occupancy at Mispredict: 155.3
Branch type MPKI
BRANCH_DIRECT_JUMP: 0
BRANCH_INDIRECT: 0
BRANCH_CONDITIONAL: 2.83
BRANCH_DIRECT_CALL: 0
BRANCH_INDIRECT_CALL: 0
BRANCH_RETURN: 0

cpu0->cpu0_STLB TOTAL        ACCESS:    1485750 HIT:     340282 MISS:    1145468 MSHR_MERGE:          0
cpu0->cpu0_STLB LOAD         ACCESS:    1485750 HIT:     340282 MISS:    1145468 MSHR_MERGE:          0
cpu0->cpu0_STLB RFO          ACCESS:          0 HIT:          0 MISS:          0 MSHR_MERGE:          0
cpu0->cpu0_STLB PREFETCH     ACCESS:          0 HIT:          0 MISS:          0 MSHR_MERGE:          0
cpu0->cpu0_STLB WRITE        ACCESS:          0 HIT:          0 MISS:          0 MSHR_MERGE:          0
cpu0->cpu0_STLB TRANSLATION  ACCESS:          0 HIT:          0 MISS:          0 MSHR_MERGE:          0
cpu0->cpu0_STLB PREFETCH REQUESTED:          0 ISSUED:          0 USEFUL:          0 USELESS:          0 LATE:          0 TOO_EARLY:          0
cpu0->cpu0_STLB AVERAGE MISS LATENCY: 52.9 cycles
cpu0->cpu0_L2C TOTAL        ACCESS:    7567552 HIT:    2679675 MISS:    4887877 MSHR_MERGE:     912226
cpu0->cpu0_L2C LOAD         ACCESS:    1539660 HIT:     228713 MISS:    1310947 MSHR_MERGE:       6115
cpu0->cpu0_L2C RFO          ACCESS:          0 HIT:          0 MISS:          0 MSHR_MERGE:          0
cpu0->cpu0_L2C PREFETCH     ACCESS:    4688791 HIT:    1822919 MISS:    2865872 MSHR_MERGE:     906111
cpu0->cpu0_L2C WRITE        ACCESS:     267699 HIT:     267698 MISS:          1 MSHR_MERGE:          0
cpu0->cpu0_L2C TRANSLATION  ACCESS:    1071402 HIT:     360345 MISS:     711057 MSHR_MERGE:          0
cpu0->cpu0_L2C PREFETCH REQUESTED:    1738737 ISSUED:    1738683 USEFUL:     501191 USELESS:     185759 LATE:       2862 TOO_EARLY:          0
cpu0->cpu0_L2C AVERAGE MISS LATENCY: 146.5 cycles
cpu0->cpu0_L1I TOTAL        ACCESS:    7591206 HIT:    7591206 MISS:          0 MSHR_MERGE:          0
cpu0->cpu0_L1I LOAD         ACCESS:    7591206 HIT:    7591206 MISS:          0 MSHR_MERGE:          0
cpu0->cpu0_L1I RFO          ACCESS:          0 HIT:          0 MISS:          0 MSHR_MERGE:          0
cpu0->cpu0_L1I PREFETCH     ACCESS:          0 HIT:          0 MISS:          0 MSHR_MERGE:          0
cpu0->cpu0_L1I WRITE        ACCESS:          0 HIT:          0 MISS:          0 MSHR_MERGE:          0
cpu0->cpu0_L1I TRANSLATION  ACCESS:          0 HIT:          0 MISS:          0 MSHR_MERGE:          0
cpu0->cpu0_L1I PREFETCH REQUESTED:          0 ISSUED:          0 USEFUL:          0 USELESS:          0 LATE:          0 TOO_EARLY:          0
cpu0->cpu0_L1I AVERAGE MISS LATENCY: - cycles
cpu0->cpu0_L1D TOTAL        ACCESS:   47665897 HIT:   41956895 MISS:    5709002 MSHR_MERGE:     139423
cpu0->cpu0_L1D LOAD         ACCESS:   21833472 HIT:   20170481 MISS:    1662991 MSHR_MERGE:     123331
cpu0->cpu0_L1D RFO          ACCESS:          0 HIT:          0 MISS:          0 MSHR_MERGE:          0
cpu0->cpu0_L1D PREFETCH     ACCESS:   20357039 HIT:   17382543 MISS:    2974496 MSHR_MERGE:      15979
cpu0->cpu0_L1D WRITE        ACCESS:    2504167 HIT:    2504167 MISS:          0 MSHR_MERGE:          0
cpu0->cpu0_L1D TRANSLATION  ACCESS:    2971219 HIT:    1899704 MISS:    1071515 MSHR_MERGE:        113
cpu0->cpu0_L1D PREFETCH REQUESTED:  100662201 ISSUED:   20357038 USEFUL:    1447235 USELESS:     312566 LATE:      10622 TOO_EARLY:          0
cpu0->cpu0_L1D AVERAGE MISS LATENCY: 122.3 cycles
cpu0->cpu0_ITLB TOTAL        ACCESS:    6421529 HIT:    6421529 MISS:          0 MSHR_MERGE:          0
cpu0->cpu0_ITLB LOAD         ACCESS:    6421529 HIT:    6421529 MISS:          0 MSHR_MERGE:          0
cpu0->cpu0_ITLB RFO          ACCESS:          0 HIT:          0 MISS:          0 MSHR_MERGE:          0
cpu0->cpu0_ITLB PREFETCH     ACCESS:          0 HIT:          0 MISS:          0 MSHR_MERGE:          0
cpu0->cpu0_ITLB WRITE        ACCESS:          0 HIT:          0 MISS:          0 MSHR_MERGE:          0
cpu0->cpu0_ITLB TRANSLATION  ACCESS:          0 HIT:          0 MISS:          0 MSHR_MERGE:          0
cpu0->cpu0_ITLB PREFETCH REQUESTED:          0 ISSUED:          0 USEFUL:          0 USELESS:          0 LATE:          0 TOO_EARLY:          0
cpu0->cpu0_ITLB AVERAGE MISS LATENCY: - cycles
cpu0->cpu0_DTLB TOTAL        ACCESS:   38309049 HIT:   36735696 MISS:    1573353 MSHR_MERGE:      87603
cpu0->cpu0_DTLB LOAD         ACCESS:   38309049 HIT:   36735696 MISS:    1573353 MSHR_MERGE:      87603
cpu0->cpu0_DTLB RFO          ACCESS:          0 HIT:          0 MISS:          0 MSHR_MERGE:          0
cpu0->cpu0_DTLB PREFETCH     ACCESS:          0 HIT:          0 MISS:          0 MSHR_MERGE:          0
cpu0->cpu0_DTLB WRITE        ACCESS:          0 HIT:          0 MISS:          0 MSHR_MERGE:          0
cpu0->cpu0_DTLB TRANSLATION  ACCESS:          0 HIT:          0 MISS:          0 MSHR_MERGE:          0
cpu0->cpu0_DTLB PREFETCH REQUESTED:          0 ISSUED:          0 USEFUL:          0 USELESS:          0 LATE:          0 TOO_EARLY:          0
cpu0->cpu0_DTLB AVERAGE MISS LATENCY: 46.5 cycles
cpu0->LLC TOTAL        ACCESS:    4238892 HIT:     917398 MISS:    3321494 MSHR_MERGE:      17212
cpu0->LLC LOAD         ACCESS:    1304832 HIT:     175719 MISS:    1129113 MSHR_MERGE:         57
cpu0->LLC RFO          ACCESS:          0 HIT:          0 MISS:          0 MSHR_MERGE:          0
cpu0->LLC PREFETCH     ACCESS:    1959760 HIT:      25520 MISS:    1934240 MSHR_MERGE:      17155
cpu0->LLC WRITE        ACCESS:     263243 HIT:      56909 MISS:     206334 MSHR_MERGE:          0
cpu0->LLC TRANSLATION  ACCESS:     711057 HIT:     659250 MISS:      51807 MSHR_MERGE:          0
cpu0->LLC PREFETCH REQUESTED:          0 ISSUED:          0 USEFUL:          0 USELESS:          0 LATE:          0 TOO_EARLY:          0
cpu0->LLC AVERAGE MISS LATENCY: 191.6 cycles

DRAM Statistics

Channel 0 RQ ROW_BUFFER_HIT:     101591
  ROW_BUFFER_MISS:    2996322
  AVG DBUS CONGESTED CYCLE: 10.61
Channel 0 WQ ROW_BUFFER_HIT:      87836
  ROW_BUFFER_MISS:     167234
  FULL:          0
Channel 0 REFRESHES ISSUED:      15593

[ROI Statistics]
[System Configuration]
num_cpus 1
cpu_freq 4000
fetch_width 6
decode_width 6
dispatch_width 6
execute_width 6
lq_width 2
sq_width 2
retire_width 6
scheduler_size 128
branch_mispredict_penalty 15
rob_size 352
lq_size 128
sq_size 72
ifetch_buffer_size 64
decode_buffer_size 32
dispatch_buffer_size 32
register_file_size 288
decode_latency 1
dispatch_latency 1
schedule_latency 1
execute_latency 1
page_size 4096
block_size 64
core_0_itlb_set 16
core_0_itlb_way 4
core_0_itlb_rq_size 16
core_0_itlb_wq_size 16
core_0_itlb_pq_size 0
core_0_itlb_mshr_size 8
core_0_itlb_hit_latency 1
core_0_itlb_fill_latency 1
core_0_itlb_max_tag_check 2
core_0_itlb_max_fill 2
core_0_dtlb_set 16
core_0_dtlb_way 4
core_0_dtlb_rq_size 16
core_0_dtlb_wq_size 16
core_0_dtlb_pq_size 0
core_0_dtlb_mshr_size 8
core_0_dtlb_hit_latency 1
core_0_dtlb_fill_latency 1
core_0_dtlb_max_tag_check 2
core_0_dtlb_max_fill 2
core_0_stlb_set 128
core_0_stlb_way 12
core_0_stlb_rq_size 32
core_0_stlb_wq_size 32
core_0_stlb_pq_size 0
core_0_stlb_mshr_size 16
core_0_stlb_hit_latency 4
core_0_stlb_fill_latency 4
core_0_stlb_max_tag_check 1
core_0_stlb_max_fill 1
core_0_l1i_set 64
core_0_l1i_way 8
core_0_l1i_rq_size 64
core_0_l1i_wq_size 64
core_0_l1i_pq_size 32
core_0_l1i_mshr_size 8
core_0_l1i_hit_latency 2
core_0_l1i_fill_latency 2
core_0_l1i_max_tag_check 2
core_0_l1i_max_fill 2
core_0_l1d_set 64
core_0_l1d_way 12
core_0_l1d_rq_size 64
core_0_l1d_wq_size 64
core_0_l1d_pq_size 8
core_0_l1d_mshr_size 16
core_0_l1d_hit_latency 2
core_0_l1d_fill_latency 3
core_0_l1d_max_tag_check 2
core_0_l1d_max_fill 2
core_0_l2c_set 1024
core_0_l2c_way 8
core_0_l2c_rq_size 32
core_0_l2c_wq_size 32
core_0_l2c_pq_size 16
core_0_l2c_mshr_size 32
core_0_l2c_hit_latency 5
core_0_l2c_fill_latency 5
core_0_l2c_max_tag_check 1
core_0_l2c_max_fill 1
llc_set 2048
llc_way 16
llc_rq_size 32
llc_wq_size 32
llc_pq_size 32
llc_mshr_size 64
llc_hit_latency 10
llc_fill_latency 10
llc_max_tag_check 1
llc_max_fill 1
dram_channels 1
dram_ranks 1
dram_bankgroups 8
dram_banks 4
dram_rows 65536
dram_columns 1024
dram_channel_width 8
dram_rq_size 64
dram_wq_size 64
dram_size 17179869184
core_0_itlb_prefetcher no
core_0_dtlb_prefetcher no
core_0_stlb_prefetcher no
core_0_l1i_prefetcher next_line
core_0_l1d_prefetcher vberti
core_0_l2c_prefetcher ip_stride
llc_prefetcher no
llc_replacement drrip

Core_0_instructions 100000000
Core_0_cycles 187113205
Core_0_IPC 0.534436
Core_0_branch_prediction_accuracy 98.4607
Core_0_branch_MPKI 2.82956
Core_0_average_ROB_occupancy_at_mispredict 155.344

Core_0_ITLB_total_access 6421529
Core_0_ITLB_total_hit 6421529
Core_0_ITLB_total_miss 0
Core_0_ITLB_total_MPKI 0
Core_0_ITLB_total_miss_rate 0
Core_0_ITLB_demand_access 6421529
Core_0_ITLB_demand_hit 6421529
Core_0_ITLB_demand_miss 0
Core_0_ITLB_demand_MPKI 0
Core_0_ITLB_demand_miss_rate 0
Core_0_ITLB_load_access 6421529
Core_0_ITLB_load_hit 6421529
Core_0_ITLB_load_miss 0
Core_0_ITLB_load_MPKI 0
Core_0_ITLB_load_miss_rate 0
Core_0_ITLB_rfo_access 0
Core_0_ITLB_rfo_hit 0
Core_0_ITLB_rfo_miss 0
Core_0_ITLB_rfo_MPKI 0
Core_0_ITLB_rfo_miss_rate 0
Core_0_ITLB_prefetch_access 0
Core_0_ITLB_prefetch_hit 0
Core_0_ITLB_prefetch_miss 0
Core_0_ITLB_prefetch_MPKI 0
Core_0_ITLB_prefetch_miss_rate 0
Core_0_ITLB_writeback_access 0
Core_0_ITLB_writeback_hit 0
Core_0_ITLB_writeback_miss 0
Core_0_ITLB_writeback_MPKI 0
Core_0_ITLB_writeback_miss_rate 0
Core_0_ITLB_prefetch_requested 0
Core_0_ITLB_prefetch_issued 0
Core_0_ITLB_prefetch_useful 0
Core_0_ITLB_prefetch_useless 0
Core_0_ITLB_prefetch_late 0
Core_0_ITLB_prefetch_fill 0
Core_0_ITLB_prefetch_too_early 0
Core_0_ITLB_prefetch_too_early_among_fill 0
Core_0_ITLB_prefetch_too_early_among_useless 0
Core_0_ITLB_prefetch_pollution_evict 0
Core_0_ITLB_prefetch_pollution_demand 0
Core_0_ITLB_prefetch_pollution_among_prefetch_fill 0
Core_0_ITLB_prefetch_accuracy 0
Core_0_ITLB_prefetch_coverage 0

Core_0_DTLB_total_access 38309049
Core_0_DTLB_total_hit 36735696
Core_0_DTLB_total_miss 1573353
Core_0_DTLB_total_MPKI 15.7335
Core_0_DTLB_total_miss_rate 0.04107
Core_0_DTLB_demand_access 38309049
Core_0_DTLB_demand_hit 36735696
Core_0_DTLB_demand_miss 1573353
Core_0_DTLB_demand_MPKI 15.7335
Core_0_DTLB_demand_miss_rate 0.04107
Core_0_DTLB_load_access 38309049
Core_0_DTLB_load_hit 36735696
Core_0_DTLB_load_miss 1573353
Core_0_DTLB_load_MPKI 15.7335
Core_0_DTLB_load_miss_rate 0.04107
Core_0_DTLB_rfo_access 0
Core_0_DTLB_rfo_hit 0
Core_0_DTLB_rfo_miss 0
Core_0_DTLB_rfo_MPKI 0
Core_0_DTLB_rfo_miss_rate 0
Core_0_DTLB_prefetch_access 0
Core_0_DTLB_prefetch_hit 0
Core_0_DTLB_prefetch_miss 0
Core_0_DTLB_prefetch_MPKI 0
Core_0_DTLB_prefetch_miss_rate 0
Core_0_DTLB_writeback_access 0
Core_0_DTLB_writeback_hit 0
Core_0_DTLB_writeback_miss 0
Core_0_DTLB_writeback_MPKI 0
Core_0_DTLB_writeback_miss_rate 0
Core_0_DTLB_prefetch_requested 0
Core_0_DTLB_prefetch_issued 0
Core_0_DTLB_prefetch_useful 0
Core_0_DTLB_prefetch_useless 0
Core_0_DTLB_prefetch_late 0
Core_0_DTLB_prefetch_fill 0
Core_0_DTLB_prefetch_too_early 0
Core_0_DTLB_prefetch_too_early_among_fill 0
Core_0_DTLB_prefetch_too_early_among_useless 0
Core_0_DTLB_prefetch_pollution_evict 0
Core_0_DTLB_prefetch_pollution_demand 0
Core_0_DTLB_prefetch_pollution_among_prefetch_fill 0
Core_0_DTLB_prefetch_accuracy 0
Core_0_DTLB_prefetch_coverage 0

Core_0_STLB_total_access 1485750
Core_0_STLB_total_hit 340282
Core_0_STLB_total_miss 1145468
Core_0_STLB_total_MPKI 11.4547
Core_0_STLB_total_miss_rate 0.77097
Core_0_STLB_demand_access 1485750
Core_0_STLB_demand_hit 340282
Core_0_STLB_demand_miss 1145468
Core_0_STLB_demand_MPKI 11.4547
Core_0_STLB_demand_miss_rate 0.77097
Core_0_STLB_load_access 1485750
Core_0_STLB_load_hit 340282
Core_0_STLB_load_miss 1145468
Core_0_STLB_load_MPKI 11.4547
Core_0_STLB_load_miss_rate 0.77097
Core_0_STLB_rfo_access 0
Core_0_STLB_rfo_hit 0
Core_0_STLB_rfo_miss 0
Core_0_STLB_rfo_MPKI 0
Core_0_STLB_rfo_miss_rate 0
Core_0_STLB_prefetch_access 0
Core_0_STLB_prefetch_hit 0
Core_0_STLB_prefetch_miss 0
Core_0_STLB_prefetch_MPKI 0
Core_0_STLB_prefetch_miss_rate 0
Core_0_STLB_writeback_access 0
Core_0_STLB_writeback_hit 0
Core_0_STLB_writeback_miss 0
Core_0_STLB_writeback_MPKI 0
Core_0_STLB_writeback_miss_rate 0
Core_0_STLB_prefetch_requested 0
Core_0_STLB_prefetch_issued 0
Core_0_STLB_prefetch_useful 0
Core_0_STLB_prefetch_useless 0
Core_0_STLB_prefetch_late 0
Core_0_STLB_prefetch_fill 0
Core_0_STLB_prefetch_too_early 0
Core_0_STLB_prefetch_too_early_among_fill 0
Core_0_STLB_prefetch_too_early_among_useless 0
Core_0_STLB_prefetch_pollution_evict 0
Core_0_STLB_prefetch_pollution_demand 0
Core_0_STLB_prefetch_pollution_among_prefetch_fill 0
Core_0_STLB_prefetch_accuracy 0
Core_0_STLB_prefetch_coverage 0

Core_0_L1I_total_access 7591206
Core_0_L1I_total_hit 7591206
Core_0_L1I_total_miss 0
Core_0_L1I_total_MPKI 0
Core_0_L1I_total_miss_rate 0
Core_0_L1I_demand_access 7591206
Core_0_L1I_demand_hit 7591206
Core_0_L1I_demand_miss 0
Core_0_L1I_demand_MPKI 0
Core_0_L1I_demand_miss_rate 0
Core_0_L1I_load_access 7591206
Core_0_L1I_load_hit 7591206
Core_0_L1I_load_miss 0
Core_0_L1I_load_MPKI 0
Core_0_L1I_load_miss_rate 0
Core_0_L1I_rfo_access 0
Core_0_L1I_rfo_hit 0
Core_0_L1I_rfo_miss 0
Core_0_L1I_rfo_MPKI 0
Core_0_L1I_rfo_miss_rate 0
Core_0_L1I_prefetch_access 0
Core_0_L1I_prefetch_hit 0
Core_0_L1I_prefetch_miss 0
Core_0_L1I_prefetch_MPKI 0
Core_0_L1I_prefetch_miss_rate 0
Core_0_L1I_writeback_access 0
Core_0_L1I_writeback_hit 0
Core_0_L1I_writeback_miss 0
Core_0_L1I_writeback_MPKI 0
Core_0_L1I_writeback_miss_rate 0
Core_0_L1I_prefetch_requested 0
Core_0_L1I_prefetch_issued 0
Core_0_L1I_prefetch_useful 0
Core_0_L1I_prefetch_useless 0
Core_0_L1I_prefetch_late 0
Core_0_L1I_prefetch_fill 0
Core_0_L1I_prefetch_too_early 0
Core_0_L1I_prefetch_too_early_among_fill 0
Core_0_L1I_prefetch_too_early_among_useless 0
Core_0_L1I_prefetch_pollution_evict 0
Core_0_L1I_prefetch_pollution_demand 0
Core_0_L1I_prefetch_pollution_among_prefetch_fill 0
Core_0_L1I_prefetch_accuracy 0
Core_0_L1I_prefetch_coverage 0

Core_0_L1D_total_access 44694678
Core_0_L1D_total_hit 40057191
Core_0_L1D_total_miss 4637487
Core_0_L1D_total_MPKI 46.3749
Core_0_L1D_total_miss_rate 0.103759
Core_0_L1D_demand_access 21833472
Core_0_L1D_demand_hit 20170481
Core_0_L1D_demand_miss 1662991
Core_0_L1D_demand_MPKI 16.6299
Core_0_L1D_demand_miss_rate 0.076167
Core_0_L1D_load_access 21833472
Core_0_L1D_load_hit 20170481
Core_0_L1D_load_miss 1662991
Core_0_L1D_load_MPKI 16.6299
Core_0_L1D_load_miss_rate 0.076167
Core_0_L1D_rfo_access 0
Core_0_L1D_rfo_hit 0
Core_0_L1D_rfo_miss 0
Core_0_L1D_rfo_MPKI 0
Core_0_L1D_rfo_miss_rate 0
Core_0_L1D_prefetch_access 20357039
Core_0_L1D_prefetch_hit 17382543
Core_0_L1D_prefetch_miss 2974496
Core_0_L1D_prefetch_MPKI 29.745
Core_0_L1D_prefetch_miss_rate 0.146116
Core_0_L1D_writeback_access 2504167
Core_0_L1D_writeback_hit 2504167
Core_0_L1D_writeback_miss 0
Core_0_L1D_writeback_MPKI 0
Core_0_L1D_writeback_miss_rate 0
Core_0_L1D_prefetch_requested 100662201
Core_0_L1D_prefetch_issued 20357038
Core_0_L1D_prefetch_useful 1447235
Core_0_L1D_prefetch_useless 312566
Core_0_L1D_prefetch_late 10622
Core_0_L1D_prefetch_fill 1749201
Core_0_L1D_prefetch_too_early 0
Core_0_L1D_prefetch_too_early_among_fill 0
Core_0_L1D_prefetch_too_early_among_useless 0
Core_0_L1D_prefetch_pollution_evict 25341
Core_0_L1D_prefetch_pollution_demand 25341
Core_0_L1D_prefetch_pollution_among_prefetch_fill 0.0144872
Core_0_L1D_prefetch_accuracy 0.0710926
Core_0_L1D_prefetch_coverage 0.465315

Core_0_L2C_total_access 6496150
Core_0_L2C_total_hit 2319330
Core_0_L2C_total_miss 4176820
Core_0_L2C_total_MPKI 41.7682
Core_0_L2C_total_miss_rate 0.642969
Core_0_L2C_demand_access 1539660
Core_0_L2C_demand_hit 228713
Core_0_L2C_demand_miss 1310947
Core_0_L2C_demand_MPKI 13.1095
Core_0_L2C_demand_miss_rate 0.851452
Core_0_L2C_load_access 1539660
Core_0_L2C_load_hit 228713
Core_0_L2C_load_miss 1310947
Core_0_L2C_load_MPKI 13.1095
Core_0_L2C_load_miss_rate 0.851452
Core_0_L2C_rfo_access 0
Core_0_L2C_rfo_hit 0
Core_0_L2C_rfo_miss 0
Core_0_L2C_rfo_MPKI 0
Core_0_L2C_rfo_miss_rate 0
Core_0_L2C_prefetch_access 4688791
Core_0_L2C_prefetch_hit 1822919
Core_0_L2C_prefetch_miss 2865872
Core_0_L2C_prefetch_MPKI 28.6587
Core_0_L2C_prefetch_miss_rate 0.611218
Core_0_L2C_writeback_access 267699
Core_0_L2C_writeback_hit 267698
Core_0_L2C_writeback_miss 1
Core_0_L2C_writeback_MPKI 1e-05
Core_0_L2C_writeback_miss_rate 3.73554e-06
Core_0_L2C_prefetch_requested 1738737
Core_0_L2C_prefetch_issued 1738683
Core_0_L2C_prefetch_useful 501191
Core_0_L2C_prefetch_useless 185759
Core_0_L2C_prefetch_late 2862
Core_0_L2C_prefetch_fill 1916255
Core_0_L2C_prefetch_too_early 0
Core_0_L2C_prefetch_too_early_among_fill 0
Core_0_L2C_prefetch_too_early_among_useless 0
Core_0_L2C_prefetch_pollution_evict 48382
Core_0_L2C_prefetch_pollution_demand 48382
Core_0_L2C_prefetch_pollution_among_prefetch_fill 0.0252482
Core_0_L2C_prefetch_accuracy 0.288259
Core_0_L2C_prefetch_coverage 0.276574

Core_0_LLC_total_access 3527835
Core_0_LLC_total_hit 258148
Core_0_LLC_total_miss 3269687
Core_0_LLC_total_MPKI 32.6969
Core_0_LLC_total_miss_rate 0.926825
Core_0_LLC_demand_access 1304832
Core_0_LLC_demand_hit 175719
Core_0_LLC_demand_miss 1129113
Core_0_LLC_demand_MPKI 11.2911
Core_0_LLC_demand_miss_rate 0.865332
Core_0_LLC_load_access 1304832
Core_0_LLC_load_hit 175719
Core_0_LLC_load_miss 1129113
Core_0_LLC_load_MPKI 11.2911
Core_0_LLC_load_miss_rate 0.865332
Core_0_LLC_rfo_access 0
Core_0_LLC_rfo_hit 0
Core_0_LLC_rfo_miss 0
Core_0_LLC_rfo_MPKI 0
Core_0_LLC_rfo_miss_rate 0
Core_0_LLC_prefetch_access 1959760
Core_0_LLC_prefetch_hit 25520
Core_0_LLC_prefetch_miss 1934240
Core_0_LLC_prefetch_MPKI 19.3424
Core_0_LLC_prefetch_miss_rate 0.986978
Core_0_LLC_writeback_access 263243
Core_0_LLC_writeback_hit 56909
Core_0_LLC_writeback_miss 206334
Core_0_LLC_writeback_MPKI 2.06334
Core_0_LLC_writeback_miss_rate 0.783816
Core_0_LLC_prefetch_requested 0
Core_0_LLC_prefetch_issued 0
Core_0_LLC_prefetch_useful 0
Core_0_LLC_prefetch_useless 0
Core_0_LLC_prefetch_late 0
Core_0_LLC_prefetch_fill 1917021
Core_0_LLC_prefetch_too_early 0
Core_0_LLC_prefetch_too_early_among_fill 0
Core_0_LLC_prefetch_too_early_among_useless 0
Core_0_LLC_prefetch_pollution_evict 66978
Core_0_LLC_prefetch_pollution_demand 66978
Core_0_LLC_prefetch_pollution_among_prefetch_fill 0.0349386
Core_0_LLC_prefetch_accuracy 0
Core_0_LLC_prefetch_coverage 0

[DRAM Statistics]
Channel_0_RQ_row_buffer_hit 101591
Channel_0_RQ_row_buffer_miss 2996322
Channel_0_WQ_row_buffer_hit 87836
Channel_0_WQ_row_buffer_miss 167234
Channel_0_WQ_full 0
Channel_0_dbus_congested 7447914
DRAM_total_RQ_row_buffer_hit 101591
DRAM_total_RQ_row_buffer_miss 2996322
DRAM_total_WQ_row_buffer_hit 87836
DRAM_total_WQ_row_buffer_miss 167234
DRAM_total_WQ_full 0
DRAM_total_dbus_congested 7447914
DRAM_avg_congested_cycle 10.6059

====== DRAM_RQ_TRAFFIC ========
DRAM_RQ_READ_TRAFFIC_BREAKDOWN:
data_demand_read.count = 1129056
data_demand_read.share = 36.45%

inst_demand_read.count = 0
inst_demand_read.share = 0.00%

cache_inst_prefetch.count = 0
cache_inst_prefetch.share = 0.00%

cache_data_prefetch.count = 1917085
cache_data_prefetch.share = 61.88%

stlb_data_demand.count = 48186
stlb_data_demand.share = 1.56%

stlb_inst_demand.count = 0
stlb_inst_demand.share = 0.00%

stlb_l1i_pref.count = 0
stlb_l1i_pref.share = 0.00%

stlb_l1d_pref.count = 3621
stlb_l1d_pref.share = 0.12%

DRAM_RQ_READ_TRAFFIC_SUMMARY:
cache_demand.count = 1129056
cache_demand.share = 36.45%

cache_prefetch.count = 1917085
cache_prefetch.share = 61.88%

stlb_demand.count = 48186
stlb_demand.share = 1.56%

stlb_prefetch.count = 3621
stlb_prefetch.share = 0.12%

DRAM_RQ_READ_TRAFFIC_DEBUG:
total_classified_read.count = 3097948
unclassified_read.count = 0
total_read_with_other.count = 3097948

classified_plus_unclassified_check.count = 3097948
dram_rq_read_total_observed.count = 3097948
dram_rq_read_total_observed.per_1K_instructions = 30.9795

STLB_MISS_PTW_DRAM_TOUCH_BREAKDOWN:
stlb_miss_total.count = 1143830

stlb_miss_touch_dram.count = 51749
stlb_miss_touch_dram.share = 4.52%

stlb_miss_no_dram_touch.count = 1092081
stlb_miss_no_dram_touch.share = 95.48%

STLB_MISS_PTW_DRAM_TOUCH_DEBUG:
stlb_miss_touch_plus_no_touch.count = 1143830
stlb_miss_total_check.count = 1143830

======STLB miss causes ========
Core_0_STLB_miss_cause_breakdown
Core_0_STLB_cause_Demand_Data_miss 1115928
Core_0_STLB_cause_Demand_Data_miss_rate 0.751087
Core_0_STLB_cause_Demand_Instruction_miss 0
Core_0_STLB_cause_Demand_Instruction_miss_rate 0
Core_0_STLB_cause_L1D_Prefetch_miss 29540
Core_0_STLB_cause_L1D_Prefetch_miss_rate 0.0198822
Core_0_STLB_cause_L1D_Prefetch_Same_Page_miss 3
Core_0_STLB_cause_L1D_Prefetch_Same_Page_miss_rate 2.01918e-06
Core_0_STLB_cause_L1D_Prefetch_Cross_Page_miss 29537
Core_0_STLB_cause_L1D_Prefetch_Cross_Page_miss_rate 0.0198802
Core_0_STLB_cause_L1I_Prefetch_miss 0
Core_0_STLB_cause_L1I_Prefetch_miss_rate 0
Core_0_STLB_cause_Other_miss 0
Core_0_STLB_cause_Other_miss_rate 0
Core_0_STLB_Demand_miss 1115928
Core_0_STLB_Demand_miss_rate 0.751087
Core_0_STLB_L1D_Prefetch_miss 29540
Core_0_STLB_L1D_Prefetch_miss_rate 0.0198822
Core_0_STLB_Other_miss 0
Core_0_STLB_Other_miss_rate 0

========== vBerti-TLB Cross-page Flow Stats ==========

Core_0_vBerti_Requested 100662201
Core_0_vBerti_Cross_page_prefetch_in_Requested 13151037
Core_0_vBerti_Same_page_prefetch_in_Requested 87511164
Core_0_vBerti_Cross_page_prefetch_of_Requested 0.130645
Core_0_vBerti_Issued 20357038
Core_0_vBerti_PQ_Drop_Rate 0.797769
Core_0_vBerti_InPQ_Cross_page_prefetch_of_Requested 0.0136593
Core_0_vBerti_Cross_page_PQ_Drop_rate 0.895448
Core_0_vBerti_Cross_page_prefetch_of_Issued 0.0675428

========= DTLB_vBerti Prefetch Stats =========
Core_0_DTLB_demand_access 23523579
Core_0_DTLB_demand_hit 22046096
Core_0_DTLB_demand_miss 1477483
Core_0_DTLB_demand_mshr_merge 22432
Core_0_DTLB_demand_fill 1455775
Core_0_DTLB_demand_miss_rate 0.0628086
Core_0_DTLB_demand_mpki 14.7748
Core_0_DTLB_vberti_prefetch_access 14785470
Core_0_DTLB_vberti_prefetch_hit 14689600
Core_0_DTLB_vberti_prefetch_miss 95870
Core_0_DTLB_vberti_prefetch_mshr_merge 65171
Core_0_DTLB_vberti_prefetch_fill 29975
Core_0_DTLB_vberti_prefetch_miss_rate 0.00648407
Core_0_DTLB_vberti_prefetch_mpki 0.9587

=== DTLB_vBerti Same/Cross-page Prefetch Stats ===
Core_0_DTLB_vberti_same_page_prefetch 13717344
Core_0_DTLB_vberti_same_page_prefetch_hit 13717332
Core_0_DTLB_vberti_same_page_prefetch_miss 12
Core_0_DTLB_vberti_same_page_prefetch_mshr_merge 8
Core_0_DTLB_vberti_same_page_prefetch_fill 3
Core_0_DTLB_vberti_same_page_prefetch_miss_rate 8.74805e-07
Core_0_DTLB_vberti_same_page_prefetch_mpki 0.00012
Core_0_DTLB_vberti_cross_page_prefetch 1068126
Core_0_DTLB_vberti_cross_page_prefetch_hit 972268
Core_0_DTLB_vberti_cross_page_prefetch_miss 95858
Core_0_DTLB_vberti_cross_page_prefetch_mshr_merge 65163
Core_0_DTLB_vberti_cross_page_prefetch_fill 29972
Core_0_DTLB_vberti_cross_page_prefetch_miss_rate 0.0897441
Core_0_DTLB_vberti_cross_page_prefetch_mpki 0.95858
Core_0_DTLB_same_page_prefetch_miss_rate 8.74805e-07
Core_0_DTLB_same_page_prefetch_mpki 0.00012
Core_0_DTLB_cross_page_prefetch_miss_rate 0.0897441
Core_0_DTLB_cross_page_prefetch_mpki 0.95858
Core_0_DTLB_cross_page_prefetch_issued 1068126
Core_0_DTLB_cross_page_prefetch_lookups 1068126
Core_0_DTLB_cross_page_prefetch_useful 30011
Core_0_DTLB_cross_page_prefetch_useless 684
Core_0_DTLB_cross_page_prefetch_late 723
Core_0_DTLB_cross_page_prefetch_too_early 76
Core_0_DTLB_cross_page_prefetch_too_early_among_fill 0.0025357
Core_0_DTLB_cross_page_prefetch_too_early_among_useless 0.111111
Core_0_DTLB_cross_page_prefetch_pollution_evict 8238
Core_0_DTLB_cross_page_prefetch_pollution_demand 8201
Core_0_DTLB_cross_page_prefetch_pollution_among_prefetch_fill 0.274857
Core_0_DTLB_cross_page_prefetch_accuracy 0.0280969
Core_0_DTLB_cross_page_prefetch_coverage 0.0199079

========= STLB_vBerti Prefetch Stats =========
Core_0_STLB_demand_access 1455051
Core_0_STLB_demand_hit 339123
Core_0_STLB_demand_miss 1115928
Core_0_STLB_demand_mshr_merge 0
Core_0_STLB_demand_fill 1115928
Core_0_STLB_demand_miss_rate 0.766934
Core_0_STLB_demand_mpki 11.1593
Core_0_STLB_vberti_prefetch_access 30699
Core_0_STLB_vberti_prefetch_hit 1159
Core_0_STLB_vberti_prefetch_miss 29540
Core_0_STLB_vberti_prefetch_mshr_merge 0
Core_0_STLB_vberti_prefetch_fill 3
Core_0_STLB_vberti_prefetch_miss_rate 0.962246
Core_0_STLB_vberti_prefetch_mpki 0.2954

=== STLB_vBerti Same/Cross-page Prefetch Stats ===
Core_0_STLB_vberti_same_page_prefetch 4
Core_0_STLB_vberti_same_page_prefetch_hit 1
Core_0_STLB_vberti_same_page_prefetch_miss 3
Core_0_STLB_vberti_same_page_prefetch_mshr_merge 0
Core_0_STLB_vberti_same_page_prefetch_fill 3
Core_0_STLB_vberti_same_page_prefetch_miss_rate 0.75
Core_0_STLB_vberti_same_page_prefetch_mpki 3e-05
Core_0_STLB_vberti_cross_page_prefetch 30695
Core_0_STLB_vberti_cross_page_prefetch_hit 1158
Core_0_STLB_vberti_cross_page_prefetch_miss 29537
Core_0_STLB_vberti_cross_page_prefetch_mshr_merge 0
Core_0_STLB_vberti_cross_page_prefetch_fill 0
Core_0_STLB_vberti_cross_page_prefetch_miss_rate 0.962274
Core_0_STLB_vberti_cross_page_prefetch_mpki 0.29537
Core_0_STLB_same_page_prefetch_miss_rate 0.75
Core_0_STLB_same_page_prefetch_mpki 3e-05
Core_0_STLB_cross_page_prefetch_miss_rate 0.962274
Core_0_STLB_cross_page_prefetch_mpki 0.29537
Core_0_STLB_cross_page_prefetch_issued 30695
Core_0_STLB_cross_page_prefetch_lookups 30695
Core_0_STLB_cross_page_prefetch_useful 1638
Core_0_STLB_cross_page_prefetch_useless 27834
Core_0_STLB_cross_page_prefetch_late 1638
Core_0_STLB_cross_page_prefetch_too_early 0
Core_0_STLB_cross_page_prefetch_too_early_among_fill 0
Core_0_STLB_cross_page_prefetch_too_early_among_useless 0
Core_0_STLB_cross_page_prefetch_pollution_evict 0
Core_0_STLB_cross_page_prefetch_pollution_demand 0
Core_0_STLB_cross_page_prefetch_pollution_among_prefetch_fill 0
Core_0_STLB_cross_page_prefetch_accuracy 0.0533637
Core_0_STLB_cross_page_prefetch_coverage 0.00146569

========= STLB Cross-page Prefetch Buffer Stats =========
Core_0_STLB_raw_demand_miss 1115928
Core_0_CP_PB_insert 29537
Core_0_CP_PB_demand_hit 1638
Core_0_STLB_PB_demand_miss 1114290
Core_0_CP_PB_coverage 0.00146784
Core_0_STLB_raw_demand_mpki 11.1593
Core_0_STLB_PB_demand_mpki 11.1429
Core_0_CP_PB_demand_hit_mpki 0.01638

Core_0_TLB_demand_miss_rate 0.0474387
Core_0_TLB_demand_mpki 11.1593
Core_0_TLB_same_page_prefetch_miss_rate 2.18701e-07
Core_0_TLB_same_page_prefetch_mpki 3e-05
Core_0_TLB_cross_page_prefetch_miss_rate 0.0276531
Core_0_TLB_cross_page_prefetch_mpki 0.29537
Core_0_TLB_cross_page_prefetch_issued 1068126
Core_0_TLB_cross_page_prefetch_lookups 1068126
Core_0_TLB_cross_page_prefetch_useful 30007
Core_0_TLB_cross_page_prefetch_useless 669
Core_0_TLB_cross_page_prefetch_late 723
Core_0_TLB_cross_page_prefetch_too_early 65
Core_0_TLB_cross_page_prefetch_too_early_among_fill 0.00216869
Core_0_TLB_cross_page_prefetch_too_early_among_useless 0.0971599
Core_0_TLB_cross_page_prefetch_accuracy 0.0280931
Core_0_TLB_cross_page_prefetch_coverage 0.0261856
BERTI TO_L1: 116531249 TO_L2: 20970324 TO_L2_BC_MSHR: 1029132
BERTI AVG_LAT: 130.417 NUM_TRACK_LATENCY: 4839749 NUM_CANT_TRACK_LATENCY: 0
BERTI CROSS_PAGE 18326988 NO_CROSS_PAGE: 119174585
BERTI FOUND_BERTI: 20381189 NO_FOUND_BERTI: 11930229
BERTI AVERAGE_ISSUED: 3.14557
