[VMEM] WARNING: physical memory size is smaller than virtual memory size.

*** ChampSim Multicore Out-of-Order Simulator ***
Warmup Instructions: 50000000
Simulation Instructions: 100000000
Number of CPUs: 1
Page size: 4096
Core 0: /data2/zcq/champsim_traces_gap/cc.urand-353B.champsimtrace.xz
VBerti Prefetcher
BERTI HASH ENTANGLING
BERTI IP MASK ffff
Off-chip DRAM Size: 16 GiB Channels: 1 Width: 64-bit Data Rate: 3205 MT/s
Warmup halting CPU 0 at instruction 50000003 cycle 18036850 for remainder of phase
Warmup finished CPU 0 instructions: 50000003 cycles: 18036850 cumulative IPC: 2.772 (Simulation time: 00 hr 04 min 14 sec)
Warmup complete CPU 0 instructions: 50000003 cycles: 18036850 cumulative IPC: 2.772 (Simulation time: 00 hr 04 min 14 sec)
Simulation finished CPU 0 instructions: 100000000 cycles: 199692108 cumulative IPC: 0.5008 (Simulation time: 00 hr 31 min 16 sec)
Simulation complete CPU 0 instructions: 100000000 cycles: 199692108 cumulative IPC: 0.5008 (Simulation time: 00 hr 31 min 16 sec)

ChampSim completed all CPUs

=== Simulation ===
CPU 0 runs /data2/zcq/champsim_traces_gap/cc.urand-353B.champsimtrace.xz

Region of Interest Statistics

CPU 0 cumulative IPC: 0.5008 instructions: 100000000 cycles: 199692108
CPU 0 Branch Prediction Accuracy: 100% MPKI: 0 Average ROB Occupancy at Mispredict: -
Branch type MPKI
BRANCH_DIRECT_JUMP: 0
BRANCH_INDIRECT: 0
BRANCH_CONDITIONAL: 0
BRANCH_DIRECT_CALL: 0
BRANCH_INDIRECT_CALL: 0
BRANCH_RETURN: 0

cpu0->cpu0_STLB TOTAL        ACCESS:    2703651 HIT:     459389 MISS:    2244262 MSHR_MERGE:          0
cpu0->cpu0_STLB LOAD         ACCESS:    2703651 HIT:     459389 MISS:    2244262 MSHR_MERGE:          0
cpu0->cpu0_STLB RFO          ACCESS:          0 HIT:          0 MISS:          0 MSHR_MERGE:          0
cpu0->cpu0_STLB PREFETCH     ACCESS:          0 HIT:          0 MISS:          0 MSHR_MERGE:          0
cpu0->cpu0_STLB WRITE        ACCESS:          0 HIT:          0 MISS:          0 MSHR_MERGE:          0
cpu0->cpu0_STLB TRANSLATION  ACCESS:          0 HIT:          0 MISS:          0 MSHR_MERGE:          0
cpu0->cpu0_STLB PREFETCH REQUESTED:          0 ISSUED:          0 USEFUL:          0 USELESS:          0 LATE:          0 TOO_EARLY:          0
cpu0->cpu0_STLB AVERAGE MISS LATENCY: 49.86 cycles
cpu0->cpu0_L2C TOTAL        ACCESS:   21461037 HIT:    9036122 MISS:   12424915 MSHR_MERGE:    3315088
cpu0->cpu0_L2C LOAD         ACCESS:    4156630 HIT:    1307818 MISS:    2848812 MSHR_MERGE:     104988
cpu0->cpu0_L2C RFO          ACCESS:          0 HIT:          0 MISS:          0 MSHR_MERGE:          0
cpu0->cpu0_L2C PREFETCH     ACCESS:   15198975 HIT:    6322362 MISS:    8876613 MSHR_MERGE:    3210100
cpu0->cpu0_L2C WRITE        ACCESS:     164473 HIT:     164463 MISS:         10 MSHR_MERGE:          0
cpu0->cpu0_L2C TRANSLATION  ACCESS:    1940959 HIT:    1241479 MISS:     699480 MSHR_MERGE:          0
cpu0->cpu0_L2C PREFETCH REQUESTED:    3921335 ISSUED:    3921287 USEFUL:     709980 USELESS:     211386 LATE:      22002 TOO_EARLY:          0
cpu0->cpu0_L2C AVERAGE MISS LATENCY: 225.9 cycles
cpu0->cpu0_L1I TOTAL        ACCESS:   18461557 HIT:   18461557 MISS:          0 MSHR_MERGE:          0
cpu0->cpu0_L1I LOAD         ACCESS:   18461557 HIT:   18461557 MISS:          0 MSHR_MERGE:          0
cpu0->cpu0_L1I RFO          ACCESS:          0 HIT:          0 MISS:          0 MSHR_MERGE:          0
cpu0->cpu0_L1I PREFETCH     ACCESS:          0 HIT:          0 MISS:          0 MSHR_MERGE:          0
cpu0->cpu0_L1I WRITE        ACCESS:          0 HIT:          0 MISS:          0 MSHR_MERGE:          0
cpu0->cpu0_L1I TRANSLATION  ACCESS:          0 HIT:          0 MISS:          0 MSHR_MERGE:          0
cpu0->cpu0_L1I PREFETCH REQUESTED:          0 ISSUED:          0 USEFUL:          0 USELESS:          0 LATE:          0 TOO_EARLY:          0
cpu0->cpu0_L1I AVERAGE MISS LATENCY: - cycles
cpu0->cpu0_L1D TOTAL        ACCESS:   66225117 HIT:   48722909 MISS:   17502208 MSHR_MERGE:      75099
cpu0->cpu0_L1D LOAD         ACCESS:   23260637 HIT:   19071610 MISS:    4189027 MSHR_MERGE:      32397
cpu0->cpu0_L1D RFO          ACCESS:          0 HIT:          0 MISS:          0 MSHR_MERGE:          0
cpu0->cpu0_L1D PREFETCH     ACCESS:   35713602 HIT:   24341779 MISS:   11371823 MSHR_MERGE:      42303
cpu0->cpu0_L1D WRITE        ACCESS:    2631579 HIT:    2631579 MISS:          0 MSHR_MERGE:          0
cpu0->cpu0_L1D TRANSLATION  ACCESS:    4619299 HIT:    2677941 MISS:    1941358 MSHR_MERGE:        399
cpu0->cpu0_L1D PREFETCH REQUESTED:  100424427 ISSUED:   35713594 USEFUL:    1598696 USELESS:    1068930 LATE:      32348 TOO_EARLY:          0
cpu0->cpu0_L1D AVERAGE MISS LATENCY: 139.9 cycles
cpu0->cpu0_ITLB TOTAL        ACCESS:   15829975 HIT:   15829975 MISS:          0 MSHR_MERGE:          0
cpu0->cpu0_ITLB LOAD         ACCESS:   15829975 HIT:   15829975 MISS:          0 MSHR_MERGE:          0
cpu0->cpu0_ITLB RFO          ACCESS:          0 HIT:          0 MISS:          0 MSHR_MERGE:          0
cpu0->cpu0_ITLB PREFETCH     ACCESS:          0 HIT:          0 MISS:          0 MSHR_MERGE:          0
cpu0->cpu0_ITLB WRITE        ACCESS:          0 HIT:          0 MISS:          0 MSHR_MERGE:          0
cpu0->cpu0_ITLB TRANSLATION  ACCESS:          0 HIT:          0 MISS:          0 MSHR_MERGE:          0
cpu0->cpu0_ITLB PREFETCH REQUESTED:          0 ISSUED:          0 USEFUL:          0 USELESS:          0 LATE:          0 TOO_EARLY:          0
cpu0->cpu0_ITLB AVERAGE MISS LATENCY: - cycles
cpu0->cpu0_DTLB TOTAL        ACCESS:   49829948 HIT:   46767428 MISS:    3062520 MSHR_MERGE:     358869
cpu0->cpu0_DTLB LOAD         ACCESS:   49829948 HIT:   46767428 MISS:    3062520 MSHR_MERGE:     358869
cpu0->cpu0_DTLB RFO          ACCESS:          0 HIT:          0 MISS:          0 MSHR_MERGE:          0
cpu0->cpu0_DTLB PREFETCH     ACCESS:          0 HIT:          0 MISS:          0 MSHR_MERGE:          0
cpu0->cpu0_DTLB WRITE        ACCESS:          0 HIT:          0 MISS:          0 MSHR_MERGE:          0
cpu0->cpu0_DTLB TRANSLATION  ACCESS:          0 HIT:          0 MISS:          0 MSHR_MERGE:          0
cpu0->cpu0_DTLB PREFETCH REQUESTED:          0 ISSUED:          0 USEFUL:          0 USELESS:          0 LATE:          0 TOO_EARLY:          0
cpu0->cpu0_DTLB AVERAGE MISS LATENCY: 47.21 cycles
cpu0->LLC TOTAL        ACCESS:    9274384 HIT:     817938 MISS:    8456446 MSHR_MERGE:      88752
cpu0->LLC LOAD         ACCESS:    2743824 HIT:      38156 MISS:    2705668 MSHR_MERGE:        957
cpu0->LLC RFO          ACCESS:          0 HIT:          0 MISS:          0 MSHR_MERGE:          0
cpu0->LLC PREFETCH     ACCESS:    5666511 HIT:      92886 MISS:    5573625 MSHR_MERGE:      87795
cpu0->LLC WRITE        ACCESS:     164569 HIT:      29714 MISS:     134855 MSHR_MERGE:          0
cpu0->LLC TRANSLATION  ACCESS:     699480 HIT:     657182 MISS:      42298 MSHR_MERGE:          0
cpu0->LLC PREFETCH REQUESTED:          0 ISSUED:          0 USEFUL:          0 USELESS:          0 LATE:          0 TOO_EARLY:          0
cpu0->LLC AVERAGE MISS LATENCY: 254.8 cycles

DRAM Statistics

Channel 0 RQ ROW_BUFFER_HIT:    1010216
  ROW_BUFFER_MISS:    7222623
  AVG DBUS CONGESTED CYCLE: 3.339
Channel 0 WQ ROW_BUFFER_HIT:       4522
  ROW_BUFFER_MISS:     163146
  FULL:          0
Channel 0 REFRESHES ISSUED:      16641

[ROI Statistics]
[System Configuration]
num_cpus 1
cpu_freq 4000
fetch_width 6
decode_width 6
dispatch_width 6
execute_width 6
lq_width 2
sq_width 2
retire_width 6
scheduler_size 128
branch_mispredict_penalty 15
rob_size 352
lq_size 128
sq_size 72
ifetch_buffer_size 64
decode_buffer_size 32
dispatch_buffer_size 32
register_file_size 288
decode_latency 1
dispatch_latency 1
schedule_latency 1
execute_latency 1
page_size 4096
block_size 64
core_0_itlb_set 16
core_0_itlb_way 4
core_0_itlb_rq_size 16
core_0_itlb_wq_size 16
core_0_itlb_pq_size 0
core_0_itlb_mshr_size 8
core_0_itlb_hit_latency 1
core_0_itlb_fill_latency 1
core_0_itlb_max_tag_check 2
core_0_itlb_max_fill 2
core_0_dtlb_set 16
core_0_dtlb_way 4
core_0_dtlb_rq_size 16
core_0_dtlb_wq_size 16
core_0_dtlb_pq_size 0
core_0_dtlb_mshr_size 8
core_0_dtlb_hit_latency 1
core_0_dtlb_fill_latency 1
core_0_dtlb_max_tag_check 2
core_0_dtlb_max_fill 2
core_0_stlb_set 128
core_0_stlb_way 12
core_0_stlb_rq_size 32
core_0_stlb_wq_size 32
core_0_stlb_pq_size 0
core_0_stlb_mshr_size 16
core_0_stlb_hit_latency 4
core_0_stlb_fill_latency 4
core_0_stlb_max_tag_check 1
core_0_stlb_max_fill 1
core_0_l1i_set 64
core_0_l1i_way 8
core_0_l1i_rq_size 64
core_0_l1i_wq_size 64
core_0_l1i_pq_size 32
core_0_l1i_mshr_size 8
core_0_l1i_hit_latency 2
core_0_l1i_fill_latency 2
core_0_l1i_max_tag_check 2
core_0_l1i_max_fill 2
core_0_l1d_set 64
core_0_l1d_way 12
core_0_l1d_rq_size 64
core_0_l1d_wq_size 64
core_0_l1d_pq_size 8
core_0_l1d_mshr_size 16
core_0_l1d_hit_latency 2
core_0_l1d_fill_latency 3
core_0_l1d_max_tag_check 2
core_0_l1d_max_fill 2
core_0_l2c_set 1024
core_0_l2c_way 8
core_0_l2c_rq_size 32
core_0_l2c_wq_size 32
core_0_l2c_pq_size 16
core_0_l2c_mshr_size 32
core_0_l2c_hit_latency 5
core_0_l2c_fill_latency 5
core_0_l2c_max_tag_check 1
core_0_l2c_max_fill 1
llc_set 2048
llc_way 16
llc_rq_size 32
llc_wq_size 32
llc_pq_size 32
llc_mshr_size 64
llc_hit_latency 10
llc_fill_latency 10
llc_max_tag_check 1
llc_max_fill 1
dram_channels 1
dram_ranks 1
dram_bankgroups 8
dram_banks 4
dram_rows 65536
dram_columns 1024
dram_channel_width 8
dram_rq_size 64
dram_wq_size 64
dram_size 17179869184
core_0_itlb_prefetcher no
core_0_dtlb_prefetcher no
core_0_stlb_prefetcher no
core_0_l1i_prefetcher next_line
core_0_l1d_prefetcher vberti
core_0_l2c_prefetcher ip_stride
llc_prefetcher no
llc_replacement drrip

Core_0_instructions 100000000
Core_0_cycles 199692108
Core_0_IPC 0.500771
Core_0_branch_prediction_accuracy 100
Core_0_branch_MPKI 0
Core_0_average_ROB_occupancy_at_mispredict 0

Core_0_ITLB_total_access 15829975
Core_0_ITLB_total_hit 15829975
Core_0_ITLB_total_miss 0
Core_0_ITLB_total_MPKI 0
Core_0_ITLB_total_miss_rate 0
Core_0_ITLB_demand_access 15829975
Core_0_ITLB_demand_hit 15829975
Core_0_ITLB_demand_miss 0
Core_0_ITLB_demand_MPKI 0
Core_0_ITLB_demand_miss_rate 0
Core_0_ITLB_load_access 15829975
Core_0_ITLB_load_hit 15829975
Core_0_ITLB_load_miss 0
Core_0_ITLB_load_MPKI 0
Core_0_ITLB_load_miss_rate 0
Core_0_ITLB_rfo_access 0
Core_0_ITLB_rfo_hit 0
Core_0_ITLB_rfo_miss 0
Core_0_ITLB_rfo_MPKI 0
Core_0_ITLB_rfo_miss_rate 0
Core_0_ITLB_prefetch_access 0
Core_0_ITLB_prefetch_hit 0
Core_0_ITLB_prefetch_miss 0
Core_0_ITLB_prefetch_MPKI 0
Core_0_ITLB_prefetch_miss_rate 0
Core_0_ITLB_writeback_access 0
Core_0_ITLB_writeback_hit 0
Core_0_ITLB_writeback_miss 0
Core_0_ITLB_writeback_MPKI 0
Core_0_ITLB_writeback_miss_rate 0
Core_0_ITLB_prefetch_requested 0
Core_0_ITLB_prefetch_issued 0
Core_0_ITLB_prefetch_useful 0
Core_0_ITLB_prefetch_useless 0
Core_0_ITLB_prefetch_late 0
Core_0_ITLB_prefetch_fill 0
Core_0_ITLB_prefetch_too_early 0
Core_0_ITLB_prefetch_too_early_among_fill 0
Core_0_ITLB_prefetch_too_early_among_useless 0
Core_0_ITLB_prefetch_pollution_evict 0
Core_0_ITLB_prefetch_pollution_demand 0
Core_0_ITLB_prefetch_pollution_among_prefetch_fill 0
Core_0_ITLB_prefetch_accuracy 0
Core_0_ITLB_prefetch_coverage 0

Core_0_DTLB_total_access 49829948
Core_0_DTLB_total_hit 46767428
Core_0_DTLB_total_miss 3062520
Core_0_DTLB_total_MPKI 30.6252
Core_0_DTLB_total_miss_rate 0.0614594
Core_0_DTLB_demand_access 49829948
Core_0_DTLB_demand_hit 46767428
Core_0_DTLB_demand_miss 3062520
Core_0_DTLB_demand_MPKI 30.6252
Core_0_DTLB_demand_miss_rate 0.0614594
Core_0_DTLB_load_access 49829948
Core_0_DTLB_load_hit 46767428
Core_0_DTLB_load_miss 3062520
Core_0_DTLB_load_MPKI 30.6252
Core_0_DTLB_load_miss_rate 0.0614594
Core_0_DTLB_rfo_access 0
Core_0_DTLB_rfo_hit 0
Core_0_DTLB_rfo_miss 0
Core_0_DTLB_rfo_MPKI 0
Core_0_DTLB_rfo_miss_rate 0
Core_0_DTLB_prefetch_access 0
Core_0_DTLB_prefetch_hit 0
Core_0_DTLB_prefetch_miss 0
Core_0_DTLB_prefetch_MPKI 0
Core_0_DTLB_prefetch_miss_rate 0
Core_0_DTLB_writeback_access 0
Core_0_DTLB_writeback_hit 0
Core_0_DTLB_writeback_miss 0
Core_0_DTLB_writeback_MPKI 0
Core_0_DTLB_writeback_miss_rate 0
Core_0_DTLB_prefetch_requested 0
Core_0_DTLB_prefetch_issued 0
Core_0_DTLB_prefetch_useful 0
Core_0_DTLB_prefetch_useless 0
Core_0_DTLB_prefetch_late 0
Core_0_DTLB_prefetch_fill 0
Core_0_DTLB_prefetch_too_early 0
Core_0_DTLB_prefetch_too_early_among_fill 0
Core_0_DTLB_prefetch_too_early_among_useless 0
Core_0_DTLB_prefetch_pollution_evict 0
Core_0_DTLB_prefetch_pollution_demand 0
Core_0_DTLB_prefetch_pollution_among_prefetch_fill 0
Core_0_DTLB_prefetch_accuracy 0
Core_0_DTLB_prefetch_coverage 0

Core_0_STLB_total_access 2703651
Core_0_STLB_total_hit 459389
Core_0_STLB_total_miss 2244262
Core_0_STLB_total_MPKI 22.4426
Core_0_STLB_total_miss_rate 0.830086
Core_0_STLB_demand_access 2703651
Core_0_STLB_demand_hit 459389
Core_0_STLB_demand_miss 2244262
Core_0_STLB_demand_MPKI 22.4426
Core_0_STLB_demand_miss_rate 0.830086
Core_0_STLB_load_access 2703651
Core_0_STLB_load_hit 459389
Core_0_STLB_load_miss 2244262
Core_0_STLB_load_MPKI 22.4426
Core_0_STLB_load_miss_rate 0.830086
Core_0_STLB_rfo_access 0
Core_0_STLB_rfo_hit 0
Core_0_STLB_rfo_miss 0
Core_0_STLB_rfo_MPKI 0
Core_0_STLB_rfo_miss_rate 0
Core_0_STLB_prefetch_access 0
Core_0_STLB_prefetch_hit 0
Core_0_STLB_prefetch_miss 0
Core_0_STLB_prefetch_MPKI 0
Core_0_STLB_prefetch_miss_rate 0
Core_0_STLB_writeback_access 0
Core_0_STLB_writeback_hit 0
Core_0_STLB_writeback_miss 0
Core_0_STLB_writeback_MPKI 0
Core_0_STLB_writeback_miss_rate 0
Core_0_STLB_prefetch_requested 0
Core_0_STLB_prefetch_issued 0
Core_0_STLB_prefetch_useful 0
Core_0_STLB_prefetch_useless 0
Core_0_STLB_prefetch_late 0
Core_0_STLB_prefetch_fill 0
Core_0_STLB_prefetch_too_early 0
Core_0_STLB_prefetch_too_early_among_fill 0
Core_0_STLB_prefetch_too_early_among_useless 0
Core_0_STLB_prefetch_pollution_evict 0
Core_0_STLB_prefetch_pollution_demand 0
Core_0_STLB_prefetch_pollution_among_prefetch_fill 0
Core_0_STLB_prefetch_accuracy 0
Core_0_STLB_prefetch_coverage 0

Core_0_L1I_total_access 18461557
Core_0_L1I_total_hit 18461557
Core_0_L1I_total_miss 0
Core_0_L1I_total_MPKI 0
Core_0_L1I_total_miss_rate 0
Core_0_L1I_demand_access 18461557
Core_0_L1I_demand_hit 18461557
Core_0_L1I_demand_miss 0
Core_0_L1I_demand_MPKI 0
Core_0_L1I_demand_miss_rate 0
Core_0_L1I_load_access 18461557
Core_0_L1I_load_hit 18461557
Core_0_L1I_load_miss 0
Core_0_L1I_load_MPKI 0
Core_0_L1I_load_miss_rate 0
Core_0_L1I_rfo_access 0
Core_0_L1I_rfo_hit 0
Core_0_L1I_rfo_miss 0
Core_0_L1I_rfo_MPKI 0
Core_0_L1I_rfo_miss_rate 0
Core_0_L1I_prefetch_access 0
Core_0_L1I_prefetch_hit 0
Core_0_L1I_prefetch_miss 0
Core_0_L1I_prefetch_MPKI 0
Core_0_L1I_prefetch_miss_rate 0
Core_0_L1I_writeback_access 0
Core_0_L1I_writeback_hit 0
Core_0_L1I_writeback_miss 0
Core_0_L1I_writeback_MPKI 0
Core_0_L1I_writeback_miss_rate 0
Core_0_L1I_prefetch_requested 0
Core_0_L1I_prefetch_issued 0
Core_0_L1I_prefetch_useful 0
Core_0_L1I_prefetch_useless 0
Core_0_L1I_prefetch_late 0
Core_0_L1I_prefetch_fill 0
Core_0_L1I_prefetch_too_early 0
Core_0_L1I_prefetch_too_early_among_fill 0
Core_0_L1I_prefetch_too_early_among_useless 0
Core_0_L1I_prefetch_pollution_evict 0
Core_0_L1I_prefetch_pollution_demand 0
Core_0_L1I_prefetch_pollution_among_prefetch_fill 0
Core_0_L1I_prefetch_accuracy 0
Core_0_L1I_prefetch_coverage 0

Core_0_L1D_total_access 61605818
Core_0_L1D_total_hit 46044968
Core_0_L1D_total_miss 15560850
Core_0_L1D_total_MPKI 155.608
Core_0_L1D_total_miss_rate 0.252587
Core_0_L1D_demand_access 23260637
Core_0_L1D_demand_hit 19071610
Core_0_L1D_demand_miss 4189027
Core_0_L1D_demand_MPKI 41.8903
Core_0_L1D_demand_miss_rate 0.180091
Core_0_L1D_load_access 23260637
Core_0_L1D_load_hit 19071610
Core_0_L1D_load_miss 4189027
Core_0_L1D_load_MPKI 41.8903
Core_0_L1D_load_miss_rate 0.180091
Core_0_L1D_rfo_access 0
Core_0_L1D_rfo_hit 0
Core_0_L1D_rfo_miss 0
Core_0_L1D_rfo_MPKI 0
Core_0_L1D_rfo_miss_rate 0
Core_0_L1D_prefetch_access 35713602
Core_0_L1D_prefetch_hit 24341779
Core_0_L1D_prefetch_miss 11371823
Core_0_L1D_prefetch_MPKI 113.718
Core_0_L1D_prefetch_miss_rate 0.318417
Core_0_L1D_writeback_access 2631579
Core_0_L1D_writeback_hit 2631579
Core_0_L1D_writeback_miss 0
Core_0_L1D_writeback_MPKI 0
Core_0_L1D_writeback_miss_rate 0
Core_0_L1D_prefetch_requested 100424427
Core_0_L1D_prefetch_issued 35713594
Core_0_L1D_prefetch_useful 1598696
Core_0_L1D_prefetch_useless 1068930
Core_0_L1D_prefetch_late 32348
Core_0_L1D_prefetch_fill 2635329
Core_0_L1D_prefetch_too_early 0
Core_0_L1D_prefetch_too_early_among_fill 0
Core_0_L1D_prefetch_too_early_among_useless 0
Core_0_L1D_prefetch_pollution_evict 1165
Core_0_L1D_prefetch_pollution_demand 1165
Core_0_L1D_prefetch_pollution_among_prefetch_fill 0.00044207
Core_0_L1D_prefetch_accuracy 0.0447644
Core_0_L1D_prefetch_coverage 0.276222

Core_0_L2C_total_access 19520078
Core_0_L2C_total_hit 7794643
Core_0_L2C_total_miss 11725435
Core_0_L2C_total_MPKI 117.254
Core_0_L2C_total_miss_rate 0.600686
Core_0_L2C_demand_access 4156630
Core_0_L2C_demand_hit 1307818
Core_0_L2C_demand_miss 2848812
Core_0_L2C_demand_MPKI 28.4881
Core_0_L2C_demand_miss_rate 0.685366
Core_0_L2C_load_access 4156630
Core_0_L2C_load_hit 1307818
Core_0_L2C_load_miss 2848812
Core_0_L2C_load_MPKI 28.4881
Core_0_L2C_load_miss_rate 0.685366
Core_0_L2C_rfo_access 0
Core_0_L2C_rfo_hit 0
Core_0_L2C_rfo_miss 0
Core_0_L2C_rfo_MPKI 0
Core_0_L2C_rfo_miss_rate 0
Core_0_L2C_prefetch_access 15198975
Core_0_L2C_prefetch_hit 6322362
Core_0_L2C_prefetch_miss 8876613
Core_0_L2C_prefetch_MPKI 88.7661
Core_0_L2C_prefetch_miss_rate 0.584027
Core_0_L2C_writeback_access 164473
Core_0_L2C_writeback_hit 164463
Core_0_L2C_writeback_miss 10
Core_0_L2C_writeback_MPKI 0.0001
Core_0_L2C_writeback_miss_rate 6.08003e-05
Core_0_L2C_prefetch_requested 3921335
Core_0_L2C_prefetch_issued 3921287
Core_0_L2C_prefetch_useful 709980
Core_0_L2C_prefetch_useless 211386
Core_0_L2C_prefetch_late 22002
Core_0_L2C_prefetch_fill 5370294
Core_0_L2C_prefetch_too_early 0
Core_0_L2C_prefetch_too_early_among_fill 0
Core_0_L2C_prefetch_too_early_among_useless 0
Core_0_L2C_prefetch_pollution_evict 12043
Core_0_L2C_prefetch_pollution_demand 12043
Core_0_L2C_prefetch_pollution_among_prefetch_fill 0.00224252
Core_0_L2C_prefetch_accuracy 0.181058
Core_0_L2C_prefetch_coverage 0.1995

Core_0_LLC_total_access 8574904
Core_0_LLC_total_hit 160756
Core_0_LLC_total_miss 8414148
Core_0_LLC_total_MPKI 84.1415
Core_0_LLC_total_miss_rate 0.981253
Core_0_LLC_demand_access 2743824
Core_0_LLC_demand_hit 38156
Core_0_LLC_demand_miss 2705668
Core_0_LLC_demand_MPKI 27.0567
Core_0_LLC_demand_miss_rate 0.986094
Core_0_LLC_load_access 2743824
Core_0_LLC_load_hit 38156
Core_0_LLC_load_miss 2705668
Core_0_LLC_load_MPKI 27.0567
Core_0_LLC_load_miss_rate 0.986094
Core_0_LLC_rfo_access 0
Core_0_LLC_rfo_hit 0
Core_0_LLC_rfo_miss 0
Core_0_LLC_rfo_MPKI 0
Core_0_LLC_rfo_miss_rate 0
Core_0_LLC_prefetch_access 5666511
Core_0_LLC_prefetch_hit 92886
Core_0_LLC_prefetch_miss 5573625
Core_0_LLC_prefetch_MPKI 55.7362
Core_0_LLC_prefetch_miss_rate 0.983608
Core_0_LLC_writeback_access 164569
Core_0_LLC_writeback_hit 29714
Core_0_LLC_writeback_miss 134855
Core_0_LLC_writeback_MPKI 1.34855
Core_0_LLC_writeback_miss_rate 0.819444
Core_0_LLC_prefetch_requested 0
Core_0_LLC_prefetch_issued 0
Core_0_LLC_prefetch_useful 0
Core_0_LLC_prefetch_useless 0
Core_0_LLC_prefetch_late 0
Core_0_LLC_prefetch_fill 5484873
Core_0_LLC_prefetch_too_early 0
Core_0_LLC_prefetch_too_early_among_fill 0
Core_0_LLC_prefetch_too_early_among_useless 0
Core_0_LLC_prefetch_pollution_evict 44978
Core_0_LLC_prefetch_pollution_demand 44978
Core_0_LLC_prefetch_pollution_among_prefetch_fill 0.00820037
Core_0_LLC_prefetch_accuracy 0
Core_0_LLC_prefetch_coverage 0

[DRAM Statistics]
Channel_0_RQ_row_buffer_hit 1010216
Channel_0_RQ_row_buffer_miss 7222623
Channel_0_WQ_row_buffer_hit 4522
Channel_0_WQ_row_buffer_miss 163146
Channel_0_WQ_full 0
Channel_0_dbus_congested 15243078
DRAM_total_RQ_row_buffer_hit 1010216
DRAM_total_RQ_row_buffer_miss 7222623
DRAM_total_WQ_row_buffer_hit 4522
DRAM_total_WQ_row_buffer_miss 163146
DRAM_total_WQ_full 0
DRAM_total_dbus_congested 15243078
DRAM_avg_congested_cycle 3.33949

====== DRAM_RQ_TRAFFIC ========
DRAM_RQ_READ_TRAFFIC_BREAKDOWN:
data_demand_read.count = 2704711
data_demand_read.share = 32.85%

inst_demand_read.count = 0
inst_demand_read.share = 0.00%

cache_inst_prefetch.count = 0
cache_inst_prefetch.share = 0.00%

cache_data_prefetch.count = 5485830
cache_data_prefetch.share = 66.63%

stlb_data_demand.count = 30776
stlb_data_demand.share = 0.37%

stlb_inst_demand.count = 0
stlb_inst_demand.share = 0.00%

stlb_l1i_pref.count = 0
stlb_l1i_pref.share = 0.00%

stlb_l1d_pref.count = 11522
stlb_l1d_pref.share = 0.14%

DRAM_RQ_READ_TRAFFIC_SUMMARY:
cache_demand.count = 2704711
cache_demand.share = 32.85%

cache_prefetch.count = 5485830
cache_prefetch.share = 66.63%

stlb_demand.count = 30776
stlb_demand.share = 0.37%

stlb_prefetch.count = 11522
stlb_prefetch.share = 0.14%

DRAM_RQ_READ_TRAFFIC_DEBUG:
total_classified_read.count = 8232839
unclassified_read.count = 0
total_read_with_other.count = 8232839

classified_plus_unclassified_check.count = 8232839
dram_rq_read_total_observed.count = 8232839
dram_rq_read_total_observed.per_1K_instructions = 82.3284

STLB_MISS_PTW_DRAM_TOUCH_BREAKDOWN:
stlb_miss_total.count = 2244068

stlb_miss_touch_dram.count = 42110
stlb_miss_touch_dram.share = 1.88%

stlb_miss_no_dram_touch.count = 2201958
stlb_miss_no_dram_touch.share = 98.12%

STLB_MISS_PTW_DRAM_TOUCH_DEBUG:
stlb_miss_touch_plus_no_touch.count = 2244068
stlb_miss_total_check.count = 2244068

======STLB miss causes ========
Core_0_STLB_miss_cause_breakdown
Core_0_STLB_cause_Demand_Data_miss 2154058
Core_0_STLB_cause_Demand_Data_miss_rate 0.796722
Core_0_STLB_cause_Demand_Instruction_miss 0
Core_0_STLB_cause_Demand_Instruction_miss_rate 0
Core_0_STLB_cause_L1D_Prefetch_miss 90204
Core_0_STLB_cause_L1D_Prefetch_miss_rate 0.0333638
Core_0_STLB_cause_L1D_Prefetch_Same_Page_miss 1
Core_0_STLB_cause_L1D_Prefetch_Same_Page_miss_rate 3.6987e-07
Core_0_STLB_cause_L1D_Prefetch_Cross_Page_miss 90203
Core_0_STLB_cause_L1D_Prefetch_Cross_Page_miss_rate 0.0333634
Core_0_STLB_cause_L1I_Prefetch_miss 0
Core_0_STLB_cause_L1I_Prefetch_miss_rate 0
Core_0_STLB_cause_Other_miss 0
Core_0_STLB_cause_Other_miss_rate 0
Core_0_STLB_Demand_miss 2154058
Core_0_STLB_Demand_miss_rate 0.796722
Core_0_STLB_L1D_Prefetch_miss 90204
Core_0_STLB_L1D_Prefetch_miss_rate 0.0333638
Core_0_STLB_Other_miss 0
Core_0_STLB_Other_miss_rate 0

========== vBerti-TLB Cross-page Flow Stats ==========

Core_0_vBerti_Requested 100424427
Core_0_vBerti_Cross_page_prefetch_in_Requested 15598891
Core_0_vBerti_Same_page_prefetch_in_Requested 84825536
Core_0_vBerti_Cross_page_prefetch_of_Requested 0.15533
Core_0_vBerti_Issued 35713594
Core_0_vBerti_PQ_Drop_Rate 0.644373
Core_0_vBerti_InPQ_Cross_page_prefetch_of_Requested 0.0410639
Core_0_vBerti_Cross_page_PQ_Drop_rate 0.735634
Core_0_vBerti_Cross_page_prefetch_of_Issued 0.115469

========= DTLB_vBerti Prefetch Stats =========
Core_0_DTLB_demand_access 25193554
Core_0_DTLB_demand_hit 22578892
Core_0_DTLB_demand_miss 2614662
Core_0_DTLB_demand_mshr_merge 1219
Core_0_DTLB_demand_fill 2613663
Core_0_DTLB_demand_miss_rate 0.103783
Core_0_DTLB_demand_mpki 26.1466
Core_0_DTLB_vberti_prefetch_access 24636394
Core_0_DTLB_vberti_prefetch_hit 24188536
Core_0_DTLB_vberti_prefetch_miss 447858
Core_0_DTLB_vberti_prefetch_mshr_merge 357650
Core_0_DTLB_vberti_prefetch_fill 89992
Core_0_DTLB_vberti_prefetch_miss_rate 0.0181787
Core_0_DTLB_vberti_prefetch_mpki 4.47858

=== DTLB_vBerti Same/Cross-page Prefetch Stats ===
Core_0_DTLB_vberti_same_page_prefetch 21579974
Core_0_DTLB_vberti_same_page_prefetch_hit 21579973
Core_0_DTLB_vberti_same_page_prefetch_miss 1
Core_0_DTLB_vberti_same_page_prefetch_mshr_merge 0
Core_0_DTLB_vberti_same_page_prefetch_fill 1
Core_0_DTLB_vberti_same_page_prefetch_miss_rate 4.63393e-08
Core_0_DTLB_vberti_same_page_prefetch_mpki 1e-05
Core_0_DTLB_vberti_cross_page_prefetch 3056420
Core_0_DTLB_vberti_cross_page_prefetch_hit 2608563
Core_0_DTLB_vberti_cross_page_prefetch_miss 447857
Core_0_DTLB_vberti_cross_page_prefetch_mshr_merge 357650
Core_0_DTLB_vberti_cross_page_prefetch_fill 89991
Core_0_DTLB_vberti_cross_page_prefetch_miss_rate 0.14653
Core_0_DTLB_vberti_cross_page_prefetch_mpki 4.47857
Core_0_DTLB_same_page_prefetch_miss_rate 4.63393e-08
Core_0_DTLB_same_page_prefetch_mpki 1e-05
Core_0_DTLB_cross_page_prefetch_miss_rate 0.14653
Core_0_DTLB_cross_page_prefetch_mpki 4.47857
Core_0_DTLB_cross_page_prefetch_issued 3056420
Core_0_DTLB_cross_page_prefetch_lookups 3056420
Core_0_DTLB_cross_page_prefetch_useful 89938
Core_0_DTLB_cross_page_prefetch_useless 269
Core_0_DTLB_cross_page_prefetch_late 216
Core_0_DTLB_cross_page_prefetch_too_early 16
Core_0_DTLB_cross_page_prefetch_too_early_among_fill 0.000177796
Core_0_DTLB_cross_page_prefetch_too_early_among_useless 0.0594796
Core_0_DTLB_cross_page_prefetch_pollution_evict 17468
Core_0_DTLB_cross_page_prefetch_pollution_demand 17466
Core_0_DTLB_cross_page_prefetch_pollution_among_prefetch_fill 0.194108
Core_0_DTLB_cross_page_prefetch_accuracy 0.0294259
Core_0_DTLB_cross_page_prefetch_coverage 0.0332537

========= STLB_vBerti Prefetch Stats =========
Core_0_STLB_demand_access 2613443
Core_0_STLB_demand_hit 459385
Core_0_STLB_demand_miss 2154058
Core_0_STLB_demand_mshr_merge 0
Core_0_STLB_demand_fill 2154062
Core_0_STLB_demand_miss_rate 0.824222
Core_0_STLB_demand_mpki 21.5406
Core_0_STLB_vberti_prefetch_access 90208
Core_0_STLB_vberti_prefetch_hit 4
Core_0_STLB_vberti_prefetch_miss 90204
Core_0_STLB_vberti_prefetch_mshr_merge 0
Core_0_STLB_vberti_prefetch_fill 1
Core_0_STLB_vberti_prefetch_miss_rate 0.999956
Core_0_STLB_vberti_prefetch_mpki 0.90204

=== STLB_vBerti Same/Cross-page Prefetch Stats ===
Core_0_STLB_vberti_same_page_prefetch 1
Core_0_STLB_vberti_same_page_prefetch_hit 0
Core_0_STLB_vberti_same_page_prefetch_miss 1
Core_0_STLB_vberti_same_page_prefetch_mshr_merge 0
Core_0_STLB_vberti_same_page_prefetch_fill 1
Core_0_STLB_vberti_same_page_prefetch_miss_rate 1
Core_0_STLB_vberti_same_page_prefetch_mpki 1e-05
Core_0_STLB_vberti_cross_page_prefetch 90207
Core_0_STLB_vberti_cross_page_prefetch_hit 4
Core_0_STLB_vberti_cross_page_prefetch_miss 90203
Core_0_STLB_vberti_cross_page_prefetch_mshr_merge 0
Core_0_STLB_vberti_cross_page_prefetch_fill 0
Core_0_STLB_vberti_cross_page_prefetch_miss_rate 0.999956
Core_0_STLB_vberti_cross_page_prefetch_mpki 0.90203
Core_0_STLB_same_page_prefetch_miss_rate 1
Core_0_STLB_same_page_prefetch_mpki 1e-05
Core_0_STLB_cross_page_prefetch_miss_rate 0.999956
Core_0_STLB_cross_page_prefetch_mpki 0.90203
Core_0_STLB_cross_page_prefetch_issued 90207
Core_0_STLB_cross_page_prefetch_lookups 90207
Core_0_STLB_cross_page_prefetch_useful 194
Core_0_STLB_cross_page_prefetch_useless 90002
Core_0_STLB_cross_page_prefetch_late 194
Core_0_STLB_cross_page_prefetch_too_early 0
Core_0_STLB_cross_page_prefetch_too_early_among_fill 0
Core_0_STLB_cross_page_prefetch_too_early_among_useless 0
Core_0_STLB_cross_page_prefetch_pollution_evict 0
Core_0_STLB_cross_page_prefetch_pollution_demand 0
Core_0_STLB_cross_page_prefetch_pollution_among_prefetch_fill 0
Core_0_STLB_cross_page_prefetch_accuracy 0.00215061
Core_0_STLB_cross_page_prefetch_coverage 9.00545e-05

========= STLB Cross-page Prefetch Buffer Stats =========
Core_0_STLB_raw_demand_miss 2154058
Core_0_CP_PB_insert 90203
Core_0_CP_PB_demand_hit 194
Core_0_STLB_PB_demand_miss 2153864
Core_0_CP_PB_coverage 9.00626e-05
Core_0_STLB_raw_demand_mpki 21.5406
Core_0_STLB_PB_demand_mpki 21.5386
Core_0_CP_PB_demand_hit_mpki 0.00194

Core_0_TLB_demand_miss_rate 0.0855004
Core_0_TLB_demand_mpki 21.5406
Core_0_TLB_same_page_prefetch_miss_rate 4.63393e-08
Core_0_TLB_same_page_prefetch_mpki 1e-05
Core_0_TLB_cross_page_prefetch_miss_rate 0.0295126
Core_0_TLB_cross_page_prefetch_mpki 0.90203
Core_0_TLB_cross_page_prefetch_issued 3056420
Core_0_TLB_cross_page_prefetch_lookups 3056420
Core_0_TLB_cross_page_prefetch_useful 89938
Core_0_TLB_cross_page_prefetch_useless 269
Core_0_TLB_cross_page_prefetch_late 216
Core_0_TLB_cross_page_prefetch_too_early 16
Core_0_TLB_cross_page_prefetch_too_early_among_fill 0.000177796
Core_0_TLB_cross_page_prefetch_too_early_among_useless 0.0594796
Core_0_TLB_cross_page_prefetch_accuracy 0.0294259
Core_0_TLB_cross_page_prefetch_coverage 0.0400794
BERTI TO_L1: 91413888 TO_L2: 39906695 TO_L2_BC_MSHR: 2768700
BERTI AVG_LAT: 137.666 NUM_TRACK_LATENCY: 9846973 NUM_CANT_TRACK_LATENCY: 0
BERTI CROSS_PAGE 20900003 NO_CROSS_PAGE: 110420580
BERTI FOUND_BERTI: 21928402 NO_FOUND_BERTI: 11557266
BERTI AVERAGE_ISSUED: 4.51409
