[VMEM] WARNING: physical memory size is smaller than virtual memory size.

*** ChampSim Multicore Out-of-Order Simulator ***
Warmup Instructions: 50000000
Simulation Instructions: 100000000
Number of CPUs: 1
Page size: 4096
Core 0: /data0/tzh/champsim_traces/QMM/compute_int_37_new.xz
VBerti Prefetcher
BERTI HASH ENTANGLING
BERTI IP MASK ffff
Off-chip DRAM Size: 16 GiB Channels: 1 Width: 64-bit Data Rate: 3205 MT/s
*** Reached end of trace: (0, "/data0/tzh/champsim_traces/QMM/compute_int_37_new.xz")
Warmup halting CPU 0 at instruction 50000002 cycle 19908448 for remainder of phase
Warmup finished CPU 0 instructions: 50000002 cycles: 19908448 cumulative IPC: 2.511 (Simulation time: 00 hr 04 min 37 sec)
Warmup complete CPU 0 instructions: 50000002 cycles: 19908448 cumulative IPC: 2.511 (Simulation time: 00 hr 04 min 37 sec)
*** Reached end of trace: (0, "/data0/tzh/champsim_traces/QMM/compute_int_37_new.xz")
*** Reached end of trace: (0, "/data0/tzh/champsim_traces/QMM/compute_int_37_new.xz")
*** Reached end of trace: (0, "/data0/tzh/champsim_traces/QMM/compute_int_37_new.xz")
Simulation finished CPU 0 instructions: 100000002 cycles: 266440124 cumulative IPC: 0.3753 (Simulation time: 00 hr 48 min 37 sec)
Simulation complete CPU 0 instructions: 100000002 cycles: 266440124 cumulative IPC: 0.3753 (Simulation time: 00 hr 48 min 37 sec)

ChampSim completed all CPUs

=== Simulation ===
CPU 0 runs /data0/tzh/champsim_traces/QMM/compute_int_37_new.xz

Region of Interest Statistics

CPU 0 cumulative IPC: 0.3753 instructions: 100000002 cycles: 266440124
CPU 0 Branch Prediction Accuracy: 99.89% MPKI: 0.2 Average ROB Occupancy at Mispredict: 155.7
Branch type MPKI
BRANCH_DIRECT_JUMP: 0
BRANCH_INDIRECT: 0
BRANCH_CONDITIONAL: 0.2
BRANCH_DIRECT_CALL: 0
BRANCH_INDIRECT_CALL: 0
BRANCH_RETURN: 0

cpu0->cpu0_STLB TOTAL        ACCESS:    3019404 HIT:     636116 MISS:    2383288 MSHR_MERGE:          0
cpu0->cpu0_STLB LOAD         ACCESS:    3019404 HIT:     636116 MISS:    2383288 MSHR_MERGE:          0
cpu0->cpu0_STLB RFO          ACCESS:          0 HIT:          0 MISS:          0 MSHR_MERGE:          0
cpu0->cpu0_STLB PREFETCH     ACCESS:          0 HIT:          0 MISS:          0 MSHR_MERGE:          0
cpu0->cpu0_STLB WRITE        ACCESS:          0 HIT:          0 MISS:          0 MSHR_MERGE:          0
cpu0->cpu0_STLB TRANSLATION  ACCESS:          0 HIT:          0 MISS:          0 MSHR_MERGE:          0
cpu0->cpu0_STLB PREFETCH REQUESTED:          0 ISSUED:          0 USEFUL:          0 USELESS:          0 LATE:          0 TOO_EARLY:          0
cpu0->cpu0_STLB AVERAGE MISS LATENCY: 81.57 cycles
cpu0->cpu0_L2C TOTAL        ACCESS:   29432430 HIT:    8539659 MISS:   20892771 MSHR_MERGE:    1966898
cpu0->cpu0_L2C LOAD         ACCESS:   10885903 HIT:    1136063 MISS:    9749840 MSHR_MERGE:     704309
cpu0->cpu0_L2C RFO          ACCESS:     412978 HIT:      88460 MISS:     324518 MSHR_MERGE:          1
cpu0->cpu0_L2C PREFETCH     ACCESS:   13697616 HIT:    4943587 MISS:    8754029 MSHR_MERGE:    1262588
cpu0->cpu0_L2C WRITE        ACCESS:    2133998 HIT:    2133979 MISS:         19 MSHR_MERGE:          0
cpu0->cpu0_L2C TRANSLATION  ACCESS:    2301935 HIT:     237570 MISS:    2064365 MSHR_MERGE:          0
cpu0->cpu0_L2C PREFETCH REQUESTED:    8289954 ISSUED:    8285035 USEFUL:     691282 USELESS:     276880 LATE:     654106 TOO_EARLY:       3797
cpu0->cpu0_L2C AVERAGE MISS LATENCY: 211.6 cycles
cpu0->cpu0_L1I TOTAL        ACCESS:   22100500 HIT:   22099502 MISS:        998 MSHR_MERGE:        431
cpu0->cpu0_L1I LOAD         ACCESS:   22100500 HIT:   22099502 MISS:        998 MSHR_MERGE:        431
cpu0->cpu0_L1I RFO          ACCESS:          0 HIT:          0 MISS:          0 MSHR_MERGE:          0
cpu0->cpu0_L1I PREFETCH     ACCESS:          0 HIT:          0 MISS:          0 MSHR_MERGE:          0
cpu0->cpu0_L1I WRITE        ACCESS:          0 HIT:          0 MISS:          0 MSHR_MERGE:          0
cpu0->cpu0_L1I TRANSLATION  ACCESS:          0 HIT:          0 MISS:          0 MSHR_MERGE:          0
cpu0->cpu0_L1I PREFETCH REQUESTED:          0 ISSUED:          0 USEFUL:          0 USELESS:          0 LATE:          0 TOO_EARLY:          0
cpu0->cpu0_L1I AVERAGE MISS LATENCY: 254.4 cycles
cpu0->cpu0_L1D TOTAL        ACCESS:   37338854 HIT:   16613301 MISS:   20725553 MSHR_MERGE:    1678312
cpu0->cpu0_L1D LOAD         ACCESS:   20883613 HIT:    8758644 MISS:   12124969 MSHR_MERGE:    1239633
cpu0->cpu0_L1D RFO          ACCESS:          0 HIT:          0 MISS:          0 MSHR_MERGE:          0
cpu0->cpu0_L1D PREFETCH     ACCESS:    8333414 HIT:    2845225 MISS:    5488189 MSHR_MERGE:      41196
cpu0->cpu0_L1D WRITE        ACCESS:    2840710 HIT:    2080938 MISS:     759772 MSHR_MERGE:     346794
cpu0->cpu0_L1D TRANSLATION  ACCESS:    5281117 HIT:    2928494 MISS:    2352623 MSHR_MERGE:      50689
cpu0->cpu0_L1D PREFETCH REQUESTED:  625804347 ISSUED:    8333417 USEFUL:     146045 USELESS:      33273 LATE:      18687 TOO_EARLY:       2531
cpu0->cpu0_L1D AVERAGE MISS LATENCY: 197.9 cycles
cpu0->cpu0_ITLB TOTAL        ACCESS:   19399216 HIT:   19398596 MISS:        620 MSHR_MERGE:        436
cpu0->cpu0_ITLB LOAD         ACCESS:   19399216 HIT:   19398596 MISS:        620 MSHR_MERGE:        436
cpu0->cpu0_ITLB RFO          ACCESS:          0 HIT:          0 MISS:          0 MSHR_MERGE:          0
cpu0->cpu0_ITLB PREFETCH     ACCESS:          0 HIT:          0 MISS:          0 MSHR_MERGE:          0
cpu0->cpu0_ITLB WRITE        ACCESS:          0 HIT:          0 MISS:          0 MSHR_MERGE:          0
cpu0->cpu0_ITLB TRANSLATION  ACCESS:          0 HIT:          0 MISS:          0 MSHR_MERGE:          0
cpu0->cpu0_ITLB PREFETCH REQUESTED:          0 ISSUED:          0 USEFUL:          0 USELESS:          0 LATE:          0 TOO_EARLY:          0
cpu0->cpu0_ITLB AVERAGE MISS LATENCY: 254.1 cycles
cpu0->cpu0_DTLB TOTAL        ACCESS:   28753684 HIT:   22382452 MISS:    6371232 MSHR_MERGE:    3352012
cpu0->cpu0_DTLB LOAD         ACCESS:   28753684 HIT:   22382452 MISS:    6371232 MSHR_MERGE:    3352012
cpu0->cpu0_DTLB RFO          ACCESS:          0 HIT:          0 MISS:          0 MSHR_MERGE:          0
cpu0->cpu0_DTLB PREFETCH     ACCESS:          0 HIT:          0 MISS:          0 MSHR_MERGE:          0
cpu0->cpu0_DTLB WRITE        ACCESS:          0 HIT:          0 MISS:          0 MSHR_MERGE:          0
cpu0->cpu0_DTLB TRANSLATION  ACCESS:          0 HIT:          0 MISS:          0 MSHR_MERGE:          0
cpu0->cpu0_DTLB PREFETCH REQUESTED:          0 ISSUED:          0 USEFUL:          0 USELESS:          0 LATE:          0 TOO_EARLY:          0
cpu0->cpu0_DTLB AVERAGE MISS LATENCY: 69.98 cycles
cpu0->LLC TOTAL        ACCESS:   20972555 HIT:    4616811 MISS:   16355744 MSHR_MERGE:    5416721
cpu0->LLC LOAD         ACCESS:    9045530 HIT:     630806 MISS:    8414724 MSHR_MERGE:    3704086
cpu0->LLC RFO          ACCESS:     324516 HIT:     166879 MISS:     157637 MSHR_MERGE:          0
cpu0->LLC PREFETCH     ACCESS:    7491430 HIT:     147405 MISS:    7344025 MSHR_MERGE:    1712635
cpu0->LLC WRITE        ACCESS:    2046714 HIT:    1805541 MISS:     241173 MSHR_MERGE:          0
cpu0->LLC TRANSLATION  ACCESS:    2064365 HIT:    1866180 MISS:     198185 MSHR_MERGE:          0
cpu0->LLC PREFETCH REQUESTED:          0 ISSUED:          0 USEFUL:          0 USELESS:          0 LATE:          0 TOO_EARLY:          0
cpu0->LLC AVERAGE MISS LATENCY: 251.3 cycles

DRAM Statistics

Channel 0 RQ ROW_BUFFER_HIT:    3398173
  ROW_BUFFER_MISS:    7299572
  AVG DBUS CONGESTED CYCLE: 4.659
Channel 0 WQ ROW_BUFFER_HIT:     321063
  ROW_BUFFER_MISS:    1729262
  FULL:          0
Channel 0 REFRESHES ISSUED:      22203

[ROI Statistics]
[System Configuration]
num_cpus 1
cpu_freq 4000
fetch_width 6
decode_width 6
dispatch_width 6
execute_width 6
lq_width 2
sq_width 2
retire_width 6
scheduler_size 128
branch_mispredict_penalty 15
rob_size 352
lq_size 128
sq_size 72
ifetch_buffer_size 64
decode_buffer_size 32
dispatch_buffer_size 32
register_file_size 288
decode_latency 1
dispatch_latency 1
schedule_latency 1
execute_latency 1
page_size 4096
block_size 64
core_0_itlb_set 16
core_0_itlb_way 4
core_0_itlb_rq_size 16
core_0_itlb_wq_size 16
core_0_itlb_pq_size 0
core_0_itlb_mshr_size 8
core_0_itlb_hit_latency 1
core_0_itlb_fill_latency 1
core_0_itlb_max_tag_check 2
core_0_itlb_max_fill 2
core_0_dtlb_set 16
core_0_dtlb_way 4
core_0_dtlb_rq_size 16
core_0_dtlb_wq_size 16
core_0_dtlb_pq_size 0
core_0_dtlb_mshr_size 8
core_0_dtlb_hit_latency 1
core_0_dtlb_fill_latency 1
core_0_dtlb_max_tag_check 2
core_0_dtlb_max_fill 2
core_0_stlb_set 128
core_0_stlb_way 12
core_0_stlb_rq_size 32
core_0_stlb_wq_size 32
core_0_stlb_pq_size 0
core_0_stlb_mshr_size 16
core_0_stlb_hit_latency 4
core_0_stlb_fill_latency 4
core_0_stlb_max_tag_check 1
core_0_stlb_max_fill 1
core_0_l1i_set 64
core_0_l1i_way 8
core_0_l1i_rq_size 64
core_0_l1i_wq_size 64
core_0_l1i_pq_size 32
core_0_l1i_mshr_size 8
core_0_l1i_hit_latency 2
core_0_l1i_fill_latency 2
core_0_l1i_max_tag_check 2
core_0_l1i_max_fill 2
core_0_l1d_set 64
core_0_l1d_way 12
core_0_l1d_rq_size 64
core_0_l1d_wq_size 64
core_0_l1d_pq_size 8
core_0_l1d_mshr_size 16
core_0_l1d_hit_latency 2
core_0_l1d_fill_latency 3
core_0_l1d_max_tag_check 2
core_0_l1d_max_fill 2
core_0_l2c_set 1024
core_0_l2c_way 8
core_0_l2c_rq_size 32
core_0_l2c_wq_size 32
core_0_l2c_pq_size 16
core_0_l2c_mshr_size 32
core_0_l2c_hit_latency 5
core_0_l2c_fill_latency 5
core_0_l2c_max_tag_check 1
core_0_l2c_max_fill 1
llc_set 2048
llc_way 16
llc_rq_size 32
llc_wq_size 32
llc_pq_size 32
llc_mshr_size 64
llc_hit_latency 10
llc_fill_latency 10
llc_max_tag_check 1
llc_max_fill 1
dram_channels 1
dram_ranks 1
dram_bankgroups 8
dram_banks 4
dram_rows 65536
dram_columns 1024
dram_channel_width 8
dram_rq_size 64
dram_wq_size 64
dram_size 17179869184
core_0_itlb_prefetcher no
core_0_dtlb_prefetcher no
core_0_stlb_prefetcher no
core_0_l1i_prefetcher next_line
core_0_l1d_prefetcher vberti
core_0_l2c_prefetcher ip_stride
llc_prefetcher no
llc_replacement drrip

Core_0_instructions 100000002
Core_0_cycles 266440124
Core_0_IPC 0.375319
Core_0_branch_prediction_accuracy 99.8939
Core_0_branch_MPKI 0.20003
Core_0_average_ROB_occupancy_at_mispredict 155.685

Core_0_ITLB_total_access 19399216
Core_0_ITLB_total_hit 19398596
Core_0_ITLB_total_miss 620
Core_0_ITLB_total_MPKI 0.0062
Core_0_ITLB_total_miss_rate 3.19601e-05
Core_0_ITLB_demand_access 19399216
Core_0_ITLB_demand_hit 19398596
Core_0_ITLB_demand_miss 620
Core_0_ITLB_demand_MPKI 0.0062
Core_0_ITLB_demand_miss_rate 3.19601e-05
Core_0_ITLB_load_access 19399216
Core_0_ITLB_load_hit 19398596
Core_0_ITLB_load_miss 620
Core_0_ITLB_load_MPKI 0.0062
Core_0_ITLB_load_miss_rate 3.19601e-05
Core_0_ITLB_rfo_access 0
Core_0_ITLB_rfo_hit 0
Core_0_ITLB_rfo_miss 0
Core_0_ITLB_rfo_MPKI 0
Core_0_ITLB_rfo_miss_rate 0
Core_0_ITLB_prefetch_access 0
Core_0_ITLB_prefetch_hit 0
Core_0_ITLB_prefetch_miss 0
Core_0_ITLB_prefetch_MPKI 0
Core_0_ITLB_prefetch_miss_rate 0
Core_0_ITLB_writeback_access 0
Core_0_ITLB_writeback_hit 0
Core_0_ITLB_writeback_miss 0
Core_0_ITLB_writeback_MPKI 0
Core_0_ITLB_writeback_miss_rate 0
Core_0_ITLB_prefetch_requested 0
Core_0_ITLB_prefetch_issued 0
Core_0_ITLB_prefetch_useful 0
Core_0_ITLB_prefetch_useless 0
Core_0_ITLB_prefetch_late 0
Core_0_ITLB_prefetch_fill 0
Core_0_ITLB_prefetch_too_early 0
Core_0_ITLB_prefetch_too_early_among_fill 0
Core_0_ITLB_prefetch_too_early_among_useless 0
Core_0_ITLB_prefetch_pollution_evict 0
Core_0_ITLB_prefetch_pollution_demand 0
Core_0_ITLB_prefetch_pollution_among_prefetch_fill 0
Core_0_ITLB_prefetch_accuracy 0
Core_0_ITLB_prefetch_coverage 0

Core_0_DTLB_total_access 28753684
Core_0_DTLB_total_hit 22382452
Core_0_DTLB_total_miss 6371232
Core_0_DTLB_total_MPKI 63.7123
Core_0_DTLB_total_miss_rate 0.22158
Core_0_DTLB_demand_access 28753684
Core_0_DTLB_demand_hit 22382452
Core_0_DTLB_demand_miss 6371232
Core_0_DTLB_demand_MPKI 63.7123
Core_0_DTLB_demand_miss_rate 0.22158
Core_0_DTLB_load_access 28753684
Core_0_DTLB_load_hit 22382452
Core_0_DTLB_load_miss 6371232
Core_0_DTLB_load_MPKI 63.7123
Core_0_DTLB_load_miss_rate 0.22158
Core_0_DTLB_rfo_access 0
Core_0_DTLB_rfo_hit 0
Core_0_DTLB_rfo_miss 0
Core_0_DTLB_rfo_MPKI 0
Core_0_DTLB_rfo_miss_rate 0
Core_0_DTLB_prefetch_access 0
Core_0_DTLB_prefetch_hit 0
Core_0_DTLB_prefetch_miss 0
Core_0_DTLB_prefetch_MPKI 0
Core_0_DTLB_prefetch_miss_rate 0
Core_0_DTLB_writeback_access 0
Core_0_DTLB_writeback_hit 0
Core_0_DTLB_writeback_miss 0
Core_0_DTLB_writeback_MPKI 0
Core_0_DTLB_writeback_miss_rate 0
Core_0_DTLB_prefetch_requested 0
Core_0_DTLB_prefetch_issued 0
Core_0_DTLB_prefetch_useful 0
Core_0_DTLB_prefetch_useless 0
Core_0_DTLB_prefetch_late 0
Core_0_DTLB_prefetch_fill 0
Core_0_DTLB_prefetch_too_early 0
Core_0_DTLB_prefetch_too_early_among_fill 0
Core_0_DTLB_prefetch_too_early_among_useless 0
Core_0_DTLB_prefetch_pollution_evict 0
Core_0_DTLB_prefetch_pollution_demand 0
Core_0_DTLB_prefetch_pollution_among_prefetch_fill 0
Core_0_DTLB_prefetch_accuracy 0
Core_0_DTLB_prefetch_coverage 0

Core_0_STLB_total_access 3019404
Core_0_STLB_total_hit 636116
Core_0_STLB_total_miss 2383288
Core_0_STLB_total_MPKI 23.8329
Core_0_STLB_total_miss_rate 0.789324
Core_0_STLB_demand_access 3019404
Core_0_STLB_demand_hit 636116
Core_0_STLB_demand_miss 2383288
Core_0_STLB_demand_MPKI 23.8329
Core_0_STLB_demand_miss_rate 0.789324
Core_0_STLB_load_access 3019404
Core_0_STLB_load_hit 636116
Core_0_STLB_load_miss 2383288
Core_0_STLB_load_MPKI 23.8329
Core_0_STLB_load_miss_rate 0.789324
Core_0_STLB_rfo_access 0
Core_0_STLB_rfo_hit 0
Core_0_STLB_rfo_miss 0
Core_0_STLB_rfo_MPKI 0
Core_0_STLB_rfo_miss_rate 0
Core_0_STLB_prefetch_access 0
Core_0_STLB_prefetch_hit 0
Core_0_STLB_prefetch_miss 0
Core_0_STLB_prefetch_MPKI 0
Core_0_STLB_prefetch_miss_rate 0
Core_0_STLB_writeback_access 0
Core_0_STLB_writeback_hit 0
Core_0_STLB_writeback_miss 0
Core_0_STLB_writeback_MPKI 0
Core_0_STLB_writeback_miss_rate 0
Core_0_STLB_prefetch_requested 0
Core_0_STLB_prefetch_issued 0
Core_0_STLB_prefetch_useful 0
Core_0_STLB_prefetch_useless 0
Core_0_STLB_prefetch_late 0
Core_0_STLB_prefetch_fill 0
Core_0_STLB_prefetch_too_early 0
Core_0_STLB_prefetch_too_early_among_fill 0
Core_0_STLB_prefetch_too_early_among_useless 0
Core_0_STLB_prefetch_pollution_evict 0
Core_0_STLB_prefetch_pollution_demand 0
Core_0_STLB_prefetch_pollution_among_prefetch_fill 0
Core_0_STLB_prefetch_accuracy 0
Core_0_STLB_prefetch_coverage 0

Core_0_L1I_total_access 22100500
Core_0_L1I_total_hit 22099502
Core_0_L1I_total_miss 998
Core_0_L1I_total_MPKI 0.00998
Core_0_L1I_total_miss_rate 4.51573e-05
Core_0_L1I_demand_access 22100500
Core_0_L1I_demand_hit 22099502
Core_0_L1I_demand_miss 998
Core_0_L1I_demand_MPKI 0.00998
Core_0_L1I_demand_miss_rate 4.51573e-05
Core_0_L1I_load_access 22100500
Core_0_L1I_load_hit 22099502
Core_0_L1I_load_miss 998
Core_0_L1I_load_MPKI 0.00998
Core_0_L1I_load_miss_rate 4.51573e-05
Core_0_L1I_rfo_access 0
Core_0_L1I_rfo_hit 0
Core_0_L1I_rfo_miss 0
Core_0_L1I_rfo_MPKI 0
Core_0_L1I_rfo_miss_rate 0
Core_0_L1I_prefetch_access 0
Core_0_L1I_prefetch_hit 0
Core_0_L1I_prefetch_miss 0
Core_0_L1I_prefetch_MPKI 0
Core_0_L1I_prefetch_miss_rate 0
Core_0_L1I_writeback_access 0
Core_0_L1I_writeback_hit 0
Core_0_L1I_writeback_miss 0
Core_0_L1I_writeback_MPKI 0
Core_0_L1I_writeback_miss_rate 0
Core_0_L1I_prefetch_requested 0
Core_0_L1I_prefetch_issued 0
Core_0_L1I_prefetch_useful 0
Core_0_L1I_prefetch_useless 0
Core_0_L1I_prefetch_late 0
Core_0_L1I_prefetch_fill 0
Core_0_L1I_prefetch_too_early 0
Core_0_L1I_prefetch_too_early_among_fill 0
Core_0_L1I_prefetch_too_early_among_useless 0
Core_0_L1I_prefetch_pollution_evict 0
Core_0_L1I_prefetch_pollution_demand 0
Core_0_L1I_prefetch_pollution_among_prefetch_fill 0
Core_0_L1I_prefetch_accuracy 0
Core_0_L1I_prefetch_coverage 0

Core_0_L1D_total_access 32057737
Core_0_L1D_total_hit 13684807
Core_0_L1D_total_miss 18372930
Core_0_L1D_total_MPKI 183.729
Core_0_L1D_total_miss_rate 0.57312
Core_0_L1D_demand_access 20883613
Core_0_L1D_demand_hit 8758644
Core_0_L1D_demand_miss 12124969
Core_0_L1D_demand_MPKI 121.25
Core_0_L1D_demand_miss_rate 0.580597
Core_0_L1D_load_access 20883613
Core_0_L1D_load_hit 8758644
Core_0_L1D_load_miss 12124969
Core_0_L1D_load_MPKI 121.25
Core_0_L1D_load_miss_rate 0.580597
Core_0_L1D_rfo_access 0
Core_0_L1D_rfo_hit 0
Core_0_L1D_rfo_miss 0
Core_0_L1D_rfo_MPKI 0
Core_0_L1D_rfo_miss_rate 0
Core_0_L1D_prefetch_access 8333414
Core_0_L1D_prefetch_hit 2845225
Core_0_L1D_prefetch_miss 5488189
Core_0_L1D_prefetch_MPKI 54.8819
Core_0_L1D_prefetch_miss_rate 0.658576
Core_0_L1D_writeback_access 2840710
Core_0_L1D_writeback_hit 2080938
Core_0_L1D_writeback_miss 759772
Core_0_L1D_writeback_MPKI 7.59772
Core_0_L1D_writeback_miss_rate 0.267458
Core_0_L1D_prefetch_requested 625804347
Core_0_L1D_prefetch_issued 8333417
Core_0_L1D_prefetch_useful 146045
Core_0_L1D_prefetch_useless 33273
Core_0_L1D_prefetch_late 18687
Core_0_L1D_prefetch_fill 160615
Core_0_L1D_prefetch_too_early 2531
Core_0_L1D_prefetch_too_early_among_fill 0.0157582
Core_0_L1D_prefetch_too_early_among_useless 0.0760677
Core_0_L1D_prefetch_pollution_evict 10949
Core_0_L1D_prefetch_pollution_demand 10867
Core_0_L1D_prefetch_pollution_among_prefetch_fill 0.0681692
Core_0_L1D_prefetch_accuracy 0.0175252
Core_0_L1D_prefetch_coverage 0.0119016

Core_0_L2C_total_access 27130495
Core_0_L2C_total_hit 8302089
Core_0_L2C_total_miss 18828406
Core_0_L2C_total_MPKI 188.284
Core_0_L2C_total_miss_rate 0.693994
Core_0_L2C_demand_access 11298881
Core_0_L2C_demand_hit 1224523
Core_0_L2C_demand_miss 10074358
Core_0_L2C_demand_MPKI 100.744
Core_0_L2C_demand_miss_rate 0.891624
Core_0_L2C_load_access 10885903
Core_0_L2C_load_hit 1136063
Core_0_L2C_load_miss 9749840
Core_0_L2C_load_MPKI 97.4984
Core_0_L2C_load_miss_rate 0.895639
Core_0_L2C_rfo_access 412978
Core_0_L2C_rfo_hit 88460
Core_0_L2C_rfo_miss 324518
Core_0_L2C_rfo_MPKI 3.24518
Core_0_L2C_rfo_miss_rate 0.7858
Core_0_L2C_prefetch_access 13697616
Core_0_L2C_prefetch_hit 4943587
Core_0_L2C_prefetch_miss 8754029
Core_0_L2C_prefetch_MPKI 87.5403
Core_0_L2C_prefetch_miss_rate 0.639091
Core_0_L2C_writeback_access 2133998
Core_0_L2C_writeback_hit 2133979
Core_0_L2C_writeback_miss 19
Core_0_L2C_writeback_MPKI 0.00019
Core_0_L2C_writeback_miss_rate 8.90348e-06
Core_0_L2C_prefetch_requested 8289954
Core_0_L2C_prefetch_issued 8285035
Core_0_L2C_prefetch_useful 691282
Core_0_L2C_prefetch_useless 276880
Core_0_L2C_prefetch_late 654106
Core_0_L2C_prefetch_fill 883349
Core_0_L2C_prefetch_too_early 3797
Core_0_L2C_prefetch_too_early_among_fill 0.00429841
Core_0_L2C_prefetch_too_early_among_useless 0.0137135
Core_0_L2C_prefetch_pollution_evict 56943
Core_0_L2C_prefetch_pollution_demand 56867
Core_0_L2C_prefetch_pollution_among_prefetch_fill 0.0644626
Core_0_L2C_prefetch_accuracy 0.0834374
Core_0_L2C_prefetch_coverage 0.0642119

Core_0_LLC_total_access 18908190
Core_0_LLC_total_hit 2750631
Core_0_LLC_total_miss 16157559
Core_0_LLC_total_MPKI 161.576
Core_0_LLC_total_miss_rate 0.854527
Core_0_LLC_demand_access 9370046
Core_0_LLC_demand_hit 797685
Core_0_LLC_demand_miss 8572361
Core_0_LLC_demand_MPKI 85.7236
Core_0_LLC_demand_miss_rate 0.914869
Core_0_LLC_load_access 9045530
Core_0_LLC_load_hit 630806
Core_0_LLC_load_miss 8414724
Core_0_LLC_load_MPKI 84.1472
Core_0_LLC_load_miss_rate 0.930263
Core_0_LLC_rfo_access 324516
Core_0_LLC_rfo_hit 166879
Core_0_LLC_rfo_miss 157637
Core_0_LLC_rfo_MPKI 1.57637
Core_0_LLC_rfo_miss_rate 0.48576
Core_0_LLC_prefetch_access 7491430
Core_0_LLC_prefetch_hit 147405
Core_0_LLC_prefetch_miss 7344025
Core_0_LLC_prefetch_MPKI 73.4402
Core_0_LLC_prefetch_miss_rate 0.980324
Core_0_LLC_writeback_access 2046714
Core_0_LLC_writeback_hit 1805541
Core_0_LLC_writeback_miss 241173
Core_0_LLC_writeback_MPKI 2.41173
Core_0_LLC_writeback_miss_rate 0.117834
Core_0_LLC_prefetch_requested 0
Core_0_LLC_prefetch_issued 0
Core_0_LLC_prefetch_useful 0
Core_0_LLC_prefetch_useless 0
Core_0_LLC_prefetch_late 0
Core_0_LLC_prefetch_fill 1927298
Core_0_LLC_prefetch_too_early 0
Core_0_LLC_prefetch_too_early_among_fill 0
Core_0_LLC_prefetch_too_early_among_useless 0
Core_0_LLC_prefetch_pollution_evict 45372
Core_0_LLC_prefetch_pollution_demand 45372
Core_0_LLC_prefetch_pollution_among_prefetch_fill 0.0235418
Core_0_LLC_prefetch_accuracy 0
Core_0_LLC_prefetch_coverage 0

[DRAM Statistics]
Channel_0_RQ_row_buffer_hit 3398173
Channel_0_RQ_row_buffer_miss 7299572
Channel_0_WQ_row_buffer_hit 321063
Channel_0_WQ_row_buffer_miss 1729262
Channel_0_WQ_full 0
Channel_0_dbus_congested 36543341
DRAM_total_RQ_row_buffer_hit 3398173
DRAM_total_RQ_row_buffer_miss 7299572
DRAM_total_WQ_row_buffer_hit 321063
DRAM_total_WQ_row_buffer_miss 1729262
DRAM_total_WQ_full 0
DRAM_total_dbus_congested 36543341
DRAM_avg_congested_cycle 4.65943

====== DRAM_RQ_TRAFFIC ========
DRAM_RQ_READ_TRAFFIC_BREAKDOWN:
data_demand_read.count = 4867708
data_demand_read.share = 45.50%

inst_demand_read.count = 567
inst_demand_read.share = 0.01%

cache_inst_prefetch.count = 0
cache_inst_prefetch.share = 0.00%

cache_data_prefetch.count = 5631390
cache_data_prefetch.share = 52.64%

stlb_data_demand.count = 196546
stlb_data_demand.share = 1.84%

stlb_inst_demand.count = 136
stlb_inst_demand.share = 0.00%

stlb_l1i_pref.count = 0
stlb_l1i_pref.share = 0.00%

stlb_l1d_pref.count = 1503
stlb_l1d_pref.share = 0.01%

DRAM_RQ_READ_TRAFFIC_SUMMARY:
cache_demand.count = 4868275
cache_demand.share = 45.51%

cache_prefetch.count = 5631390
cache_prefetch.share = 52.64%

stlb_demand.count = 196682
stlb_demand.share = 1.84%

stlb_prefetch.count = 1503
stlb_prefetch.share = 0.01%

DRAM_RQ_READ_TRAFFIC_DEBUG:
total_classified_read.count = 10697850
unclassified_read.count = 0
total_read_with_other.count = 10697850

classified_plus_unclassified_check.count = 10697850
dram_rq_read_total_observed.count = 10697850
dram_rq_read_total_observed.per_1K_instructions = 106.978

STLB_MISS_PTW_DRAM_TOUCH_BREAKDOWN:
stlb_miss_total.count = 2376607

stlb_miss_touch_dram.count = 197536
stlb_miss_touch_dram.share = 8.31%

stlb_miss_no_dram_touch.count = 2179071
stlb_miss_no_dram_touch.share = 91.69%

STLB_MISS_PTW_DRAM_TOUCH_DEBUG:
stlb_miss_touch_plus_no_touch.count = 2376607
stlb_miss_total_check.count = 2376607

======STLB miss causes ========
Core_0_STLB_miss_cause_breakdown
Core_0_STLB_cause_Demand_Data_miss 2366600
Core_0_STLB_cause_Demand_Data_miss_rate 0.783797
Core_0_STLB_cause_Demand_Instruction_miss 172
Core_0_STLB_cause_Demand_Instruction_miss_rate 5.69649e-05
Core_0_STLB_cause_L1D_Prefetch_miss 16516
Core_0_STLB_cause_L1D_Prefetch_miss_rate 0.00546995
Core_0_STLB_cause_L1D_Prefetch_Same_Page_miss 3
Core_0_STLB_cause_L1D_Prefetch_Same_Page_miss_rate 9.93574e-07
Core_0_STLB_cause_L1D_Prefetch_Cross_Page_miss 16513
Core_0_STLB_cause_L1D_Prefetch_Cross_Page_miss_rate 0.00546896
Core_0_STLB_cause_L1I_Prefetch_miss 0
Core_0_STLB_cause_L1I_Prefetch_miss_rate 0
Core_0_STLB_cause_Other_miss 0
Core_0_STLB_cause_Other_miss_rate 0
Core_0_STLB_Demand_miss 2366772
Core_0_STLB_Demand_miss_rate 0.783854
Core_0_STLB_L1D_Prefetch_miss 16516
Core_0_STLB_L1D_Prefetch_miss_rate 0.00546995
Core_0_STLB_Other_miss 0
Core_0_STLB_Other_miss_rate 0

========== vBerti-TLB Cross-page Flow Stats ==========

Core_0_vBerti_Requested 625804347
Core_0_vBerti_Cross_page_prefetch_in_Requested 143834293
Core_0_vBerti_Same_page_prefetch_in_Requested 481970054
Core_0_vBerti_Cross_page_prefetch_of_Requested 0.229839
Core_0_vBerti_Issued 8333417
Core_0_vBerti_PQ_Drop_Rate 0.986684
Core_0_vBerti_InPQ_Cross_page_prefetch_of_Requested 0.00218279
Core_0_vBerti_Cross_page_PQ_Drop_rate 0.990503
Core_0_vBerti_Cross_page_prefetch_of_Issued 0.163918

========= DTLB_vBerti Prefetch Stats =========
Core_0_DTLB_demand_access 23079152
Core_0_DTLB_demand_hit 16759010
Core_0_DTLB_demand_miss 6320142
Core_0_DTLB_demand_mshr_merge 3329079
Core_0_DTLB_demand_fill 2991845
Core_0_DTLB_demand_miss_rate 0.273846
Core_0_DTLB_demand_mpki 63.2014
Core_0_DTLB_vberti_prefetch_access 5674532
Core_0_DTLB_vberti_prefetch_hit 5623442
Core_0_DTLB_vberti_prefetch_miss 51090
Core_0_DTLB_vberti_prefetch_mshr_merge 22933
Core_0_DTLB_vberti_prefetch_fill 27376
Core_0_DTLB_vberti_prefetch_miss_rate 0.00900339
Core_0_DTLB_vberti_prefetch_mpki 0.5109

=== DTLB_vBerti Same/Cross-page Prefetch Stats ===
Core_0_DTLB_vberti_same_page_prefetch 4636664
Core_0_DTLB_vberti_same_page_prefetch_hit 4636659
Core_0_DTLB_vberti_same_page_prefetch_miss 5
Core_0_DTLB_vberti_same_page_prefetch_mshr_merge 0
Core_0_DTLB_vberti_same_page_prefetch_fill 2
Core_0_DTLB_vberti_same_page_prefetch_miss_rate 1.07836e-06
Core_0_DTLB_vberti_same_page_prefetch_mpki 5e-05
Core_0_DTLB_vberti_cross_page_prefetch 1037868
Core_0_DTLB_vberti_cross_page_prefetch_hit 986783
Core_0_DTLB_vberti_cross_page_prefetch_miss 51085
Core_0_DTLB_vberti_cross_page_prefetch_mshr_merge 22933
Core_0_DTLB_vberti_cross_page_prefetch_fill 27374
Core_0_DTLB_vberti_cross_page_prefetch_miss_rate 0.0492211
Core_0_DTLB_vberti_cross_page_prefetch_mpki 0.51085
Core_0_DTLB_same_page_prefetch_miss_rate 1.07836e-06
Core_0_DTLB_same_page_prefetch_mpki 5e-05
Core_0_DTLB_cross_page_prefetch_miss_rate 0.0492211
Core_0_DTLB_cross_page_prefetch_mpki 0.51085
Core_0_DTLB_cross_page_prefetch_issued 1037868
Core_0_DTLB_cross_page_prefetch_lookups 1037868
Core_0_DTLB_cross_page_prefetch_useful 25426
Core_0_DTLB_cross_page_prefetch_useless 2726
Core_0_DTLB_cross_page_prefetch_late 778
Core_0_DTLB_cross_page_prefetch_too_early 362
Core_0_DTLB_cross_page_prefetch_too_early_among_fill 0.0132242
Core_0_DTLB_cross_page_prefetch_too_early_among_useless 0.132795
Core_0_DTLB_cross_page_prefetch_pollution_evict 6909
Core_0_DTLB_cross_page_prefetch_pollution_demand 6898
Core_0_DTLB_cross_page_prefetch_pollution_among_prefetch_fill 0.252393
Core_0_DTLB_cross_page_prefetch_accuracy 0.0244983
Core_0_DTLB_cross_page_prefetch_coverage 0.00400689

========= STLB_vBerti Prefetch Stats =========
Core_0_STLB_demand_access 2991247
Core_0_STLB_demand_hit 624475
Core_0_STLB_demand_miss 2366772
Core_0_STLB_demand_mshr_merge 0
Core_0_STLB_demand_fill 2366773
Core_0_STLB_demand_miss_rate 0.791233
Core_0_STLB_demand_mpki 23.6677
Core_0_STLB_vberti_prefetch_access 28157
Core_0_STLB_vberti_prefetch_hit 11641
Core_0_STLB_vberti_prefetch_miss 16516
Core_0_STLB_vberti_prefetch_mshr_merge 0
Core_0_STLB_vberti_prefetch_fill 3
Core_0_STLB_vberti_prefetch_miss_rate 0.586568
Core_0_STLB_vberti_prefetch_mpki 0.16516

=== STLB_vBerti Same/Cross-page Prefetch Stats ===
Core_0_STLB_vberti_same_page_prefetch 5
Core_0_STLB_vberti_same_page_prefetch_hit 2
Core_0_STLB_vberti_same_page_prefetch_miss 3
Core_0_STLB_vberti_same_page_prefetch_mshr_merge 0
Core_0_STLB_vberti_same_page_prefetch_fill 3
Core_0_STLB_vberti_same_page_prefetch_miss_rate 0.6
Core_0_STLB_vberti_same_page_prefetch_mpki 3e-05
Core_0_STLB_vberti_cross_page_prefetch 28152
Core_0_STLB_vberti_cross_page_prefetch_hit 11639
Core_0_STLB_vberti_cross_page_prefetch_miss 16513
Core_0_STLB_vberti_cross_page_prefetch_mshr_merge 0
Core_0_STLB_vberti_cross_page_prefetch_fill 0
Core_0_STLB_vberti_cross_page_prefetch_miss_rate 0.586566
Core_0_STLB_vberti_cross_page_prefetch_mpki 0.16513
Core_0_STLB_same_page_prefetch_miss_rate 0.6
Core_0_STLB_same_page_prefetch_mpki 3e-05
Core_0_STLB_cross_page_prefetch_miss_rate 0.586566
Core_0_STLB_cross_page_prefetch_mpki 0.16513
Core_0_STLB_cross_page_prefetch_issued 28152
Core_0_STLB_cross_page_prefetch_lookups 28152
Core_0_STLB_cross_page_prefetch_useful 6681
Core_0_STLB_cross_page_prefetch_useless 6232
Core_0_STLB_cross_page_prefetch_late 6681
Core_0_STLB_cross_page_prefetch_too_early 0
Core_0_STLB_cross_page_prefetch_too_early_among_fill 0
Core_0_STLB_cross_page_prefetch_too_early_among_useless 0
Core_0_STLB_cross_page_prefetch_pollution_evict 0
Core_0_STLB_cross_page_prefetch_pollution_demand 0
Core_0_STLB_cross_page_prefetch_pollution_among_prefetch_fill 0
Core_0_STLB_cross_page_prefetch_accuracy 0.237319
Core_0_STLB_cross_page_prefetch_coverage 0.00281489

========= STLB Cross-page Prefetch Buffer Stats =========
Core_0_STLB_raw_demand_miss 2366600
Core_0_CP_PB_insert 16513
Core_0_CP_PB_demand_hit 6681
Core_0_STLB_PB_demand_miss 2359919
Core_0_CP_PB_coverage 0.00282304
Core_0_STLB_raw_demand_mpki 23.666
Core_0_STLB_PB_demand_mpki 23.5992
Core_0_CP_PB_demand_hit_mpki 0.06681

Core_0_TLB_demand_miss_rate 0.10255
Core_0_TLB_demand_mpki 23.6677
Core_0_TLB_same_page_prefetch_miss_rate 6.47017e-07
Core_0_TLB_same_page_prefetch_mpki 3e-05
Core_0_TLB_cross_page_prefetch_miss_rate 0.0159105
Core_0_TLB_cross_page_prefetch_mpki 0.16513
Core_0_TLB_cross_page_prefetch_issued 1037868
Core_0_TLB_cross_page_prefetch_lookups 1037868
Core_0_TLB_cross_page_prefetch_useful 2410
Core_0_TLB_cross_page_prefetch_useless 295
Core_0_TLB_cross_page_prefetch_late 230
Core_0_TLB_cross_page_prefetch_too_early 51
Core_0_TLB_cross_page_prefetch_too_early_among_fill 0.00186308
Core_0_TLB_cross_page_prefetch_too_early_among_useless 0.172881
Core_0_TLB_cross_page_prefetch_accuracy 0.00232207
Core_0_TLB_cross_page_prefetch_coverage 0.00101723
BERTI TO_L1: 7957872 TO_L2: 633360095 TO_L2_BC_MSHR: 179402181
BERTI AVG_LAT: 173.721 NUM_TRACK_LATENCY: 15857370 NUM_CANT_TRACK_LATENCY: 458
BERTI CROSS_PAGE 148552053 NO_CROSS_PAGE: 492765914
BERTI FOUND_BERTI: 200456457 NO_FOUND_BERTI: 15395253
BERTI AVERAGE_ISSUED: 2.78546
