[VMEM] WARNING: physical memory size is smaller than virtual memory size.

*** ChampSim Multicore Out-of-Order Simulator ***
Warmup Instructions: 50000000
Simulation Instructions: 100000000
Number of CPUs: 1
Page size: 4096
Core 0: /data0/tzh/champsim_traces/QMM/compute_int_14_new.xz
VBerti Prefetcher
BERTI HASH ENTANGLING
BERTI IP MASK ffff
Off-chip DRAM Size: 16 GiB Channels: 1 Width: 64-bit Data Rate: 3205 MT/s
*** Reached end of trace: (0, "/data0/tzh/champsim_traces/QMM/compute_int_14_new.xz")
[BTB] WARNING: target of return is a lower address than the corresponding call. This is usually a problem with your trace.
[BTB] WARNING: target of return is a lower address than the corresponding call. This is usually a problem with your trace.
[BTB] WARNING: target of return is a lower address than the corresponding call. This is usually a problem with your trace.
Warmup halting CPU 0 at instruction 50000005 cycle 11237654 for remainder of phase
Warmup finished CPU 0 instructions: 50000005 cycles: 11237654 cumulative IPC: 4.449 (Simulation time: 00 hr 01 min 57 sec)
Warmup complete CPU 0 instructions: 50000005 cycles: 11237654 cumulative IPC: 4.449 (Simulation time: 00 hr 01 min 57 sec)
*** Reached end of trace: (0, "/data0/tzh/champsim_traces/QMM/compute_int_14_new.xz")
[BTB] WARNING: target of return is a lower address than the corresponding call. This is usually a problem with your trace.
[BTB] WARNING: target of return is a lower address than the corresponding call. This is usually a problem with your trace.
[BTB] WARNING: target of return is a lower address than the corresponding call. This is usually a problem with your trace.
*** Reached end of trace: (0, "/data0/tzh/champsim_traces/QMM/compute_int_14_new.xz")
[BTB] WARNING: target of return is a lower address than the corresponding call. This is usually a problem with your trace.
[BTB] WARNING: target of return is a lower address than the corresponding call. This is usually a problem with your trace.
[BTB] WARNING: target of return is a lower address than the corresponding call. This is usually a problem with your trace.
*** Reached end of trace: (0, "/data0/tzh/champsim_traces/QMM/compute_int_14_new.xz")
[BTB] WARNING: target of return is a lower address than the corresponding call. This is usually a problem with your trace.
Simulation finished CPU 0 instructions: 100000001 cycles: 56052006 cumulative IPC: 1.784 (Simulation time: 00 hr 09 min 54 sec)
Simulation complete CPU 0 instructions: 100000001 cycles: 56052006 cumulative IPC: 1.784 (Simulation time: 00 hr 09 min 54 sec)

ChampSim completed all CPUs

=== Simulation ===
CPU 0 runs /data0/tzh/champsim_traces/QMM/compute_int_14_new.xz

Region of Interest Statistics

CPU 0 cumulative IPC: 1.784 instructions: 100000001 cycles: 56052006
CPU 0 Branch Prediction Accuracy: 99.8% MPKI: 0.5748 Average ROB Occupancy at Mispredict: 172.3
Branch type MPKI
BRANCH_DIRECT_JUMP: 0
BRANCH_INDIRECT: 0.00279
BRANCH_CONDITIONAL: 0.5606
BRANCH_DIRECT_CALL: 0
BRANCH_INDIRECT_CALL: 0.01126
BRANCH_RETURN: 9e-05

cpu0->cpu0_STLB TOTAL        ACCESS:     581029 HIT:      23991 MISS:     557038 MSHR_MERGE:          0
cpu0->cpu0_STLB LOAD         ACCESS:     581029 HIT:      23991 MISS:     557038 MSHR_MERGE:          0
cpu0->cpu0_STLB RFO          ACCESS:          0 HIT:          0 MISS:          0 MSHR_MERGE:          0
cpu0->cpu0_STLB PREFETCH     ACCESS:          0 HIT:          0 MISS:          0 MSHR_MERGE:          0
cpu0->cpu0_STLB WRITE        ACCESS:          0 HIT:          0 MISS:          0 MSHR_MERGE:          0
cpu0->cpu0_STLB TRANSLATION  ACCESS:          0 HIT:          0 MISS:          0 MSHR_MERGE:          0
cpu0->cpu0_STLB PREFETCH REQUESTED:          0 ISSUED:          0 USEFUL:          0 USELESS:          0 LATE:          0 TOO_EARLY:          0
cpu0->cpu0_STLB AVERAGE MISS LATENCY: 47.82 cycles
cpu0->cpu0_L2C TOTAL        ACCESS:    3657486 HIT:    1023081 MISS:    2634405 MSHR_MERGE:     148341
cpu0->cpu0_L2C LOAD         ACCESS:    1824443 HIT:     103780 MISS:    1720663 MSHR_MERGE:      42725
cpu0->cpu0_L2C RFO          ACCESS:      22114 HIT:       3018 MISS:      19096 MSHR_MERGE:        312
cpu0->cpu0_L2C PREFETCH     ACCESS:    1633331 HIT:     868710 MISS:     764621 MSHR_MERGE:     105304
cpu0->cpu0_L2C WRITE        ACCESS:      35130 HIT:      35117 MISS:         13 MSHR_MERGE:          0
cpu0->cpu0_L2C TRANSLATION  ACCESS:     142468 HIT:      12456 MISS:     130012 MSHR_MERGE:          0
cpu0->cpu0_L2C PREFETCH REQUESTED:     525760 ISSUED:     519658 USEFUL:     181023 USELESS:       8714 LATE:       8614 TOO_EARLY:        367
cpu0->cpu0_L2C AVERAGE MISS LATENCY: 146.3 cycles
cpu0->cpu0_L1I TOTAL        ACCESS:    7433515 HIT:    7417393 MISS:      16122 MSHR_MERGE:       6086
cpu0->cpu0_L1I LOAD         ACCESS:    7433515 HIT:    7417393 MISS:      16122 MSHR_MERGE:       6086
cpu0->cpu0_L1I RFO          ACCESS:          0 HIT:          0 MISS:          0 MSHR_MERGE:          0
cpu0->cpu0_L1I PREFETCH     ACCESS:          0 HIT:          0 MISS:          0 MSHR_MERGE:          0
cpu0->cpu0_L1I WRITE        ACCESS:          0 HIT:          0 MISS:          0 MSHR_MERGE:          0
cpu0->cpu0_L1I TRANSLATION  ACCESS:          0 HIT:          0 MISS:          0 MSHR_MERGE:          0
cpu0->cpu0_L1I PREFETCH REQUESTED:          0 ISSUED:          0 USEFUL:          0 USELESS:          0 LATE:          0 TOO_EARLY:          0
cpu0->cpu0_L1I AVERAGE MISS LATENCY: 112.2 cycles
cpu0->cpu0_L1D TOTAL        ACCESS:   23433935 HIT:   20209742 MISS:    3224193 MSHR_MERGE:     115604
cpu0->cpu0_L1D LOAD         ACCESS:    9667155 HIT:    7834263 MISS:    1832892 MSHR_MERGE:      18486
cpu0->cpu0_L1D RFO          ACCESS:          0 HIT:          0 MISS:          0 MSHR_MERGE:          0
cpu0->cpu0_L1D PREFETCH     ACCESS:    9952689 HIT:    8813401 MISS:    1139288 MSHR_MERGE:       9687
cpu0->cpu0_L1D WRITE        ACCESS:    2812289 HIT:    2771103 MISS:      41186 MSHR_MERGE:      19072
cpu0->cpu0_L1D TRANSLATION  ACCESS:    1001802 HIT:     790975 MISS:     210827 MSHR_MERGE:      68359
cpu0->cpu0_L1D PREFETCH REQUESTED:   33681339 ISSUED:    9952681 USEFUL:     233136 USELESS:       8964 LATE:       2795 TOO_EARLY:        218
cpu0->cpu0_L1D AVERAGE MISS LATENCY: 146.9 cycles
cpu0->cpu0_ITLB TOTAL        ACCESS:    5392805 HIT:    5388943 MISS:       3862 MSHR_MERGE:       2503
cpu0->cpu0_ITLB LOAD         ACCESS:    5392805 HIT:    5388943 MISS:       3862 MSHR_MERGE:       2503
cpu0->cpu0_ITLB RFO          ACCESS:          0 HIT:          0 MISS:          0 MSHR_MERGE:          0
cpu0->cpu0_ITLB PREFETCH     ACCESS:          0 HIT:          0 MISS:          0 MSHR_MERGE:          0
cpu0->cpu0_ITLB WRITE        ACCESS:          0 HIT:          0 MISS:          0 MSHR_MERGE:          0
cpu0->cpu0_ITLB TRANSLATION  ACCESS:          0 HIT:          0 MISS:          0 MSHR_MERGE:          0
cpu0->cpu0_ITLB PREFETCH REQUESTED:          0 ISSUED:          0 USEFUL:          0 USELESS:          0 LATE:          0 TOO_EARLY:          0
cpu0->cpu0_ITLB AVERAGE MISS LATENCY: 105.5 cycles
cpu0->cpu0_DTLB TOTAL        ACCESS:   17527477 HIT:   16718434 MISS:     809043 MSHR_MERGE:     229374
cpu0->cpu0_DTLB LOAD         ACCESS:   17527477 HIT:   16718434 MISS:     809043 MSHR_MERGE:     229374
cpu0->cpu0_DTLB RFO          ACCESS:          0 HIT:          0 MISS:          0 MSHR_MERGE:          0
cpu0->cpu0_DTLB PREFETCH     ACCESS:          0 HIT:          0 MISS:          0 MSHR_MERGE:          0
cpu0->cpu0_DTLB WRITE        ACCESS:          0 HIT:          0 MISS:          0 MSHR_MERGE:          0
cpu0->cpu0_DTLB TRANSLATION  ACCESS:          0 HIT:          0 MISS:          0 MSHR_MERGE:          0
cpu0->cpu0_DTLB PREFETCH REQUESTED:          0 ISSUED:          0 USEFUL:          0 USELESS:          0 LATE:          0 TOO_EARLY:          0
cpu0->cpu0_DTLB AVERAGE MISS LATENCY: 49.38 cycles
cpu0->LLC TOTAL        ACCESS:    2519247 HIT:    1251002 MISS:    1268245 MSHR_MERGE:       4474
cpu0->LLC LOAD         ACCESS:    1677938 HIT:     767689 MISS:     910249 MSHR_MERGE:       1139
cpu0->LLC RFO          ACCESS:      18784 HIT:       6790 MISS:      11994 MSHR_MERGE:         19
cpu0->LLC PREFETCH     ACCESS:     659315 HIT:     357327 MISS:     301988 MSHR_MERGE:       3316
cpu0->LLC WRITE        ACCESS:      33198 HIT:      19585 MISS:      13613 MSHR_MERGE:          0
cpu0->LLC TRANSLATION  ACCESS:     130012 HIT:      99611 MISS:      30401 MSHR_MERGE:          0
cpu0->LLC PREFETCH REQUESTED:          0 ISSUED:          0 USEFUL:          0 USELESS:          0 LATE:          0 TOO_EARLY:          0
cpu0->LLC AVERAGE MISS LATENCY: 247.4 cycles

DRAM Statistics

Channel 0 RQ ROW_BUFFER_HIT:       5038
  ROW_BUFFER_MISS:    1244948
  AVG DBUS CONGESTED CYCLE: 3.24
Channel 0 WQ ROW_BUFFER_HIT:       2296
  ROW_BUFFER_MISS:      18955
  FULL:          0
Channel 0 REFRESHES ISSUED:       4671

[ROI Statistics]
[System Configuration]
num_cpus 1
cpu_freq 4000
fetch_width 6
decode_width 6
dispatch_width 6
execute_width 6
lq_width 2
sq_width 2
retire_width 6
scheduler_size 128
branch_mispredict_penalty 15
rob_size 352
lq_size 128
sq_size 72
ifetch_buffer_size 64
decode_buffer_size 32
dispatch_buffer_size 32
register_file_size 288
decode_latency 1
dispatch_latency 1
schedule_latency 1
execute_latency 1
page_size 4096
block_size 64
core_0_itlb_set 16
core_0_itlb_way 4
core_0_itlb_rq_size 16
core_0_itlb_wq_size 16
core_0_itlb_pq_size 0
core_0_itlb_mshr_size 8
core_0_itlb_hit_latency 1
core_0_itlb_fill_latency 1
core_0_itlb_max_tag_check 2
core_0_itlb_max_fill 2
core_0_dtlb_set 16
core_0_dtlb_way 4
core_0_dtlb_rq_size 16
core_0_dtlb_wq_size 16
core_0_dtlb_pq_size 0
core_0_dtlb_mshr_size 8
core_0_dtlb_hit_latency 1
core_0_dtlb_fill_latency 1
core_0_dtlb_max_tag_check 2
core_0_dtlb_max_fill 2
core_0_stlb_set 128
core_0_stlb_way 12
core_0_stlb_rq_size 32
core_0_stlb_wq_size 32
core_0_stlb_pq_size 0
core_0_stlb_mshr_size 16
core_0_stlb_hit_latency 4
core_0_stlb_fill_latency 4
core_0_stlb_max_tag_check 1
core_0_stlb_max_fill 1
core_0_l1i_set 64
core_0_l1i_way 8
core_0_l1i_rq_size 64
core_0_l1i_wq_size 64
core_0_l1i_pq_size 32
core_0_l1i_mshr_size 8
core_0_l1i_hit_latency 2
core_0_l1i_fill_latency 2
core_0_l1i_max_tag_check 2
core_0_l1i_max_fill 2
core_0_l1d_set 64
core_0_l1d_way 12
core_0_l1d_rq_size 64
core_0_l1d_wq_size 64
core_0_l1d_pq_size 8
core_0_l1d_mshr_size 16
core_0_l1d_hit_latency 2
core_0_l1d_fill_latency 3
core_0_l1d_max_tag_check 2
core_0_l1d_max_fill 2
core_0_l2c_set 1024
core_0_l2c_way 8
core_0_l2c_rq_size 32
core_0_l2c_wq_size 32
core_0_l2c_pq_size 16
core_0_l2c_mshr_size 32
core_0_l2c_hit_latency 5
core_0_l2c_fill_latency 5
core_0_l2c_max_tag_check 1
core_0_l2c_max_fill 1
llc_set 2048
llc_way 16
llc_rq_size 32
llc_wq_size 32
llc_pq_size 32
llc_mshr_size 64
llc_hit_latency 10
llc_fill_latency 10
llc_max_tag_check 1
llc_max_fill 1
dram_channels 1
dram_ranks 1
dram_bankgroups 8
dram_banks 4
dram_rows 65536
dram_columns 1024
dram_channel_width 8
dram_rq_size 64
dram_wq_size 64
dram_size 17179869184
core_0_itlb_prefetcher no
core_0_dtlb_prefetcher no
core_0_stlb_prefetcher no
core_0_l1i_prefetcher next_line
core_0_l1d_prefetcher vberti
core_0_l2c_prefetcher ip_stride
llc_prefetcher no
llc_replacement drrip

Core_0_instructions 100000001
Core_0_cycles 56052006
Core_0_IPC 1.78406
Core_0_branch_prediction_accuracy 99.7982
Core_0_branch_MPKI 0.57478
Core_0_average_ROB_occupancy_at_mispredict 172.292

Core_0_ITLB_total_access 5392805
Core_0_ITLB_total_hit 5388943
Core_0_ITLB_total_miss 3862
Core_0_ITLB_total_MPKI 0.03862
Core_0_ITLB_total_miss_rate 0.000716139
Core_0_ITLB_demand_access 5392805
Core_0_ITLB_demand_hit 5388943
Core_0_ITLB_demand_miss 3862
Core_0_ITLB_demand_MPKI 0.03862
Core_0_ITLB_demand_miss_rate 0.000716139
Core_0_ITLB_load_access 5392805
Core_0_ITLB_load_hit 5388943
Core_0_ITLB_load_miss 3862
Core_0_ITLB_load_MPKI 0.03862
Core_0_ITLB_load_miss_rate 0.000716139
Core_0_ITLB_rfo_access 0
Core_0_ITLB_rfo_hit 0
Core_0_ITLB_rfo_miss 0
Core_0_ITLB_rfo_MPKI 0
Core_0_ITLB_rfo_miss_rate 0
Core_0_ITLB_prefetch_access 0
Core_0_ITLB_prefetch_hit 0
Core_0_ITLB_prefetch_miss 0
Core_0_ITLB_prefetch_MPKI 0
Core_0_ITLB_prefetch_miss_rate 0
Core_0_ITLB_writeback_access 0
Core_0_ITLB_writeback_hit 0
Core_0_ITLB_writeback_miss 0
Core_0_ITLB_writeback_MPKI 0
Core_0_ITLB_writeback_miss_rate 0
Core_0_ITLB_prefetch_requested 0
Core_0_ITLB_prefetch_issued 0
Core_0_ITLB_prefetch_useful 0
Core_0_ITLB_prefetch_useless 0
Core_0_ITLB_prefetch_late 0
Core_0_ITLB_prefetch_fill 0
Core_0_ITLB_prefetch_too_early 0
Core_0_ITLB_prefetch_too_early_among_fill 0
Core_0_ITLB_prefetch_too_early_among_useless 0
Core_0_ITLB_prefetch_pollution_evict 0
Core_0_ITLB_prefetch_pollution_demand 0
Core_0_ITLB_prefetch_pollution_among_prefetch_fill 0
Core_0_ITLB_prefetch_accuracy 0
Core_0_ITLB_prefetch_coverage 0

Core_0_DTLB_total_access 17527477
Core_0_DTLB_total_hit 16718434
Core_0_DTLB_total_miss 809043
Core_0_DTLB_total_MPKI 8.09043
Core_0_DTLB_total_miss_rate 0.0461586
Core_0_DTLB_demand_access 17527477
Core_0_DTLB_demand_hit 16718434
Core_0_DTLB_demand_miss 809043
Core_0_DTLB_demand_MPKI 8.09043
Core_0_DTLB_demand_miss_rate 0.0461586
Core_0_DTLB_load_access 17527477
Core_0_DTLB_load_hit 16718434
Core_0_DTLB_load_miss 809043
Core_0_DTLB_load_MPKI 8.09043
Core_0_DTLB_load_miss_rate 0.0461586
Core_0_DTLB_rfo_access 0
Core_0_DTLB_rfo_hit 0
Core_0_DTLB_rfo_miss 0
Core_0_DTLB_rfo_MPKI 0
Core_0_DTLB_rfo_miss_rate 0
Core_0_DTLB_prefetch_access 0
Core_0_DTLB_prefetch_hit 0
Core_0_DTLB_prefetch_miss 0
Core_0_DTLB_prefetch_MPKI 0
Core_0_DTLB_prefetch_miss_rate 0
Core_0_DTLB_writeback_access 0
Core_0_DTLB_writeback_hit 0
Core_0_DTLB_writeback_miss 0
Core_0_DTLB_writeback_MPKI 0
Core_0_DTLB_writeback_miss_rate 0
Core_0_DTLB_prefetch_requested 0
Core_0_DTLB_prefetch_issued 0
Core_0_DTLB_prefetch_useful 0
Core_0_DTLB_prefetch_useless 0
Core_0_DTLB_prefetch_late 0
Core_0_DTLB_prefetch_fill 0
Core_0_DTLB_prefetch_too_early 0
Core_0_DTLB_prefetch_too_early_among_fill 0
Core_0_DTLB_prefetch_too_early_among_useless 0
Core_0_DTLB_prefetch_pollution_evict 0
Core_0_DTLB_prefetch_pollution_demand 0
Core_0_DTLB_prefetch_pollution_among_prefetch_fill 0
Core_0_DTLB_prefetch_accuracy 0
Core_0_DTLB_prefetch_coverage 0

Core_0_STLB_total_access 581029
Core_0_STLB_total_hit 23991
Core_0_STLB_total_miss 557038
Core_0_STLB_total_MPKI 5.57038
Core_0_STLB_total_miss_rate 0.958709
Core_0_STLB_demand_access 581029
Core_0_STLB_demand_hit 23991
Core_0_STLB_demand_miss 557038
Core_0_STLB_demand_MPKI 5.57038
Core_0_STLB_demand_miss_rate 0.958709
Core_0_STLB_load_access 581029
Core_0_STLB_load_hit 23991
Core_0_STLB_load_miss 557038
Core_0_STLB_load_MPKI 5.57038
Core_0_STLB_load_miss_rate 0.958709
Core_0_STLB_rfo_access 0
Core_0_STLB_rfo_hit 0
Core_0_STLB_rfo_miss 0
Core_0_STLB_rfo_MPKI 0
Core_0_STLB_rfo_miss_rate 0
Core_0_STLB_prefetch_access 0
Core_0_STLB_prefetch_hit 0
Core_0_STLB_prefetch_miss 0
Core_0_STLB_prefetch_MPKI 0
Core_0_STLB_prefetch_miss_rate 0
Core_0_STLB_writeback_access 0
Core_0_STLB_writeback_hit 0
Core_0_STLB_writeback_miss 0
Core_0_STLB_writeback_MPKI 0
Core_0_STLB_writeback_miss_rate 0
Core_0_STLB_prefetch_requested 0
Core_0_STLB_prefetch_issued 0
Core_0_STLB_prefetch_useful 0
Core_0_STLB_prefetch_useless 0
Core_0_STLB_prefetch_late 0
Core_0_STLB_prefetch_fill 0
Core_0_STLB_prefetch_too_early 0
Core_0_STLB_prefetch_too_early_among_fill 0
Core_0_STLB_prefetch_too_early_among_useless 0
Core_0_STLB_prefetch_pollution_evict 0
Core_0_STLB_prefetch_pollution_demand 0
Core_0_STLB_prefetch_pollution_among_prefetch_fill 0
Core_0_STLB_prefetch_accuracy 0
Core_0_STLB_prefetch_coverage 0

Core_0_L1I_total_access 7433515
Core_0_L1I_total_hit 7417393
Core_0_L1I_total_miss 16122
Core_0_L1I_total_MPKI 0.16122
Core_0_L1I_total_miss_rate 0.00216883
Core_0_L1I_demand_access 7433515
Core_0_L1I_demand_hit 7417393
Core_0_L1I_demand_miss 16122
Core_0_L1I_demand_MPKI 0.16122
Core_0_L1I_demand_miss_rate 0.00216883
Core_0_L1I_load_access 7433515
Core_0_L1I_load_hit 7417393
Core_0_L1I_load_miss 16122
Core_0_L1I_load_MPKI 0.16122
Core_0_L1I_load_miss_rate 0.00216883
Core_0_L1I_rfo_access 0
Core_0_L1I_rfo_hit 0
Core_0_L1I_rfo_miss 0
Core_0_L1I_rfo_MPKI 0
Core_0_L1I_rfo_miss_rate 0
Core_0_L1I_prefetch_access 0
Core_0_L1I_prefetch_hit 0
Core_0_L1I_prefetch_miss 0
Core_0_L1I_prefetch_MPKI 0
Core_0_L1I_prefetch_miss_rate 0
Core_0_L1I_writeback_access 0
Core_0_L1I_writeback_hit 0
Core_0_L1I_writeback_miss 0
Core_0_L1I_writeback_MPKI 0
Core_0_L1I_writeback_miss_rate 0
Core_0_L1I_prefetch_requested 0
Core_0_L1I_prefetch_issued 0
Core_0_L1I_prefetch_useful 0
Core_0_L1I_prefetch_useless 0
Core_0_L1I_prefetch_late 0
Core_0_L1I_prefetch_fill 0
Core_0_L1I_prefetch_too_early 0
Core_0_L1I_prefetch_too_early_among_fill 0
Core_0_L1I_prefetch_too_early_among_useless 0
Core_0_L1I_prefetch_pollution_evict 0
Core_0_L1I_prefetch_pollution_demand 0
Core_0_L1I_prefetch_pollution_among_prefetch_fill 0
Core_0_L1I_prefetch_accuracy 0
Core_0_L1I_prefetch_coverage 0

Core_0_L1D_total_access 22432133
Core_0_L1D_total_hit 19418767
Core_0_L1D_total_miss 3013366
Core_0_L1D_total_MPKI 30.1337
Core_0_L1D_total_miss_rate 0.134333
Core_0_L1D_demand_access 9667155
Core_0_L1D_demand_hit 7834263
Core_0_L1D_demand_miss 1832892
Core_0_L1D_demand_MPKI 18.3289
Core_0_L1D_demand_miss_rate 0.1896
Core_0_L1D_load_access 9667155
Core_0_L1D_load_hit 7834263
Core_0_L1D_load_miss 1832892
Core_0_L1D_load_MPKI 18.3289
Core_0_L1D_load_miss_rate 0.1896
Core_0_L1D_rfo_access 0
Core_0_L1D_rfo_hit 0
Core_0_L1D_rfo_miss 0
Core_0_L1D_rfo_MPKI 0
Core_0_L1D_rfo_miss_rate 0
Core_0_L1D_prefetch_access 9952689
Core_0_L1D_prefetch_hit 8813401
Core_0_L1D_prefetch_miss 1139288
Core_0_L1D_prefetch_MPKI 11.3929
Core_0_L1D_prefetch_miss_rate 0.11447
Core_0_L1D_writeback_access 2812289
Core_0_L1D_writeback_hit 2771103
Core_0_L1D_writeback_miss 41186
Core_0_L1D_writeback_MPKI 0.41186
Core_0_L1D_writeback_miss_rate 0.014645
Core_0_L1D_prefetch_requested 33681339
Core_0_L1D_prefetch_issued 9952681
Core_0_L1D_prefetch_useful 233136
Core_0_L1D_prefetch_useless 8964
Core_0_L1D_prefetch_late 2795
Core_0_L1D_prefetch_fill 239337
Core_0_L1D_prefetch_too_early 218
Core_0_L1D_prefetch_too_early_among_fill 0.00091085
Core_0_L1D_prefetch_too_early_among_useless 0.0243195
Core_0_L1D_prefetch_pollution_evict 743
Core_0_L1D_prefetch_pollution_demand 741
Core_0_L1D_prefetch_pollution_among_prefetch_fill 0.00310441
Core_0_L1D_prefetch_accuracy 0.0234244
Core_0_L1D_prefetch_coverage 0.112843

Core_0_L2C_total_access 3515018
Core_0_L2C_total_hit 1010625
Core_0_L2C_total_miss 2504393
Core_0_L2C_total_MPKI 25.0439
Core_0_L2C_total_miss_rate 0.712484
Core_0_L2C_demand_access 1846557
Core_0_L2C_demand_hit 106798
Core_0_L2C_demand_miss 1739759
Core_0_L2C_demand_MPKI 17.3976
Core_0_L2C_demand_miss_rate 0.942164
Core_0_L2C_load_access 1824443
Core_0_L2C_load_hit 103780
Core_0_L2C_load_miss 1720663
Core_0_L2C_load_MPKI 17.2066
Core_0_L2C_load_miss_rate 0.943117
Core_0_L2C_rfo_access 22114
Core_0_L2C_rfo_hit 3018
Core_0_L2C_rfo_miss 19096
Core_0_L2C_rfo_MPKI 0.19096
Core_0_L2C_rfo_miss_rate 0.863525
Core_0_L2C_prefetch_access 1633331
Core_0_L2C_prefetch_hit 868710
Core_0_L2C_prefetch_miss 764621
Core_0_L2C_prefetch_MPKI 7.64621
Core_0_L2C_prefetch_miss_rate 0.468136
Core_0_L2C_writeback_access 35130
Core_0_L2C_writeback_hit 35117
Core_0_L2C_writeback_miss 13
Core_0_L2C_writeback_MPKI 0.00013
Core_0_L2C_writeback_miss_rate 0.000370054
Core_0_L2C_prefetch_requested 525760
Core_0_L2C_prefetch_issued 519658
Core_0_L2C_prefetch_useful 181023
Core_0_L2C_prefetch_useless 8714
Core_0_L2C_prefetch_late 8614
Core_0_L2C_prefetch_fill 582804
Core_0_L2C_prefetch_too_early 367
Core_0_L2C_prefetch_too_early_among_fill 0.000629714
Core_0_L2C_prefetch_too_early_among_useless 0.0421161
Core_0_L2C_prefetch_pollution_evict 169229
Core_0_L2C_prefetch_pollution_demand 169159
Core_0_L2C_prefetch_pollution_among_prefetch_fill 0.29037
Core_0_L2C_prefetch_accuracy 0.34835
Core_0_L2C_prefetch_coverage 0.0942444

Core_0_LLC_total_access 2389235
Core_0_LLC_total_hit 1151391
Core_0_LLC_total_miss 1237844
Core_0_LLC_total_MPKI 12.3784
Core_0_LLC_total_miss_rate 0.518092
Core_0_LLC_demand_access 1696722
Core_0_LLC_demand_hit 774479
Core_0_LLC_demand_miss 922243
Core_0_LLC_demand_MPKI 9.22243
Core_0_LLC_demand_miss_rate 0.543544
Core_0_LLC_load_access 1677938
Core_0_LLC_load_hit 767689
Core_0_LLC_load_miss 910249
Core_0_LLC_load_MPKI 9.10249
Core_0_LLC_load_miss_rate 0.542481
Core_0_LLC_rfo_access 18784
Core_0_LLC_rfo_hit 6790
Core_0_LLC_rfo_miss 11994
Core_0_LLC_rfo_MPKI 0.11994
Core_0_LLC_rfo_miss_rate 0.638522
Core_0_LLC_prefetch_access 659315
Core_0_LLC_prefetch_hit 357327
Core_0_LLC_prefetch_miss 301988
Core_0_LLC_prefetch_MPKI 3.01988
Core_0_LLC_prefetch_miss_rate 0.458033
Core_0_LLC_writeback_access 33198
Core_0_LLC_writeback_hit 19585
Core_0_LLC_writeback_miss 13613
Core_0_LLC_writeback_MPKI 0.13613
Core_0_LLC_writeback_miss_rate 0.410055
Core_0_LLC_prefetch_requested 0
Core_0_LLC_prefetch_issued 0
Core_0_LLC_prefetch_useful 0
Core_0_LLC_prefetch_useless 0
Core_0_LLC_prefetch_late 0
Core_0_LLC_prefetch_fill 297514
Core_0_LLC_prefetch_too_early 0
Core_0_LLC_prefetch_too_early_among_fill 0
Core_0_LLC_prefetch_too_early_among_useless 0
Core_0_LLC_prefetch_pollution_evict 103361
Core_0_LLC_prefetch_pollution_demand 103361
Core_0_LLC_prefetch_pollution_among_prefetch_fill 0.347416
Core_0_LLC_prefetch_accuracy 0
Core_0_LLC_prefetch_coverage 0

[DRAM Statistics]
Channel_0_RQ_row_buffer_hit 5038
Channel_0_RQ_row_buffer_miss 1244948
Channel_0_WQ_row_buffer_hit 2296
Channel_0_WQ_row_buffer_miss 18955
Channel_0_WQ_full 0
Channel_0_dbus_congested 2113630
DRAM_total_RQ_row_buffer_hit 5038
DRAM_total_RQ_row_buffer_miss 1244948
DRAM_total_WQ_row_buffer_hit 2296
DRAM_total_WQ_row_buffer_miss 18955
DRAM_total_WQ_full 0
DRAM_total_dbus_congested 2113630
DRAM_avg_congested_cycle 3.24022

====== DRAM_RQ_TRAFFIC ========
DRAM_RQ_READ_TRAFFIC_BREAKDOWN:
data_demand_read.count = 916659
data_demand_read.share = 73.32%

inst_demand_read.count = 4426
inst_demand_read.share = 0.35%

cache_inst_prefetch.count = 0
cache_inst_prefetch.share = 0.00%

cache_data_prefetch.count = 298672
cache_data_prefetch.share = 23.89%

stlb_data_demand.count = 28244
stlb_data_demand.share = 2.26%

stlb_inst_demand.count = 435
stlb_inst_demand.share = 0.03%

stlb_l1i_pref.count = 0
stlb_l1i_pref.share = 0.00%

stlb_l1d_pref.count = 1722
stlb_l1d_pref.share = 0.14%

DRAM_RQ_READ_TRAFFIC_SUMMARY:
cache_demand.count = 921085
cache_demand.share = 73.68%

cache_prefetch.count = 298672
cache_prefetch.share = 23.89%

stlb_demand.count = 28679
stlb_demand.share = 2.29%

stlb_prefetch.count = 1722
stlb_prefetch.share = 0.14%

DRAM_RQ_READ_TRAFFIC_DEBUG:
total_classified_read.count = 1250158
unclassified_read.count = 0
total_read_with_other.count = 1250158

classified_plus_unclassified_check.count = 1250158
dram_rq_read_total_observed.count = 1250158
dram_rq_read_total_observed.per_1K_instructions = 12.5016

STLB_MISS_PTW_DRAM_TOUCH_BREAKDOWN:
stlb_miss_total.count = 529759

stlb_miss_touch_dram.count = 30527
stlb_miss_touch_dram.share = 5.76%

stlb_miss_no_dram_touch.count = 499232
stlb_miss_no_dram_touch.share = 94.24%

STLB_MISS_PTW_DRAM_TOUCH_DEBUG:
stlb_miss_touch_plus_no_touch.count = 529759
stlb_miss_total_check.count = 529759

======STLB miss causes ========
Core_0_STLB_miss_cause_breakdown
Core_0_STLB_cause_Demand_Data_miss 497999
Core_0_STLB_cause_Demand_Data_miss_rate 0.857098
Core_0_STLB_cause_Demand_Instruction_miss 1230
Core_0_STLB_cause_Demand_Instruction_miss_rate 0.00211693
Core_0_STLB_cause_L1D_Prefetch_miss 57809
Core_0_STLB_cause_L1D_Prefetch_miss_rate 0.0994942
Core_0_STLB_cause_L1D_Prefetch_Same_Page_miss 0
Core_0_STLB_cause_L1D_Prefetch_Same_Page_miss_rate 0
Core_0_STLB_cause_L1D_Prefetch_Cross_Page_miss 57809
Core_0_STLB_cause_L1D_Prefetch_Cross_Page_miss_rate 0.0994942
Core_0_STLB_cause_L1I_Prefetch_miss 0
Core_0_STLB_cause_L1I_Prefetch_miss_rate 0
Core_0_STLB_cause_Other_miss 0
Core_0_STLB_cause_Other_miss_rate 0
Core_0_STLB_Demand_miss 499229
Core_0_STLB_Demand_miss_rate 0.859215
Core_0_STLB_L1D_Prefetch_miss 57809
Core_0_STLB_L1D_Prefetch_miss_rate 0.0994942
Core_0_STLB_Other_miss 0
Core_0_STLB_Other_miss_rate 0

========== vBerti-TLB Cross-page Flow Stats ==========

Core_0_vBerti_Requested 33681339
Core_0_vBerti_Cross_page_prefetch_in_Requested 4049071
Core_0_vBerti_Same_page_prefetch_in_Requested 29632268
Core_0_vBerti_Cross_page_prefetch_of_Requested 0.120217
Core_0_vBerti_Issued 9952681
Core_0_vBerti_PQ_Drop_Rate 0.704505
Core_0_vBerti_InPQ_Cross_page_prefetch_of_Requested 0.0123595
Core_0_vBerti_Cross_page_PQ_Drop_rate 0.89719
Core_0_vBerti_Cross_page_prefetch_of_Issued 0.0418264

========= DTLB_vBerti Prefetch Stats =========
Core_0_DTLB_demand_access 12027103
Core_0_DTLB_demand_hit 11290004
Core_0_DTLB_demand_miss 737099
Core_0_DTLB_demand_mshr_merge 216288
Core_0_DTLB_demand_fill 534903
Core_0_DTLB_demand_miss_rate 0.0612865
Core_0_DTLB_demand_mpki 7.37099
Core_0_DTLB_vberti_prefetch_access 5500374
Core_0_DTLB_vberti_prefetch_hit 5428430
Core_0_DTLB_vberti_prefetch_miss 71944
Core_0_DTLB_vberti_prefetch_mshr_merge 13086
Core_0_DTLB_vberti_prefetch_fill 44767
Core_0_DTLB_vberti_prefetch_miss_rate 0.0130798
Core_0_DTLB_vberti_prefetch_mpki 0.71944

=== DTLB_vBerti Same/Cross-page Prefetch Stats ===
Core_0_DTLB_vberti_same_page_prefetch 5168894
Core_0_DTLB_vberti_same_page_prefetch_hit 5168894
Core_0_DTLB_vberti_same_page_prefetch_miss 0
Core_0_DTLB_vberti_same_page_prefetch_mshr_merge 0
Core_0_DTLB_vberti_same_page_prefetch_fill 0
Core_0_DTLB_vberti_same_page_prefetch_miss_rate 0
Core_0_DTLB_vberti_same_page_prefetch_mpki 0
Core_0_DTLB_vberti_cross_page_prefetch 331480
Core_0_DTLB_vberti_cross_page_prefetch_hit 259536
Core_0_DTLB_vberti_cross_page_prefetch_miss 71944
Core_0_DTLB_vberti_cross_page_prefetch_mshr_merge 13086
Core_0_DTLB_vberti_cross_page_prefetch_fill 44767
Core_0_DTLB_vberti_cross_page_prefetch_miss_rate 0.217039
Core_0_DTLB_vberti_cross_page_prefetch_mpki 0.71944
Core_0_DTLB_same_page_prefetch_miss_rate 0
Core_0_DTLB_same_page_prefetch_mpki 0
Core_0_DTLB_cross_page_prefetch_miss_rate 0.217039
Core_0_DTLB_cross_page_prefetch_mpki 0.71944
Core_0_DTLB_cross_page_prefetch_issued 331480
Core_0_DTLB_cross_page_prefetch_lookups 331480
Core_0_DTLB_cross_page_prefetch_useful 46115
Core_0_DTLB_cross_page_prefetch_useless 12743
Core_0_DTLB_cross_page_prefetch_late 14091
Core_0_DTLB_cross_page_prefetch_too_early 527
Core_0_DTLB_cross_page_prefetch_too_early_among_fill 0.0117721
Core_0_DTLB_cross_page_prefetch_too_early_among_useless 0.041356
Core_0_DTLB_cross_page_prefetch_pollution_evict 1101
Core_0_DTLB_cross_page_prefetch_pollution_demand 1003
Core_0_DTLB_cross_page_prefetch_pollution_among_prefetch_fill 0.024594
Core_0_DTLB_cross_page_prefetch_accuracy 0.139118
Core_0_DTLB_cross_page_prefetch_coverage 0.0588792

========= STLB_vBerti Prefetch Stats =========
Core_0_STLB_demand_access 522171
Core_0_STLB_demand_hit 22942
Core_0_STLB_demand_miss 499229
Core_0_STLB_demand_mshr_merge 0
Core_0_STLB_demand_fill 499229
Core_0_STLB_demand_miss_rate 0.956064
Core_0_STLB_demand_mpki 4.99229
Core_0_STLB_vberti_prefetch_access 58858
Core_0_STLB_vberti_prefetch_hit 1049
Core_0_STLB_vberti_prefetch_miss 57809
Core_0_STLB_vberti_prefetch_mshr_merge 0
Core_0_STLB_vberti_prefetch_fill 0
Core_0_STLB_vberti_prefetch_miss_rate 0.982177
Core_0_STLB_vberti_prefetch_mpki 0.57809

=== STLB_vBerti Same/Cross-page Prefetch Stats ===
Core_0_STLB_vberti_same_page_prefetch 0
Core_0_STLB_vberti_same_page_prefetch_hit 0
Core_0_STLB_vberti_same_page_prefetch_miss 0
Core_0_STLB_vberti_same_page_prefetch_mshr_merge 0
Core_0_STLB_vberti_same_page_prefetch_fill 0
Core_0_STLB_vberti_same_page_prefetch_miss_rate 0
Core_0_STLB_vberti_same_page_prefetch_mpki 0
Core_0_STLB_vberti_cross_page_prefetch 58858
Core_0_STLB_vberti_cross_page_prefetch_hit 1049
Core_0_STLB_vberti_cross_page_prefetch_miss 57809
Core_0_STLB_vberti_cross_page_prefetch_mshr_merge 0
Core_0_STLB_vberti_cross_page_prefetch_fill 0
Core_0_STLB_vberti_cross_page_prefetch_miss_rate 0.982177
Core_0_STLB_vberti_cross_page_prefetch_mpki 0.57809
Core_0_STLB_same_page_prefetch_miss_rate 0
Core_0_STLB_same_page_prefetch_mpki 0
Core_0_STLB_cross_page_prefetch_miss_rate 0.982177
Core_0_STLB_cross_page_prefetch_mpki 0.57809
Core_0_STLB_cross_page_prefetch_issued 58858
Core_0_STLB_cross_page_prefetch_lookups 58858
Core_0_STLB_cross_page_prefetch_useful 27282
Core_0_STLB_cross_page_prefetch_useless 15339
Core_0_STLB_cross_page_prefetch_late 27282
Core_0_STLB_cross_page_prefetch_too_early 0
Core_0_STLB_cross_page_prefetch_too_early_among_fill 0
Core_0_STLB_cross_page_prefetch_too_early_among_useless 0
Core_0_STLB_cross_page_prefetch_pollution_evict 0
Core_0_STLB_cross_page_prefetch_pollution_demand 0
Core_0_STLB_cross_page_prefetch_pollution_among_prefetch_fill 0
Core_0_STLB_cross_page_prefetch_accuracy 0.463522
Core_0_STLB_cross_page_prefetch_coverage 0.0518166

========= STLB Cross-page Prefetch Buffer Stats =========
Core_0_STLB_raw_demand_miss 497999
Core_0_CP_PB_insert 57809
Core_0_CP_PB_demand_hit 27279
Core_0_STLB_PB_demand_miss 470720
Core_0_CP_PB_coverage 0.0547772
Core_0_STLB_raw_demand_mpki 4.97999
Core_0_STLB_PB_demand_mpki 4.7072
Core_0_CP_PB_demand_hit_mpki 0.27279

Core_0_TLB_demand_miss_rate 0.0415087
Core_0_TLB_demand_mpki 4.99229
Core_0_TLB_same_page_prefetch_miss_rate 0
Core_0_TLB_same_page_prefetch_mpki 0
Core_0_TLB_cross_page_prefetch_miss_rate 0.174397
Core_0_TLB_cross_page_prefetch_mpki 0.57809
Core_0_TLB_cross_page_prefetch_issued 331480
Core_0_TLB_cross_page_prefetch_lookups 331480
Core_0_TLB_cross_page_prefetch_useful 3829
Core_0_TLB_cross_page_prefetch_useless 12197
Core_0_TLB_cross_page_prefetch_late 1271
Core_0_TLB_cross_page_prefetch_too_early 348
Core_0_TLB_cross_page_prefetch_too_early_among_fill 0.00777358
Core_0_TLB_cross_page_prefetch_too_early_among_useless 0.0285316
Core_0_TLB_cross_page_prefetch_accuracy 0.0115512
Core_0_TLB_cross_page_prefetch_coverage 0.00761145
BERTI TO_L1: 30428701 TO_L2: 11025219 TO_L2_BC_MSHR: 4986035
BERTI AVG_LAT: 100.2 NUM_TRACK_LATENCY: 2975220 NUM_CANT_TRACK_LATENCY: 0
BERTI CROSS_PAGE 4943830 NO_CROSS_PAGE: 36510090
BERTI FOUND_BERTI: 8986564 NO_FOUND_BERTI: 10440431
BERTI AVERAGE_ISSUED: 2.66655
