[VMEM] WARNING: physical memory size is smaller than virtual memory size.

*** ChampSim Multicore Out-of-Order Simulator ***
Warmup Instructions: 50000000
Simulation Instructions: 100000000
Number of CPUs: 1
Page size: 4096
Core 0: /data0/tzh/champsim_traces/QMM/compute_fp_7_new.xz
VBerti Prefetcher
BERTI HASH ENTANGLING
BERTI IP MASK ffff
Off-chip DRAM Size: 16 GiB Channels: 1 Width: 64-bit Data Rate: 3205 MT/s
*** Reached end of trace: (0, "/data0/tzh/champsim_traces/QMM/compute_fp_7_new.xz")
[BTB] WARNING: target of return is a lower address than the corresponding call. This is usually a problem with your trace.
Warmup halting CPU 0 at instruction 50000005 cycle 14443214 for remainder of phase
Warmup finished CPU 0 instructions: 50000005 cycles: 14443214 cumulative IPC: 3.462 (Simulation time: 00 hr 03 min 24 sec)
Warmup complete CPU 0 instructions: 50000005 cycles: 14443214 cumulative IPC: 3.462 (Simulation time: 00 hr 03 min 24 sec)
*** Reached end of trace: (0, "/data0/tzh/champsim_traces/QMM/compute_fp_7_new.xz")
[BTB] WARNING: target of return is a lower address than the corresponding call. This is usually a problem with your trace.
*** Reached end of trace: (0, "/data0/tzh/champsim_traces/QMM/compute_fp_7_new.xz")
[BTB] WARNING: target of return is a lower address than the corresponding call. This is usually a problem with your trace.
*** Reached end of trace: (0, "/data0/tzh/champsim_traces/QMM/compute_fp_7_new.xz")
[BTB] WARNING: target of return is a lower address than the corresponding call. This is usually a problem with your trace.
Simulation finished CPU 0 instructions: 100000002 cycles: 220565846 cumulative IPC: 0.4534 (Simulation time: 00 hr 26 min 18 sec)
Simulation complete CPU 0 instructions: 100000002 cycles: 220565846 cumulative IPC: 0.4534 (Simulation time: 00 hr 26 min 18 sec)

ChampSim completed all CPUs

=== Simulation ===
CPU 0 runs /data0/tzh/champsim_traces/QMM/compute_fp_7_new.xz

Region of Interest Statistics

CPU 0 cumulative IPC: 0.4534 instructions: 100000002 cycles: 220565846
CPU 0 Branch Prediction Accuracy: 93.53% MPKI: 10.54 Average ROB Occupancy at Mispredict: 67.25
Branch type MPKI
BRANCH_DIRECT_JUMP: 0
BRANCH_INDIRECT: 7e-05
BRANCH_CONDITIONAL: 10.54
BRANCH_DIRECT_CALL: 0
BRANCH_INDIRECT_CALL: 0
BRANCH_RETURN: 3e-05

cpu0->cpu0_STLB TOTAL        ACCESS:    1544099 HIT:    1342551 MISS:     201548 MSHR_MERGE:          0
cpu0->cpu0_STLB LOAD         ACCESS:    1544099 HIT:    1342551 MISS:     201548 MSHR_MERGE:          0
cpu0->cpu0_STLB RFO          ACCESS:          0 HIT:          0 MISS:          0 MSHR_MERGE:          0
cpu0->cpu0_STLB PREFETCH     ACCESS:          0 HIT:          0 MISS:          0 MSHR_MERGE:          0
cpu0->cpu0_STLB WRITE        ACCESS:          0 HIT:          0 MISS:          0 MSHR_MERGE:          0
cpu0->cpu0_STLB TRANSLATION  ACCESS:          0 HIT:          0 MISS:          0 MSHR_MERGE:          0
cpu0->cpu0_STLB PREFETCH REQUESTED:          0 ISSUED:          0 USEFUL:          0 USELESS:          0 LATE:          0 TOO_EARLY:          0
cpu0->cpu0_STLB AVERAGE MISS LATENCY: 62.49 cycles
cpu0->cpu0_L2C TOTAL        ACCESS:   15904367 HIT:    8457171 MISS:    7447196 MSHR_MERGE:    1418674
cpu0->cpu0_L2C LOAD         ACCESS:    4317083 HIT:    1755278 MISS:    2561805 MSHR_MERGE:     122695
cpu0->cpu0_L2C RFO          ACCESS:    1205310 HIT:     335760 MISS:     869550 MSHR_MERGE:      51066
cpu0->cpu0_L2C PREFETCH     ACCESS:    7007188 HIT:    3043079 MISS:    3964109 MSHR_MERGE:    1244913
cpu0->cpu0_L2C WRITE        ACCESS:    3282185 HIT:    3282057 MISS:        128 MSHR_MERGE:          0
cpu0->cpu0_L2C TRANSLATION  ACCESS:      92601 HIT:      40997 MISS:      51604 MSHR_MERGE:          0
cpu0->cpu0_L2C PREFETCH REQUESTED:    2501896 ISSUED:    2482139 USEFUL:     549319 USELESS:     201916 LATE:      93591 TOO_EARLY:      27961
cpu0->cpu0_L2C AVERAGE MISS LATENCY: 197 cycles
cpu0->cpu0_L1I TOTAL        ACCESS:    5129006 HIT:    5122332 MISS:       6674 MSHR_MERGE:       2767
cpu0->cpu0_L1I LOAD         ACCESS:    5129006 HIT:    5122332 MISS:       6674 MSHR_MERGE:       2767
cpu0->cpu0_L1I RFO          ACCESS:          0 HIT:          0 MISS:          0 MSHR_MERGE:          0
cpu0->cpu0_L1I PREFETCH     ACCESS:          0 HIT:          0 MISS:          0 MSHR_MERGE:          0
cpu0->cpu0_L1I WRITE        ACCESS:          0 HIT:          0 MISS:          0 MSHR_MERGE:          0
cpu0->cpu0_L1I TRANSLATION  ACCESS:          0 HIT:          0 MISS:          0 MSHR_MERGE:          0
cpu0->cpu0_L1I PREFETCH REQUESTED:          0 ISSUED:          0 USEFUL:          0 USELESS:          0 LATE:          0 TOO_EARLY:          0
cpu0->cpu0_L1I AVERAGE MISS LATENCY: 283.6 cycles
cpu0->cpu0_L1D TOTAL        ACCESS:   46752933 HIT:   33027318 MISS:   13725615 MSHR_MERGE:    3531113
cpu0->cpu0_L1D LOAD         ACCESS:   19160023 HIT:   13166651 MISS:    5993372 MSHR_MERGE:    1680053
cpu0->cpu0_L1D RFO          ACCESS:          0 HIT:          0 MISS:          0 MSHR_MERGE:          0
cpu0->cpu0_L1D PREFETCH     ACCESS:   16882414 HIT:   12188948 MISS:    4693466 MSHR_MERGE:     110313
cpu0->cpu0_L1D WRITE        ACCESS:   10346622 HIT:    7402540 MISS:    2944082 MSHR_MERGE:    1738653
cpu0->cpu0_L1D TRANSLATION  ACCESS:     363874 HIT:     269179 MISS:      94695 MSHR_MERGE:       2094
cpu0->cpu0_L1D PREFETCH REQUESTED:  159275301 ISSUED:   16882410 USEFUL:    1212270 USELESS:     254935 LATE:      79379 TOO_EARLY:      23361
cpu0->cpu0_L1D AVERAGE MISS LATENCY: 131.8 cycles
cpu0->cpu0_ITLB TOTAL        ACCESS:    4562451 HIT:    4561564 MISS:        887 MSHR_MERGE:        612
cpu0->cpu0_ITLB LOAD         ACCESS:    4562451 HIT:    4561564 MISS:        887 MSHR_MERGE:        612
cpu0->cpu0_ITLB RFO          ACCESS:          0 HIT:          0 MISS:          0 MSHR_MERGE:          0
cpu0->cpu0_ITLB PREFETCH     ACCESS:          0 HIT:          0 MISS:          0 MSHR_MERGE:          0
cpu0->cpu0_ITLB WRITE        ACCESS:          0 HIT:          0 MISS:          0 MSHR_MERGE:          0
cpu0->cpu0_ITLB TRANSLATION  ACCESS:          0 HIT:          0 MISS:          0 MSHR_MERGE:          0
cpu0->cpu0_ITLB PREFETCH REQUESTED:          0 ISSUED:          0 USEFUL:          0 USELESS:          0 LATE:          0 TOO_EARLY:          0
cpu0->cpu0_ITLB AVERAGE MISS LATENCY: 268.2 cycles
cpu0->cpu0_DTLB TOTAL        ACCESS:   40496254 HIT:   38411020 MISS:    2085234 MSHR_MERGE:     541410
cpu0->cpu0_DTLB LOAD         ACCESS:   40496254 HIT:   38411020 MISS:    2085234 MSHR_MERGE:     541410
cpu0->cpu0_DTLB RFO          ACCESS:          0 HIT:          0 MISS:          0 MSHR_MERGE:          0
cpu0->cpu0_DTLB PREFETCH     ACCESS:          0 HIT:          0 MISS:          0 MSHR_MERGE:          0
cpu0->cpu0_DTLB WRITE        ACCESS:          0 HIT:          0 MISS:          0 MSHR_MERGE:          0
cpu0->cpu0_DTLB TRANSLATION  ACCESS:          0 HIT:          0 MISS:          0 MSHR_MERGE:          0
cpu0->cpu0_DTLB PREFETCH REQUESTED:          0 ISSUED:          0 USEFUL:          0 USELESS:          0 LATE:          0 TOO_EARLY:          0
cpu0->cpu0_DTLB AVERAGE MISS LATENCY: 12.51 cycles
cpu0->LLC TOTAL        ACCESS:    8302512 HIT:    3763892 MISS:    4538620 MSHR_MERGE:     110515
cpu0->LLC LOAD         ACCESS:    2439107 HIT:    1016619 MISS:    1422488 MSHR_MERGE:      11260
cpu0->LLC RFO          ACCESS:     818480 HIT:     266187 MISS:     552293 MSHR_MERGE:       1853
cpu0->LLC PREFETCH     ACCESS:    2719121 HIT:     703850 MISS:    2015271 MSHR_MERGE:      97402
cpu0->LLC WRITE        ACCESS:    2274200 HIT:    1750844 MISS:     523356 MSHR_MERGE:          0
cpu0->LLC TRANSLATION  ACCESS:      51604 HIT:      26392 MISS:      25212 MSHR_MERGE:          0
cpu0->LLC PREFETCH REQUESTED:          0 ISSUED:          0 USEFUL:          0 USELESS:          0 LATE:          0 TOO_EARLY:          0
cpu0->LLC AVERAGE MISS LATENCY: 235.2 cycles

DRAM Statistics

Channel 0 RQ ROW_BUFFER_HIT:     151510
  ROW_BUFFER_MISS:    3749554
  AVG DBUS CONGESTED CYCLE: 6.758
Channel 0 WQ ROW_BUFFER_HIT:     219229
  ROW_BUFFER_MISS:    1000292
  FULL:       2621
Channel 0 REFRESHES ISSUED:      18381

[ROI Statistics]
[System Configuration]
num_cpus 1
cpu_freq 4000
fetch_width 6
decode_width 6
dispatch_width 6
execute_width 6
lq_width 2
sq_width 2
retire_width 6
scheduler_size 128
branch_mispredict_penalty 15
rob_size 352
lq_size 128
sq_size 72
ifetch_buffer_size 64
decode_buffer_size 32
dispatch_buffer_size 32
register_file_size 288
decode_latency 1
dispatch_latency 1
schedule_latency 1
execute_latency 1
page_size 4096
block_size 64
core_0_itlb_set 16
core_0_itlb_way 4
core_0_itlb_rq_size 16
core_0_itlb_wq_size 16
core_0_itlb_pq_size 0
core_0_itlb_mshr_size 8
core_0_itlb_hit_latency 1
core_0_itlb_fill_latency 1
core_0_itlb_max_tag_check 2
core_0_itlb_max_fill 2
core_0_dtlb_set 16
core_0_dtlb_way 4
core_0_dtlb_rq_size 16
core_0_dtlb_wq_size 16
core_0_dtlb_pq_size 0
core_0_dtlb_mshr_size 8
core_0_dtlb_hit_latency 1
core_0_dtlb_fill_latency 1
core_0_dtlb_max_tag_check 2
core_0_dtlb_max_fill 2
core_0_stlb_set 128
core_0_stlb_way 12
core_0_stlb_rq_size 32
core_0_stlb_wq_size 32
core_0_stlb_pq_size 0
core_0_stlb_mshr_size 16
core_0_stlb_hit_latency 4
core_0_stlb_fill_latency 4
core_0_stlb_max_tag_check 1
core_0_stlb_max_fill 1
core_0_l1i_set 64
core_0_l1i_way 8
core_0_l1i_rq_size 64
core_0_l1i_wq_size 64
core_0_l1i_pq_size 32
core_0_l1i_mshr_size 8
core_0_l1i_hit_latency 2
core_0_l1i_fill_latency 2
core_0_l1i_max_tag_check 2
core_0_l1i_max_fill 2
core_0_l1d_set 64
core_0_l1d_way 12
core_0_l1d_rq_size 64
core_0_l1d_wq_size 64
core_0_l1d_pq_size 8
core_0_l1d_mshr_size 16
core_0_l1d_hit_latency 2
core_0_l1d_fill_latency 3
core_0_l1d_max_tag_check 2
core_0_l1d_max_fill 2
core_0_l2c_set 1024
core_0_l2c_way 8
core_0_l2c_rq_size 32
core_0_l2c_wq_size 32
core_0_l2c_pq_size 16
core_0_l2c_mshr_size 32
core_0_l2c_hit_latency 5
core_0_l2c_fill_latency 5
core_0_l2c_max_tag_check 1
core_0_l2c_max_fill 1
llc_set 2048
llc_way 16
llc_rq_size 32
llc_wq_size 32
llc_pq_size 32
llc_mshr_size 64
llc_hit_latency 10
llc_fill_latency 10
llc_max_tag_check 1
llc_max_fill 1
dram_channels 1
dram_ranks 1
dram_bankgroups 8
dram_banks 4
dram_rows 65536
dram_columns 1024
dram_channel_width 8
dram_rq_size 64
dram_wq_size 64
dram_size 17179869184
core_0_itlb_prefetcher no
core_0_dtlb_prefetcher no
core_0_stlb_prefetcher no
core_0_l1i_prefetcher next_line
core_0_l1d_prefetcher vberti
core_0_l2c_prefetcher ip_stride
llc_prefetcher no
llc_replacement drrip

Core_0_instructions 100000002
Core_0_cycles 220565846
Core_0_IPC 0.453379
Core_0_branch_prediction_accuracy 93.5273
Core_0_branch_MPKI 10.5389
Core_0_average_ROB_occupancy_at_mispredict 67.2473

Core_0_ITLB_total_access 4562451
Core_0_ITLB_total_hit 4561564
Core_0_ITLB_total_miss 887
Core_0_ITLB_total_MPKI 0.00887
Core_0_ITLB_total_miss_rate 0.000194413
Core_0_ITLB_demand_access 4562451
Core_0_ITLB_demand_hit 4561564
Core_0_ITLB_demand_miss 887
Core_0_ITLB_demand_MPKI 0.00887
Core_0_ITLB_demand_miss_rate 0.000194413
Core_0_ITLB_load_access 4562451
Core_0_ITLB_load_hit 4561564
Core_0_ITLB_load_miss 887
Core_0_ITLB_load_MPKI 0.00887
Core_0_ITLB_load_miss_rate 0.000194413
Core_0_ITLB_rfo_access 0
Core_0_ITLB_rfo_hit 0
Core_0_ITLB_rfo_miss 0
Core_0_ITLB_rfo_MPKI 0
Core_0_ITLB_rfo_miss_rate 0
Core_0_ITLB_prefetch_access 0
Core_0_ITLB_prefetch_hit 0
Core_0_ITLB_prefetch_miss 0
Core_0_ITLB_prefetch_MPKI 0
Core_0_ITLB_prefetch_miss_rate 0
Core_0_ITLB_writeback_access 0
Core_0_ITLB_writeback_hit 0
Core_0_ITLB_writeback_miss 0
Core_0_ITLB_writeback_MPKI 0
Core_0_ITLB_writeback_miss_rate 0
Core_0_ITLB_prefetch_requested 0
Core_0_ITLB_prefetch_issued 0
Core_0_ITLB_prefetch_useful 0
Core_0_ITLB_prefetch_useless 0
Core_0_ITLB_prefetch_late 0
Core_0_ITLB_prefetch_fill 0
Core_0_ITLB_prefetch_too_early 0
Core_0_ITLB_prefetch_too_early_among_fill 0
Core_0_ITLB_prefetch_too_early_among_useless 0
Core_0_ITLB_prefetch_pollution_evict 0
Core_0_ITLB_prefetch_pollution_demand 0
Core_0_ITLB_prefetch_pollution_among_prefetch_fill 0
Core_0_ITLB_prefetch_accuracy 0
Core_0_ITLB_prefetch_coverage 0

Core_0_DTLB_total_access 40496254
Core_0_DTLB_total_hit 38411020
Core_0_DTLB_total_miss 2085234
Core_0_DTLB_total_MPKI 20.8523
Core_0_DTLB_total_miss_rate 0.051492
Core_0_DTLB_demand_access 40496254
Core_0_DTLB_demand_hit 38411020
Core_0_DTLB_demand_miss 2085234
Core_0_DTLB_demand_MPKI 20.8523
Core_0_DTLB_demand_miss_rate 0.051492
Core_0_DTLB_load_access 40496254
Core_0_DTLB_load_hit 38411020
Core_0_DTLB_load_miss 2085234
Core_0_DTLB_load_MPKI 20.8523
Core_0_DTLB_load_miss_rate 0.051492
Core_0_DTLB_rfo_access 0
Core_0_DTLB_rfo_hit 0
Core_0_DTLB_rfo_miss 0
Core_0_DTLB_rfo_MPKI 0
Core_0_DTLB_rfo_miss_rate 0
Core_0_DTLB_prefetch_access 0
Core_0_DTLB_prefetch_hit 0
Core_0_DTLB_prefetch_miss 0
Core_0_DTLB_prefetch_MPKI 0
Core_0_DTLB_prefetch_miss_rate 0
Core_0_DTLB_writeback_access 0
Core_0_DTLB_writeback_hit 0
Core_0_DTLB_writeback_miss 0
Core_0_DTLB_writeback_MPKI 0
Core_0_DTLB_writeback_miss_rate 0
Core_0_DTLB_prefetch_requested 0
Core_0_DTLB_prefetch_issued 0
Core_0_DTLB_prefetch_useful 0
Core_0_DTLB_prefetch_useless 0
Core_0_DTLB_prefetch_late 0
Core_0_DTLB_prefetch_fill 0
Core_0_DTLB_prefetch_too_early 0
Core_0_DTLB_prefetch_too_early_among_fill 0
Core_0_DTLB_prefetch_too_early_among_useless 0
Core_0_DTLB_prefetch_pollution_evict 0
Core_0_DTLB_prefetch_pollution_demand 0
Core_0_DTLB_prefetch_pollution_among_prefetch_fill 0
Core_0_DTLB_prefetch_accuracy 0
Core_0_DTLB_prefetch_coverage 0

Core_0_STLB_total_access 1544099
Core_0_STLB_total_hit 1342551
Core_0_STLB_total_miss 201548
Core_0_STLB_total_MPKI 2.01548
Core_0_STLB_total_miss_rate 0.130528
Core_0_STLB_demand_access 1544099
Core_0_STLB_demand_hit 1342551
Core_0_STLB_demand_miss 201548
Core_0_STLB_demand_MPKI 2.01548
Core_0_STLB_demand_miss_rate 0.130528
Core_0_STLB_load_access 1544099
Core_0_STLB_load_hit 1342551
Core_0_STLB_load_miss 201548
Core_0_STLB_load_MPKI 2.01548
Core_0_STLB_load_miss_rate 0.130528
Core_0_STLB_rfo_access 0
Core_0_STLB_rfo_hit 0
Core_0_STLB_rfo_miss 0
Core_0_STLB_rfo_MPKI 0
Core_0_STLB_rfo_miss_rate 0
Core_0_STLB_prefetch_access 0
Core_0_STLB_prefetch_hit 0
Core_0_STLB_prefetch_miss 0
Core_0_STLB_prefetch_MPKI 0
Core_0_STLB_prefetch_miss_rate 0
Core_0_STLB_writeback_access 0
Core_0_STLB_writeback_hit 0
Core_0_STLB_writeback_miss 0
Core_0_STLB_writeback_MPKI 0
Core_0_STLB_writeback_miss_rate 0
Core_0_STLB_prefetch_requested 0
Core_0_STLB_prefetch_issued 0
Core_0_STLB_prefetch_useful 0
Core_0_STLB_prefetch_useless 0
Core_0_STLB_prefetch_late 0
Core_0_STLB_prefetch_fill 0
Core_0_STLB_prefetch_too_early 0
Core_0_STLB_prefetch_too_early_among_fill 0
Core_0_STLB_prefetch_too_early_among_useless 0
Core_0_STLB_prefetch_pollution_evict 0
Core_0_STLB_prefetch_pollution_demand 0
Core_0_STLB_prefetch_pollution_among_prefetch_fill 0
Core_0_STLB_prefetch_accuracy 0
Core_0_STLB_prefetch_coverage 0

Core_0_L1I_total_access 5129006
Core_0_L1I_total_hit 5122332
Core_0_L1I_total_miss 6674
Core_0_L1I_total_MPKI 0.06674
Core_0_L1I_total_miss_rate 0.00130123
Core_0_L1I_demand_access 5129006
Core_0_L1I_demand_hit 5122332
Core_0_L1I_demand_miss 6674
Core_0_L1I_demand_MPKI 0.06674
Core_0_L1I_demand_miss_rate 0.00130123
Core_0_L1I_load_access 5129006
Core_0_L1I_load_hit 5122332
Core_0_L1I_load_miss 6674
Core_0_L1I_load_MPKI 0.06674
Core_0_L1I_load_miss_rate 0.00130123
Core_0_L1I_rfo_access 0
Core_0_L1I_rfo_hit 0
Core_0_L1I_rfo_miss 0
Core_0_L1I_rfo_MPKI 0
Core_0_L1I_rfo_miss_rate 0
Core_0_L1I_prefetch_access 0
Core_0_L1I_prefetch_hit 0
Core_0_L1I_prefetch_miss 0
Core_0_L1I_prefetch_MPKI 0
Core_0_L1I_prefetch_miss_rate 0
Core_0_L1I_writeback_access 0
Core_0_L1I_writeback_hit 0
Core_0_L1I_writeback_miss 0
Core_0_L1I_writeback_MPKI 0
Core_0_L1I_writeback_miss_rate 0
Core_0_L1I_prefetch_requested 0
Core_0_L1I_prefetch_issued 0
Core_0_L1I_prefetch_useful 0
Core_0_L1I_prefetch_useless 0
Core_0_L1I_prefetch_late 0
Core_0_L1I_prefetch_fill 0
Core_0_L1I_prefetch_too_early 0
Core_0_L1I_prefetch_too_early_among_fill 0
Core_0_L1I_prefetch_too_early_among_useless 0
Core_0_L1I_prefetch_pollution_evict 0
Core_0_L1I_prefetch_pollution_demand 0
Core_0_L1I_prefetch_pollution_among_prefetch_fill 0
Core_0_L1I_prefetch_accuracy 0
Core_0_L1I_prefetch_coverage 0

Core_0_L1D_total_access 46389059
Core_0_L1D_total_hit 32758139
Core_0_L1D_total_miss 13630920
Core_0_L1D_total_MPKI 136.309
Core_0_L1D_total_miss_rate 0.293839
Core_0_L1D_demand_access 19160023
Core_0_L1D_demand_hit 13166651
Core_0_L1D_demand_miss 5993372
Core_0_L1D_demand_MPKI 59.9337
Core_0_L1D_demand_miss_rate 0.312806
Core_0_L1D_load_access 19160023
Core_0_L1D_load_hit 13166651
Core_0_L1D_load_miss 5993372
Core_0_L1D_load_MPKI 59.9337
Core_0_L1D_load_miss_rate 0.312806
Core_0_L1D_rfo_access 0
Core_0_L1D_rfo_hit 0
Core_0_L1D_rfo_miss 0
Core_0_L1D_rfo_MPKI 0
Core_0_L1D_rfo_miss_rate 0
Core_0_L1D_prefetch_access 16882414
Core_0_L1D_prefetch_hit 12188948
Core_0_L1D_prefetch_miss 4693466
Core_0_L1D_prefetch_MPKI 46.9347
Core_0_L1D_prefetch_miss_rate 0.278009
Core_0_L1D_writeback_access 10346622
Core_0_L1D_writeback_hit 7402540
Core_0_L1D_writeback_miss 2944082
Core_0_L1D_writeback_MPKI 29.4408
Core_0_L1D_writeback_miss_rate 0.284545
Core_0_L1D_prefetch_requested 159275301
Core_0_L1D_prefetch_issued 16882410
Core_0_L1D_prefetch_useful 1212270
Core_0_L1D_prefetch_useless 254935
Core_0_L1D_prefetch_late 79379
Core_0_L1D_prefetch_fill 1387854
Core_0_L1D_prefetch_too_early 23361
Core_0_L1D_prefetch_too_early_among_fill 0.0168325
Core_0_L1D_prefetch_too_early_among_useless 0.0916351
Core_0_L1D_prefetch_pollution_evict 92461
Core_0_L1D_prefetch_pollution_demand 90891
Core_0_L1D_prefetch_pollution_among_prefetch_fill 0.0666216
Core_0_L1D_prefetch_accuracy 0.0718067
Core_0_L1D_prefetch_coverage 0.168239

Core_0_L2C_total_access 15811766
Core_0_L2C_total_hit 8416174
Core_0_L2C_total_miss 7395592
Core_0_L2C_total_MPKI 73.9559
Core_0_L2C_total_miss_rate 0.467727
Core_0_L2C_demand_access 5522393
Core_0_L2C_demand_hit 2091038
Core_0_L2C_demand_miss 3431355
Core_0_L2C_demand_MPKI 34.3135
Core_0_L2C_demand_miss_rate 0.621353
Core_0_L2C_load_access 4317083
Core_0_L2C_load_hit 1755278
Core_0_L2C_load_miss 2561805
Core_0_L2C_load_MPKI 25.618
Core_0_L2C_load_miss_rate 0.593411
Core_0_L2C_rfo_access 1205310
Core_0_L2C_rfo_hit 335760
Core_0_L2C_rfo_miss 869550
Core_0_L2C_rfo_MPKI 8.6955
Core_0_L2C_rfo_miss_rate 0.721433
Core_0_L2C_prefetch_access 7007188
Core_0_L2C_prefetch_hit 3043079
Core_0_L2C_prefetch_miss 3964109
Core_0_L2C_prefetch_MPKI 39.6411
Core_0_L2C_prefetch_miss_rate 0.56572
Core_0_L2C_writeback_access 3282185
Core_0_L2C_writeback_hit 3282057
Core_0_L2C_writeback_miss 128
Core_0_L2C_writeback_MPKI 0.00128
Core_0_L2C_writeback_miss_rate 3.89984e-05
Core_0_L2C_prefetch_requested 2501896
Core_0_L2C_prefetch_issued 2482139
Core_0_L2C_prefetch_useful 549319
Core_0_L2C_prefetch_useless 201916
Core_0_L2C_prefetch_late 93591
Core_0_L2C_prefetch_fill 2336155
Core_0_L2C_prefetch_too_early 27961
Core_0_L2C_prefetch_too_early_among_fill 0.0119688
Core_0_L2C_prefetch_too_early_among_useless 0.138478
Core_0_L2C_prefetch_pollution_evict 309352
Core_0_L2C_prefetch_pollution_demand 306543
Core_0_L2C_prefetch_pollution_among_prefetch_fill 0.132419
Core_0_L2C_prefetch_accuracy 0.221309
Core_0_L2C_prefetch_coverage 0.137996

Core_0_LLC_total_access 8250908
Core_0_LLC_total_hit 3737500
Core_0_LLC_total_miss 4513408
Core_0_LLC_total_MPKI 45.1341
Core_0_LLC_total_miss_rate 0.54702
Core_0_LLC_demand_access 3257587
Core_0_LLC_demand_hit 1282806
Core_0_LLC_demand_miss 1974781
Core_0_LLC_demand_MPKI 19.7478
Core_0_LLC_demand_miss_rate 0.60621
Core_0_LLC_load_access 2439107
Core_0_LLC_load_hit 1016619
Core_0_LLC_load_miss 1422488
Core_0_LLC_load_MPKI 14.2249
Core_0_LLC_load_miss_rate 0.5832
Core_0_LLC_rfo_access 818480
Core_0_LLC_rfo_hit 266187
Core_0_LLC_rfo_miss 552293
Core_0_LLC_rfo_MPKI 5.52293
Core_0_LLC_rfo_miss_rate 0.674779
Core_0_LLC_prefetch_access 2719121
Core_0_LLC_prefetch_hit 703850
Core_0_LLC_prefetch_miss 2015271
Core_0_LLC_prefetch_MPKI 20.1527
Core_0_LLC_prefetch_miss_rate 0.741148
Core_0_LLC_writeback_access 2274200
Core_0_LLC_writeback_hit 1750844
Core_0_LLC_writeback_miss 523356
Core_0_LLC_writeback_MPKI 5.23356
Core_0_LLC_writeback_miss_rate 0.230128
Core_0_LLC_prefetch_requested 0
Core_0_LLC_prefetch_issued 0
Core_0_LLC_prefetch_useful 0
Core_0_LLC_prefetch_useless 0
Core_0_LLC_prefetch_late 0
Core_0_LLC_prefetch_fill 1904744
Core_0_LLC_prefetch_too_early 0
Core_0_LLC_prefetch_too_early_among_fill 0
Core_0_LLC_prefetch_too_early_among_useless 0
Core_0_LLC_prefetch_pollution_evict 250086
Core_0_LLC_prefetch_pollution_demand 250086
Core_0_LLC_prefetch_pollution_among_prefetch_fill 0.131296
Core_0_LLC_prefetch_accuracy 0
Core_0_LLC_prefetch_coverage 0

[DRAM Statistics]
Channel_0_RQ_row_buffer_hit 151510
Channel_0_RQ_row_buffer_miss 3749554
Channel_0_WQ_row_buffer_hit 219229
Channel_0_WQ_row_buffer_miss 1000292
Channel_0_WQ_full 2621
Channel_0_dbus_congested 13997074
DRAM_total_RQ_row_buffer_hit 151510
DRAM_total_RQ_row_buffer_miss 3749554
DRAM_total_WQ_row_buffer_hit 219229
DRAM_total_WQ_row_buffer_miss 1000292
DRAM_total_WQ_full 2621
DRAM_total_dbus_congested 13997074
DRAM_avg_congested_cycle 6.75794

====== DRAM_RQ_TRAFFIC ========
DRAM_RQ_READ_TRAFFIC_BREAKDOWN:
data_demand_read.count = 1957764
data_demand_read.share = 50.14%

inst_demand_read.count = 3904
inst_demand_read.share = 0.10%

cache_inst_prefetch.count = 0
cache_inst_prefetch.share = 0.00%

cache_data_prefetch.count = 1917869
cache_data_prefetch.share = 49.12%

stlb_data_demand.count = 20817
stlb_data_demand.share = 0.53%

stlb_inst_demand.count = 202
stlb_inst_demand.share = 0.01%

stlb_l1i_pref.count = 0
stlb_l1i_pref.share = 0.00%

stlb_l1d_pref.count = 4193
stlb_l1d_pref.share = 0.11%

DRAM_RQ_READ_TRAFFIC_SUMMARY:
cache_demand.count = 1961668
cache_demand.share = 50.24%

cache_prefetch.count = 1917869
cache_prefetch.share = 49.12%

stlb_demand.count = 21019
stlb_demand.share = 0.54%

stlb_prefetch.count = 4193
stlb_prefetch.share = 0.11%

DRAM_RQ_READ_TRAFFIC_DEBUG:
total_classified_read.count = 3904749
unclassified_read.count = 0
total_read_with_other.count = 3904749

classified_plus_unclassified_check.count = 3904749
dram_rq_read_total_observed.count = 3904749
dram_rq_read_total_observed.per_1K_instructions = 39.0475

STLB_MISS_PTW_DRAM_TOUCH_BREAKDOWN:
stlb_miss_total.count = 183598

stlb_miss_touch_dram.count = 24930
stlb_miss_touch_dram.share = 13.58%

stlb_miss_no_dram_touch.count = 158668
stlb_miss_no_dram_touch.share = 86.42%

STLB_MISS_PTW_DRAM_TOUCH_DEBUG:
stlb_miss_touch_plus_no_touch.count = 183598
stlb_miss_total_check.count = 183598

======STLB miss causes ========
Core_0_STLB_miss_cause_breakdown
Core_0_STLB_cause_Demand_Data_miss 160031
Core_0_STLB_cause_Demand_Data_miss_rate 0.10364
Core_0_STLB_cause_Demand_Instruction_miss 275
Core_0_STLB_cause_Demand_Instruction_miss_rate 0.000178097
Core_0_STLB_cause_L1D_Prefetch_miss 41242
Core_0_STLB_cause_L1D_Prefetch_miss_rate 0.0267094
Core_0_STLB_cause_L1D_Prefetch_Same_Page_miss 29
Core_0_STLB_cause_L1D_Prefetch_Same_Page_miss_rate 1.87812e-05
Core_0_STLB_cause_L1D_Prefetch_Cross_Page_miss 41213
Core_0_STLB_cause_L1D_Prefetch_Cross_Page_miss_rate 0.0266906
Core_0_STLB_cause_L1I_Prefetch_miss 0
Core_0_STLB_cause_L1I_Prefetch_miss_rate 0
Core_0_STLB_cause_Other_miss 0
Core_0_STLB_cause_Other_miss_rate 0
Core_0_STLB_Demand_miss 160306
Core_0_STLB_Demand_miss_rate 0.103818
Core_0_STLB_L1D_Prefetch_miss 41242
Core_0_STLB_L1D_Prefetch_miss_rate 0.0267094
Core_0_STLB_Other_miss 0
Core_0_STLB_Other_miss_rate 0

========== vBerti-TLB Cross-page Flow Stats ==========

Core_0_vBerti_Requested 159275301
Core_0_vBerti_Cross_page_prefetch_in_Requested 21083879
Core_0_vBerti_Same_page_prefetch_in_Requested 138191422
Core_0_vBerti_Cross_page_prefetch_of_Requested 0.132374
Core_0_vBerti_Issued 16882410
Core_0_vBerti_PQ_Drop_Rate 0.894005
Core_0_vBerti_InPQ_Cross_page_prefetch_of_Requested 0.00848226
Core_0_vBerti_Cross_page_PQ_Drop_rate 0.935922
Core_0_vBerti_Cross_page_prefetch_of_Issued 0.0800249

========= DTLB_vBerti Prefetch Stats =========
Core_0_DTLB_demand_access 28573044
Core_0_DTLB_demand_hit 26633071
Core_0_DTLB_demand_miss 1939973
Core_0_DTLB_demand_mshr_merge 474745
Core_0_DTLB_demand_fill 1466626
Core_0_DTLB_demand_miss_rate 0.0678952
Core_0_DTLB_demand_mpki 19.3997
Core_0_DTLB_vberti_prefetch_access 11923210
Core_0_DTLB_vberti_prefetch_hit 11777949
Core_0_DTLB_vberti_prefetch_miss 145261
Core_0_DTLB_vberti_prefetch_mshr_merge 66665
Core_0_DTLB_vberti_prefetch_fill 77198
Core_0_DTLB_vberti_prefetch_miss_rate 0.012183
Core_0_DTLB_vberti_prefetch_mpki 1.45261

=== DTLB_vBerti Same/Cross-page Prefetch Stats ===
Core_0_DTLB_vberti_same_page_prefetch 10881261
Core_0_DTLB_vberti_same_page_prefetch_hit 10880236
Core_0_DTLB_vberti_same_page_prefetch_miss 1025
Core_0_DTLB_vberti_same_page_prefetch_mshr_merge 521
Core_0_DTLB_vberti_same_page_prefetch_fill 463
Core_0_DTLB_vberti_same_page_prefetch_miss_rate 9.41986e-05
Core_0_DTLB_vberti_same_page_prefetch_mpki 0.01025
Core_0_DTLB_vberti_cross_page_prefetch 1041949
Core_0_DTLB_vberti_cross_page_prefetch_hit 897713
Core_0_DTLB_vberti_cross_page_prefetch_miss 144236
Core_0_DTLB_vberti_cross_page_prefetch_mshr_merge 66144
Core_0_DTLB_vberti_cross_page_prefetch_fill 76735
Core_0_DTLB_vberti_cross_page_prefetch_miss_rate 0.138429
Core_0_DTLB_vberti_cross_page_prefetch_mpki 1.44236
Core_0_DTLB_same_page_prefetch_miss_rate 9.41986e-05
Core_0_DTLB_same_page_prefetch_mpki 0.01025
Core_0_DTLB_cross_page_prefetch_miss_rate 0.138429
Core_0_DTLB_cross_page_prefetch_mpki 1.44236
Core_0_DTLB_cross_page_prefetch_issued 1041949
Core_0_DTLB_cross_page_prefetch_lookups 1041949
Core_0_DTLB_cross_page_prefetch_useful 46902
Core_0_DTLB_cross_page_prefetch_useless 31190
Core_0_DTLB_cross_page_prefetch_late 1357
Core_0_DTLB_cross_page_prefetch_too_early 7961
Core_0_DTLB_cross_page_prefetch_too_early_among_fill 0.103747
Core_0_DTLB_cross_page_prefetch_too_early_among_useless 0.255242
Core_0_DTLB_cross_page_prefetch_pollution_evict 27061
Core_0_DTLB_cross_page_prefetch_pollution_demand 24642
Core_0_DTLB_cross_page_prefetch_pollution_among_prefetch_fill 0.352655
Core_0_DTLB_cross_page_prefetch_accuracy 0.0450137
Core_0_DTLB_cross_page_prefetch_coverage 0.0236059

========= STLB_vBerti Prefetch Stats =========
Core_0_STLB_demand_access 1465503
Core_0_STLB_demand_hit 1305197
Core_0_STLB_demand_miss 160306
Core_0_STLB_demand_mshr_merge 0
Core_0_STLB_demand_fill 160306
Core_0_STLB_demand_miss_rate 0.109386
Core_0_STLB_demand_mpki 1.60306
Core_0_STLB_vberti_prefetch_access 78596
Core_0_STLB_vberti_prefetch_hit 37354
Core_0_STLB_vberti_prefetch_miss 41242
Core_0_STLB_vberti_prefetch_mshr_merge 0
Core_0_STLB_vberti_prefetch_fill 29
Core_0_STLB_vberti_prefetch_miss_rate 0.524734
Core_0_STLB_vberti_prefetch_mpki 0.41242

=== STLB_vBerti Same/Cross-page Prefetch Stats ===
Core_0_STLB_vberti_same_page_prefetch 504
Core_0_STLB_vberti_same_page_prefetch_hit 475
Core_0_STLB_vberti_same_page_prefetch_miss 29
Core_0_STLB_vberti_same_page_prefetch_mshr_merge 0
Core_0_STLB_vberti_same_page_prefetch_fill 29
Core_0_STLB_vberti_same_page_prefetch_miss_rate 0.0575397
Core_0_STLB_vberti_same_page_prefetch_mpki 0.00029
Core_0_STLB_vberti_cross_page_prefetch 78092
Core_0_STLB_vberti_cross_page_prefetch_hit 36879
Core_0_STLB_vberti_cross_page_prefetch_miss 41213
Core_0_STLB_vberti_cross_page_prefetch_mshr_merge 0
Core_0_STLB_vberti_cross_page_prefetch_fill 0
Core_0_STLB_vberti_cross_page_prefetch_miss_rate 0.527749
Core_0_STLB_vberti_cross_page_prefetch_mpki 0.41213
Core_0_STLB_same_page_prefetch_miss_rate 0.0575397
Core_0_STLB_same_page_prefetch_mpki 0.00029
Core_0_STLB_cross_page_prefetch_miss_rate 0.527749
Core_0_STLB_cross_page_prefetch_mpki 0.41213
Core_0_STLB_cross_page_prefetch_issued 78092
Core_0_STLB_cross_page_prefetch_lookups 78092
Core_0_STLB_cross_page_prefetch_useful 17950
Core_0_STLB_cross_page_prefetch_useless 13854
Core_0_STLB_cross_page_prefetch_late 17950
Core_0_STLB_cross_page_prefetch_too_early 0
Core_0_STLB_cross_page_prefetch_too_early_among_fill 0
Core_0_STLB_cross_page_prefetch_too_early_among_useless 0
Core_0_STLB_cross_page_prefetch_pollution_evict 0
Core_0_STLB_cross_page_prefetch_pollution_demand 0
Core_0_STLB_cross_page_prefetch_pollution_among_prefetch_fill 0
Core_0_STLB_cross_page_prefetch_accuracy 0.229857
Core_0_STLB_cross_page_prefetch_coverage 0.100698

========= STLB Cross-page Prefetch Buffer Stats =========
Core_0_STLB_raw_demand_miss 160031
Core_0_CP_PB_insert 41213
Core_0_CP_PB_demand_hit 17950
Core_0_STLB_PB_demand_miss 142081
Core_0_CP_PB_coverage 0.112166
Core_0_STLB_raw_demand_mpki 1.60031
Core_0_STLB_PB_demand_mpki 1.42081
Core_0_CP_PB_demand_hit_mpki 0.1795

Core_0_TLB_demand_miss_rate 0.00561039
Core_0_TLB_demand_mpki 1.60306
Core_0_TLB_same_page_prefetch_miss_rate 2.66513e-06
Core_0_TLB_same_page_prefetch_mpki 0.00029
Core_0_TLB_cross_page_prefetch_miss_rate 0.0395538
Core_0_TLB_cross_page_prefetch_mpki 0.41213
Core_0_TLB_cross_page_prefetch_issued 1041949
Core_0_TLB_cross_page_prefetch_lookups 1041949
Core_0_TLB_cross_page_prefetch_useful 6325
Core_0_TLB_cross_page_prefetch_useless 15515
Core_0_TLB_cross_page_prefetch_late 256
Core_0_TLB_cross_page_prefetch_too_early 3467
Core_0_TLB_cross_page_prefetch_too_early_among_fill 0.0451815
Core_0_TLB_cross_page_prefetch_too_early_among_useless 0.223461
Core_0_TLB_cross_page_prefetch_accuracy 0.00607035
Core_0_TLB_cross_page_prefetch_coverage 0.0379581
BERTI TO_L1: 116950097 TO_L2: 96757575 TO_L2_BC_MSHR: 52265043
BERTI AVG_LAT: 101.1 NUM_TRACK_LATENCY: 10351746 NUM_CANT_TRACK_LATENCY: 48
BERTI CROSS_PAGE 28868954 NO_CROSS_PAGE: 184838718
BERTI FOUND_BERTI: 43120400 NO_FOUND_BERTI: 15690080
BERTI AVERAGE_ISSUED: 2.24161
