[VMEM] WARNING: physical memory size is smaller than virtual memory size.

*** ChampSim Multicore Out-of-Order Simulator ***
Warmup Instructions: 50000000
Simulation Instructions: 100000000
Number of CPUs: 1
Page size: 4096
Core 0: /data0/tzh/champsim_traces/Ligra/ligra_BC.com-lj.ungraph.gcc_6.3.0_O3.drop_26750M.length_250M.champsimtrace.xz
VBerti Prefetcher
BERTI HASH ENTANGLING
BERTI IP MASK ffff
Off-chip DRAM Size: 16 GiB Channels: 1 Width: 64-bit Data Rate: 3205 MT/s
Warmup halting CPU 0 at instruction 50000000 cycle 12383689 for remainder of phase
Warmup finished CPU 0 instructions: 50000000 cycles: 12383689 cumulative IPC: 4.038 (Simulation time: 00 hr 02 min 06 sec)
Warmup complete CPU 0 instructions: 50000000 cycles: 12383689 cumulative IPC: 4.038 (Simulation time: 00 hr 02 min 06 sec)
Simulation finished CPU 0 instructions: 100000003 cycles: 178632172 cumulative IPC: 0.5598 (Simulation time: 00 hr 21 min 58 sec)
Simulation complete CPU 0 instructions: 100000003 cycles: 178632172 cumulative IPC: 0.5598 (Simulation time: 00 hr 21 min 58 sec)

ChampSim completed all CPUs

=== Simulation ===
CPU 0 runs /data0/tzh/champsim_traces/Ligra/ligra_BC.com-lj.ungraph.gcc_6.3.0_O3.drop_26750M.length_250M.champsimtrace.xz

Region of Interest Statistics

CPU 0 cumulative IPC: 0.5598 instructions: 100000003 cycles: 178632172
CPU 0 Branch Prediction Accuracy: 90.53% MPKI: 17.7 Average ROB Occupancy at Mispredict: 21.64
Branch type MPKI
BRANCH_DIRECT_JUMP: 9e-05
BRANCH_INDIRECT: 0
BRANCH_CONDITIONAL: 17.7
BRANCH_DIRECT_CALL: 0.00013
BRANCH_INDIRECT_CALL: 0
BRANCH_RETURN: 0.00013

cpu0->cpu0_STLB TOTAL        ACCESS:     536981 HIT:     423599 MISS:     113382 MSHR_MERGE:          0
cpu0->cpu0_STLB LOAD         ACCESS:     536981 HIT:     423599 MISS:     113382 MSHR_MERGE:          0
cpu0->cpu0_STLB RFO          ACCESS:          0 HIT:          0 MISS:          0 MSHR_MERGE:          0
cpu0->cpu0_STLB PREFETCH     ACCESS:          0 HIT:          0 MISS:          0 MSHR_MERGE:          0
cpu0->cpu0_STLB WRITE        ACCESS:          0 HIT:          0 MISS:          0 MSHR_MERGE:          0
cpu0->cpu0_STLB TRANSLATION  ACCESS:          0 HIT:          0 MISS:          0 MSHR_MERGE:          0
cpu0->cpu0_STLB PREFETCH REQUESTED:          0 ISSUED:          0 USEFUL:          0 USELESS:          0 LATE:          0 TOO_EARLY:          0
cpu0->cpu0_STLB AVERAGE MISS LATENCY: 158.4 cycles
cpu0->cpu0_L2C TOTAL        ACCESS:   11796554 HIT:    5478079 MISS:    6318475 MSHR_MERGE:    2234158
cpu0->cpu0_L2C LOAD         ACCESS:    1818463 HIT:     427883 MISS:    1390580 MSHR_MERGE:     297923
cpu0->cpu0_L2C RFO          ACCESS:     216403 HIT:     144363 MISS:      72040 MSHR_MERGE:      19974
cpu0->cpu0_L2C PREFETCH     ACCESS:    8692580 HIT:    3858278 MISS:    4834302 MSHR_MERGE:    1916261
cpu0->cpu0_L2C WRITE        ACCESS:    1020924 HIT:    1020919 MISS:          5 MSHR_MERGE:          0
cpu0->cpu0_L2C TRANSLATION  ACCESS:      48184 HIT:      26636 MISS:      21548 MSHR_MERGE:          0
cpu0->cpu0_L2C PREFETCH REQUESTED:    3322055 ISSUED:    3311275 USEFUL:     714634 USELESS:     216383 LATE:     233280 TOO_EARLY:       1599
cpu0->cpu0_L2C AVERAGE MISS LATENCY: 305.4 cycles
cpu0->cpu0_L1I TOTAL        ACCESS:    4221850 HIT:    4221806 MISS:         44 MSHR_MERGE:          5
cpu0->cpu0_L1I LOAD         ACCESS:    4221850 HIT:    4221806 MISS:         44 MSHR_MERGE:          5
cpu0->cpu0_L1I RFO          ACCESS:          0 HIT:          0 MISS:          0 MSHR_MERGE:          0
cpu0->cpu0_L1I PREFETCH     ACCESS:          0 HIT:          0 MISS:          0 MSHR_MERGE:          0
cpu0->cpu0_L1I WRITE        ACCESS:          0 HIT:          0 MISS:          0 MSHR_MERGE:          0
cpu0->cpu0_L1I TRANSLATION  ACCESS:          0 HIT:          0 MISS:          0 MSHR_MERGE:          0
cpu0->cpu0_L1I PREFETCH REQUESTED:          0 ISSUED:          0 USEFUL:          0 USELESS:          0 LATE:          0 TOO_EARLY:          0
cpu0->cpu0_L1I AVERAGE MISS LATENCY: 245.8 cycles
cpu0->cpu0_L1D TOTAL        ACCESS:   56953507 HIT:   47034357 MISS:    9919150 MSHR_MERGE:    2372192
cpu0->cpu0_L1D LOAD         ACCESS:   14482552 HIT:   12172201 MISS:    2310351 MSHR_MERGE:     491927
cpu0->cpu0_L1D RFO          ACCESS:          0 HIT:          0 MISS:          0 MSHR_MERGE:          0
cpu0->cpu0_L1D PREFETCH     ACCESS:   28124585 HIT:   22597050 MISS:    5527535 MSHR_MERGE:      63588
cpu0->cpu0_L1D WRITE        ACCESS:   14131695 HIT:   12098885 MISS:    2032810 MSHR_MERGE:    1816407
cpu0->cpu0_L1D TRANSLATION  ACCESS:     214675 HIT:     166221 MISS:      48454 MSHR_MERGE:        270
cpu0->cpu0_L1D PREFETCH REQUESTED:  194379999 ISSUED:   28124585 USEFUL:    1316831 USELESS:     130309 LATE:     114448 TOO_EARLY:       1603
cpu0->cpu0_L1D AVERAGE MISS LATENCY: 229.9 cycles
cpu0->cpu0_ITLB TOTAL        ACCESS:    4217625 HIT:    4217622 MISS:          3 MSHR_MERGE:          1
cpu0->cpu0_ITLB LOAD         ACCESS:    4217625 HIT:    4217622 MISS:          3 MSHR_MERGE:          1
cpu0->cpu0_ITLB RFO          ACCESS:          0 HIT:          0 MISS:          0 MSHR_MERGE:          0
cpu0->cpu0_ITLB PREFETCH     ACCESS:          0 HIT:          0 MISS:          0 MSHR_MERGE:          0
cpu0->cpu0_ITLB WRITE        ACCESS:          0 HIT:          0 MISS:          0 MSHR_MERGE:          0
cpu0->cpu0_ITLB TRANSLATION  ACCESS:          0 HIT:          0 MISS:          0 MSHR_MERGE:          0
cpu0->cpu0_ITLB PREFETCH REQUESTED:          0 ISSUED:          0 USEFUL:          0 USELESS:          0 LATE:          0 TOO_EARLY:          0
cpu0->cpu0_ITLB AVERAGE MISS LATENCY: 580.5 cycles
cpu0->cpu0_DTLB TOTAL        ACCESS:   45394196 HIT:   44634290 MISS:     759906 MSHR_MERGE:     222927
cpu0->cpu0_DTLB LOAD         ACCESS:   45394196 HIT:   44634290 MISS:     759906 MSHR_MERGE:     222927
cpu0->cpu0_DTLB RFO          ACCESS:          0 HIT:          0 MISS:          0 MSHR_MERGE:          0
cpu0->cpu0_DTLB PREFETCH     ACCESS:          0 HIT:          0 MISS:          0 MSHR_MERGE:          0
cpu0->cpu0_DTLB WRITE        ACCESS:          0 HIT:          0 MISS:          0 MSHR_MERGE:          0
cpu0->cpu0_DTLB TRANSLATION  ACCESS:          0 HIT:          0 MISS:          0 MSHR_MERGE:          0
cpu0->cpu0_DTLB PREFETCH REQUESTED:          0 ISSUED:          0 USEFUL:          0 USELESS:          0 LATE:          0 TOO_EARLY:          0
cpu0->cpu0_DTLB AVERAGE MISS LATENCY: 36.97 cycles
cpu0->LLC TOTAL        ACCESS:    5109629 HIT:     616476 MISS:    4493153 MSHR_MERGE:     212628
cpu0->LLC LOAD         ACCESS:    1092657 HIT:     175322 MISS:     917335 MSHR_MERGE:      50394
cpu0->LLC RFO          ACCESS:      52066 HIT:       8737 MISS:      43329 MSHR_MERGE:        108
cpu0->LLC PREFETCH     ACCESS:    2917925 HIT:     121376 MISS:    2796549 MSHR_MERGE:     162126
cpu0->LLC WRITE        ACCESS:    1025433 HIT:     300475 MISS:     724958 MSHR_MERGE:          0
cpu0->LLC TRANSLATION  ACCESS:      21548 HIT:      10566 MISS:      10982 MSHR_MERGE:          0
cpu0->LLC PREFETCH REQUESTED:          0 ISSUED:          0 USEFUL:          0 USELESS:          0 LATE:          0 TOO_EARLY:          0
cpu0->LLC AVERAGE MISS LATENCY: 199 cycles

DRAM Statistics

Channel 0 RQ ROW_BUFFER_HIT:     190648
  ROW_BUFFER_MISS:    3364905
  AVG DBUS CONGESTED CYCLE: 7.066
Channel 0 WQ ROW_BUFFER_HIT:      99516
  ROW_BUFFER_MISS:     943473
  FULL:        178
Channel 0 REFRESHES ISSUED:      14886

[ROI Statistics]
[System Configuration]
num_cpus 1
cpu_freq 4000
fetch_width 6
decode_width 6
dispatch_width 6
execute_width 6
lq_width 2
sq_width 2
retire_width 6
scheduler_size 128
branch_mispredict_penalty 15
rob_size 352
lq_size 128
sq_size 72
ifetch_buffer_size 64
decode_buffer_size 32
dispatch_buffer_size 32
register_file_size 288
decode_latency 1
dispatch_latency 1
schedule_latency 1
execute_latency 1
page_size 4096
block_size 64
core_0_itlb_set 16
core_0_itlb_way 4
core_0_itlb_rq_size 16
core_0_itlb_wq_size 16
core_0_itlb_pq_size 0
core_0_itlb_mshr_size 8
core_0_itlb_hit_latency 1
core_0_itlb_fill_latency 1
core_0_itlb_max_tag_check 2
core_0_itlb_max_fill 2
core_0_dtlb_set 16
core_0_dtlb_way 4
core_0_dtlb_rq_size 16
core_0_dtlb_wq_size 16
core_0_dtlb_pq_size 0
core_0_dtlb_mshr_size 8
core_0_dtlb_hit_latency 1
core_0_dtlb_fill_latency 1
core_0_dtlb_max_tag_check 2
core_0_dtlb_max_fill 2
core_0_stlb_set 128
core_0_stlb_way 12
core_0_stlb_rq_size 32
core_0_stlb_wq_size 32
core_0_stlb_pq_size 0
core_0_stlb_mshr_size 16
core_0_stlb_hit_latency 4
core_0_stlb_fill_latency 4
core_0_stlb_max_tag_check 1
core_0_stlb_max_fill 1
core_0_l1i_set 64
core_0_l1i_way 8
core_0_l1i_rq_size 64
core_0_l1i_wq_size 64
core_0_l1i_pq_size 32
core_0_l1i_mshr_size 8
core_0_l1i_hit_latency 2
core_0_l1i_fill_latency 2
core_0_l1i_max_tag_check 2
core_0_l1i_max_fill 2
core_0_l1d_set 64
core_0_l1d_way 12
core_0_l1d_rq_size 64
core_0_l1d_wq_size 64
core_0_l1d_pq_size 8
core_0_l1d_mshr_size 16
core_0_l1d_hit_latency 2
core_0_l1d_fill_latency 3
core_0_l1d_max_tag_check 2
core_0_l1d_max_fill 2
core_0_l2c_set 1024
core_0_l2c_way 8
core_0_l2c_rq_size 32
core_0_l2c_wq_size 32
core_0_l2c_pq_size 16
core_0_l2c_mshr_size 32
core_0_l2c_hit_latency 5
core_0_l2c_fill_latency 5
core_0_l2c_max_tag_check 1
core_0_l2c_max_fill 1
llc_set 2048
llc_way 16
llc_rq_size 32
llc_wq_size 32
llc_pq_size 32
llc_mshr_size 64
llc_hit_latency 10
llc_fill_latency 10
llc_max_tag_check 1
llc_max_fill 1
dram_channels 1
dram_ranks 1
dram_bankgroups 8
dram_banks 4
dram_rows 65536
dram_columns 1024
dram_channel_width 8
dram_rq_size 64
dram_wq_size 64
dram_size 17179869184
core_0_itlb_prefetcher no
core_0_dtlb_prefetcher no
core_0_stlb_prefetcher no
core_0_l1i_prefetcher next_line
core_0_l1d_prefetcher vberti
core_0_l2c_prefetcher ip_stride
llc_prefetcher no
llc_replacement drrip

Core_0_instructions 100000003
Core_0_cycles 178632172
Core_0_IPC 0.55981
Core_0_branch_prediction_accuracy 90.5266
Core_0_branch_MPKI 17.6998
Core_0_average_ROB_occupancy_at_mispredict 21.6421

Core_0_ITLB_total_access 4217625
Core_0_ITLB_total_hit 4217622
Core_0_ITLB_total_miss 3
Core_0_ITLB_total_MPKI 3e-05
Core_0_ITLB_total_miss_rate 7.11301e-07
Core_0_ITLB_demand_access 4217625
Core_0_ITLB_demand_hit 4217622
Core_0_ITLB_demand_miss 3
Core_0_ITLB_demand_MPKI 3e-05
Core_0_ITLB_demand_miss_rate 7.11301e-07
Core_0_ITLB_load_access 4217625
Core_0_ITLB_load_hit 4217622
Core_0_ITLB_load_miss 3
Core_0_ITLB_load_MPKI 3e-05
Core_0_ITLB_load_miss_rate 7.11301e-07
Core_0_ITLB_rfo_access 0
Core_0_ITLB_rfo_hit 0
Core_0_ITLB_rfo_miss 0
Core_0_ITLB_rfo_MPKI 0
Core_0_ITLB_rfo_miss_rate 0
Core_0_ITLB_prefetch_access 0
Core_0_ITLB_prefetch_hit 0
Core_0_ITLB_prefetch_miss 0
Core_0_ITLB_prefetch_MPKI 0
Core_0_ITLB_prefetch_miss_rate 0
Core_0_ITLB_writeback_access 0
Core_0_ITLB_writeback_hit 0
Core_0_ITLB_writeback_miss 0
Core_0_ITLB_writeback_MPKI 0
Core_0_ITLB_writeback_miss_rate 0
Core_0_ITLB_prefetch_requested 0
Core_0_ITLB_prefetch_issued 0
Core_0_ITLB_prefetch_useful 0
Core_0_ITLB_prefetch_useless 0
Core_0_ITLB_prefetch_late 0
Core_0_ITLB_prefetch_fill 0
Core_0_ITLB_prefetch_too_early 0
Core_0_ITLB_prefetch_too_early_among_fill 0
Core_0_ITLB_prefetch_too_early_among_useless 0
Core_0_ITLB_prefetch_pollution_evict 0
Core_0_ITLB_prefetch_pollution_demand 0
Core_0_ITLB_prefetch_pollution_among_prefetch_fill 0
Core_0_ITLB_prefetch_accuracy 0
Core_0_ITLB_prefetch_coverage 0

Core_0_DTLB_total_access 45394196
Core_0_DTLB_total_hit 44634290
Core_0_DTLB_total_miss 759906
Core_0_DTLB_total_MPKI 7.59906
Core_0_DTLB_total_miss_rate 0.0167402
Core_0_DTLB_demand_access 45394196
Core_0_DTLB_demand_hit 44634290
Core_0_DTLB_demand_miss 759906
Core_0_DTLB_demand_MPKI 7.59906
Core_0_DTLB_demand_miss_rate 0.0167402
Core_0_DTLB_load_access 45394196
Core_0_DTLB_load_hit 44634290
Core_0_DTLB_load_miss 759906
Core_0_DTLB_load_MPKI 7.59906
Core_0_DTLB_load_miss_rate 0.0167402
Core_0_DTLB_rfo_access 0
Core_0_DTLB_rfo_hit 0
Core_0_DTLB_rfo_miss 0
Core_0_DTLB_rfo_MPKI 0
Core_0_DTLB_rfo_miss_rate 0
Core_0_DTLB_prefetch_access 0
Core_0_DTLB_prefetch_hit 0
Core_0_DTLB_prefetch_miss 0
Core_0_DTLB_prefetch_MPKI 0
Core_0_DTLB_prefetch_miss_rate 0
Core_0_DTLB_writeback_access 0
Core_0_DTLB_writeback_hit 0
Core_0_DTLB_writeback_miss 0
Core_0_DTLB_writeback_MPKI 0
Core_0_DTLB_writeback_miss_rate 0
Core_0_DTLB_prefetch_requested 0
Core_0_DTLB_prefetch_issued 0
Core_0_DTLB_prefetch_useful 0
Core_0_DTLB_prefetch_useless 0
Core_0_DTLB_prefetch_late 0
Core_0_DTLB_prefetch_fill 0
Core_0_DTLB_prefetch_too_early 0
Core_0_DTLB_prefetch_too_early_among_fill 0
Core_0_DTLB_prefetch_too_early_among_useless 0
Core_0_DTLB_prefetch_pollution_evict 0
Core_0_DTLB_prefetch_pollution_demand 0
Core_0_DTLB_prefetch_pollution_among_prefetch_fill 0
Core_0_DTLB_prefetch_accuracy 0
Core_0_DTLB_prefetch_coverage 0

Core_0_STLB_total_access 536981
Core_0_STLB_total_hit 423599
Core_0_STLB_total_miss 113382
Core_0_STLB_total_MPKI 1.13382
Core_0_STLB_total_miss_rate 0.211147
Core_0_STLB_demand_access 536981
Core_0_STLB_demand_hit 423599
Core_0_STLB_demand_miss 113382
Core_0_STLB_demand_MPKI 1.13382
Core_0_STLB_demand_miss_rate 0.211147
Core_0_STLB_load_access 536981
Core_0_STLB_load_hit 423599
Core_0_STLB_load_miss 113382
Core_0_STLB_load_MPKI 1.13382
Core_0_STLB_load_miss_rate 0.211147
Core_0_STLB_rfo_access 0
Core_0_STLB_rfo_hit 0
Core_0_STLB_rfo_miss 0
Core_0_STLB_rfo_MPKI 0
Core_0_STLB_rfo_miss_rate 0
Core_0_STLB_prefetch_access 0
Core_0_STLB_prefetch_hit 0
Core_0_STLB_prefetch_miss 0
Core_0_STLB_prefetch_MPKI 0
Core_0_STLB_prefetch_miss_rate 0
Core_0_STLB_writeback_access 0
Core_0_STLB_writeback_hit 0
Core_0_STLB_writeback_miss 0
Core_0_STLB_writeback_MPKI 0
Core_0_STLB_writeback_miss_rate 0
Core_0_STLB_prefetch_requested 0
Core_0_STLB_prefetch_issued 0
Core_0_STLB_prefetch_useful 0
Core_0_STLB_prefetch_useless 0
Core_0_STLB_prefetch_late 0
Core_0_STLB_prefetch_fill 0
Core_0_STLB_prefetch_too_early 0
Core_0_STLB_prefetch_too_early_among_fill 0
Core_0_STLB_prefetch_too_early_among_useless 0
Core_0_STLB_prefetch_pollution_evict 0
Core_0_STLB_prefetch_pollution_demand 0
Core_0_STLB_prefetch_pollution_among_prefetch_fill 0
Core_0_STLB_prefetch_accuracy 0
Core_0_STLB_prefetch_coverage 0

Core_0_L1I_total_access 4221850
Core_0_L1I_total_hit 4221806
Core_0_L1I_total_miss 44
Core_0_L1I_total_MPKI 0.00044
Core_0_L1I_total_miss_rate 1.0422e-05
Core_0_L1I_demand_access 4221850
Core_0_L1I_demand_hit 4221806
Core_0_L1I_demand_miss 44
Core_0_L1I_demand_MPKI 0.00044
Core_0_L1I_demand_miss_rate 1.0422e-05
Core_0_L1I_load_access 4221850
Core_0_L1I_load_hit 4221806
Core_0_L1I_load_miss 44
Core_0_L1I_load_MPKI 0.00044
Core_0_L1I_load_miss_rate 1.0422e-05
Core_0_L1I_rfo_access 0
Core_0_L1I_rfo_hit 0
Core_0_L1I_rfo_miss 0
Core_0_L1I_rfo_MPKI 0
Core_0_L1I_rfo_miss_rate 0
Core_0_L1I_prefetch_access 0
Core_0_L1I_prefetch_hit 0
Core_0_L1I_prefetch_miss 0
Core_0_L1I_prefetch_MPKI 0
Core_0_L1I_prefetch_miss_rate 0
Core_0_L1I_writeback_access 0
Core_0_L1I_writeback_hit 0
Core_0_L1I_writeback_miss 0
Core_0_L1I_writeback_MPKI 0
Core_0_L1I_writeback_miss_rate 0
Core_0_L1I_prefetch_requested 0
Core_0_L1I_prefetch_issued 0
Core_0_L1I_prefetch_useful 0
Core_0_L1I_prefetch_useless 0
Core_0_L1I_prefetch_late 0
Core_0_L1I_prefetch_fill 0
Core_0_L1I_prefetch_too_early 0
Core_0_L1I_prefetch_too_early_among_fill 0
Core_0_L1I_prefetch_too_early_among_useless 0
Core_0_L1I_prefetch_pollution_evict 0
Core_0_L1I_prefetch_pollution_demand 0
Core_0_L1I_prefetch_pollution_among_prefetch_fill 0
Core_0_L1I_prefetch_accuracy 0
Core_0_L1I_prefetch_coverage 0

Core_0_L1D_total_access 56738832
Core_0_L1D_total_hit 46868136
Core_0_L1D_total_miss 9870696
Core_0_L1D_total_MPKI 98.707
Core_0_L1D_total_miss_rate 0.173967
Core_0_L1D_demand_access 14482552
Core_0_L1D_demand_hit 12172201
Core_0_L1D_demand_miss 2310351
Core_0_L1D_demand_MPKI 23.1035
Core_0_L1D_demand_miss_rate 0.159527
Core_0_L1D_load_access 14482552
Core_0_L1D_load_hit 12172201
Core_0_L1D_load_miss 2310351
Core_0_L1D_load_MPKI 23.1035
Core_0_L1D_load_miss_rate 0.159527
Core_0_L1D_rfo_access 0
Core_0_L1D_rfo_hit 0
Core_0_L1D_rfo_miss 0
Core_0_L1D_rfo_MPKI 0
Core_0_L1D_rfo_miss_rate 0
Core_0_L1D_prefetch_access 28124585
Core_0_L1D_prefetch_hit 22597050
Core_0_L1D_prefetch_miss 5527535
Core_0_L1D_prefetch_MPKI 55.2753
Core_0_L1D_prefetch_miss_rate 0.196537
Core_0_L1D_writeback_access 14131695
Core_0_L1D_writeback_hit 12098885
Core_0_L1D_writeback_miss 2032810
Core_0_L1D_writeback_MPKI 20.3281
Core_0_L1D_writeback_miss_rate 0.143848
Core_0_L1D_prefetch_requested 194379999
Core_0_L1D_prefetch_issued 28124585
Core_0_L1D_prefetch_useful 1316831
Core_0_L1D_prefetch_useless 130309
Core_0_L1D_prefetch_late 114448
Core_0_L1D_prefetch_fill 1332760
Core_0_L1D_prefetch_too_early 1603
Core_0_L1D_prefetch_too_early_among_fill 0.00120277
Core_0_L1D_prefetch_too_early_among_useless 0.0123015
Core_0_L1D_prefetch_pollution_evict 25290
Core_0_L1D_prefetch_pollution_demand 25028
Core_0_L1D_prefetch_pollution_among_prefetch_fill 0.0189757
Core_0_L1D_prefetch_accuracy 0.0468213
Core_0_L1D_prefetch_coverage 0.363045

Core_0_L2C_total_access 11748370
Core_0_L2C_total_hit 5451443
Core_0_L2C_total_miss 6296927
Core_0_L2C_total_MPKI 62.9693
Core_0_L2C_total_miss_rate 0.535983
Core_0_L2C_demand_access 2034866
Core_0_L2C_demand_hit 572246
Core_0_L2C_demand_miss 1462620
Core_0_L2C_demand_MPKI 14.6262
Core_0_L2C_demand_miss_rate 0.71878
Core_0_L2C_load_access 1818463
Core_0_L2C_load_hit 427883
Core_0_L2C_load_miss 1390580
Core_0_L2C_load_MPKI 13.9058
Core_0_L2C_load_miss_rate 0.764701
Core_0_L2C_rfo_access 216403
Core_0_L2C_rfo_hit 144363
Core_0_L2C_rfo_miss 72040
Core_0_L2C_rfo_MPKI 0.7204
Core_0_L2C_rfo_miss_rate 0.332897
Core_0_L2C_prefetch_access 8692580
Core_0_L2C_prefetch_hit 3858278
Core_0_L2C_prefetch_miss 4834302
Core_0_L2C_prefetch_MPKI 48.343
Core_0_L2C_prefetch_miss_rate 0.556141
Core_0_L2C_writeback_access 1020924
Core_0_L2C_writeback_hit 1020919
Core_0_L2C_writeback_miss 5
Core_0_L2C_writeback_MPKI 5e-05
Core_0_L2C_writeback_miss_rate 4.89752e-06
Core_0_L2C_prefetch_requested 3322055
Core_0_L2C_prefetch_issued 3311275
Core_0_L2C_prefetch_useful 714634
Core_0_L2C_prefetch_useless 216383
Core_0_L2C_prefetch_late 233280
Core_0_L2C_prefetch_fill 2211067
Core_0_L2C_prefetch_too_early 1599
Core_0_L2C_prefetch_too_early_among_fill 0.00072318
Core_0_L2C_prefetch_too_early_among_useless 0.00738967
Core_0_L2C_prefetch_pollution_evict 50342
Core_0_L2C_prefetch_pollution_demand 50150
Core_0_L2C_prefetch_pollution_among_prefetch_fill 0.0227682
Core_0_L2C_prefetch_accuracy 0.215818
Core_0_L2C_prefetch_coverage 0.328227

Core_0_LLC_total_access 5088081
Core_0_LLC_total_hit 605910
Core_0_LLC_total_miss 4482171
Core_0_LLC_total_MPKI 44.8217
Core_0_LLC_total_miss_rate 0.880916
Core_0_LLC_demand_access 1144723
Core_0_LLC_demand_hit 184059
Core_0_LLC_demand_miss 960664
Core_0_LLC_demand_MPKI 9.60664
Core_0_LLC_demand_miss_rate 0.839211
Core_0_LLC_load_access 1092657
Core_0_LLC_load_hit 175322
Core_0_LLC_load_miss 917335
Core_0_LLC_load_MPKI 9.17335
Core_0_LLC_load_miss_rate 0.839545
Core_0_LLC_rfo_access 52066
Core_0_LLC_rfo_hit 8737
Core_0_LLC_rfo_miss 43329
Core_0_LLC_rfo_MPKI 0.43329
Core_0_LLC_rfo_miss_rate 0.832194
Core_0_LLC_prefetch_access 2917925
Core_0_LLC_prefetch_hit 121376
Core_0_LLC_prefetch_miss 2796549
Core_0_LLC_prefetch_MPKI 27.9655
Core_0_LLC_prefetch_miss_rate 0.958403
Core_0_LLC_writeback_access 1025433
Core_0_LLC_writeback_hit 300475
Core_0_LLC_writeback_miss 724958
Core_0_LLC_writeback_MPKI 7.24958
Core_0_LLC_writeback_miss_rate 0.706977
Core_0_LLC_prefetch_requested 0
Core_0_LLC_prefetch_issued 0
Core_0_LLC_prefetch_useful 0
Core_0_LLC_prefetch_useless 0
Core_0_LLC_prefetch_late 0
Core_0_LLC_prefetch_fill 2583920
Core_0_LLC_prefetch_too_early 0
Core_0_LLC_prefetch_too_early_among_fill 0
Core_0_LLC_prefetch_too_early_among_useless 0
Core_0_LLC_prefetch_pollution_evict 64296
Core_0_LLC_prefetch_pollution_demand 64296
Core_0_LLC_prefetch_pollution_among_prefetch_fill 0.0248831
Core_0_LLC_prefetch_accuracy 0
Core_0_LLC_prefetch_coverage 0

[DRAM Statistics]
Channel_0_RQ_row_buffer_hit 190648
Channel_0_RQ_row_buffer_miss 3364905
Channel_0_WQ_row_buffer_hit 99516
Channel_0_WQ_row_buffer_miss 943473
Channel_0_WQ_full 178
Channel_0_dbus_congested 13141884
DRAM_total_RQ_row_buffer_hit 190648
DRAM_total_RQ_row_buffer_miss 3364905
DRAM_total_WQ_row_buffer_hit 99516
DRAM_total_WQ_row_buffer_miss 943473
DRAM_total_WQ_full 178
DRAM_total_dbus_congested 13141884
DRAM_avg_congested_cycle 7.06576

====== DRAM_RQ_TRAFFIC ========
DRAM_RQ_READ_TRAFFIC_BREAKDOWN:
data_demand_read.count = 910123
data_demand_read.share = 25.60%

inst_demand_read.count = 39
inst_demand_read.share = 0.00%

cache_inst_prefetch.count = 0
cache_inst_prefetch.share = 0.00%

cache_data_prefetch.count = 2634423
cache_data_prefetch.share = 74.09%

stlb_data_demand.count = 5357
stlb_data_demand.share = 0.15%

stlb_inst_demand.count = 3
stlb_inst_demand.share = 0.00%

stlb_l1i_pref.count = 0
stlb_l1i_pref.share = 0.00%

stlb_l1d_pref.count = 5622
stlb_l1d_pref.share = 0.16%

DRAM_RQ_READ_TRAFFIC_SUMMARY:
cache_demand.count = 910162
cache_demand.share = 25.60%

cache_prefetch.count = 2634423
cache_prefetch.share = 74.09%

stlb_demand.count = 5360
stlb_demand.share = 0.15%

stlb_prefetch.count = 5622
stlb_prefetch.share = 0.16%

DRAM_RQ_READ_TRAFFIC_DEBUG:
total_classified_read.count = 3555567
unclassified_read.count = 0
total_read_with_other.count = 3555567

classified_plus_unclassified_check.count = 3555567
dram_rq_read_total_observed.count = 3555567
dram_rq_read_total_observed.per_1K_instructions = 35.5557

STLB_MISS_PTW_DRAM_TOUCH_BREAKDOWN:
stlb_miss_total.count = 107661

stlb_miss_touch_dram.count = 10863
stlb_miss_touch_dram.share = 10.09%

stlb_miss_no_dram_touch.count = 96798
stlb_miss_no_dram_touch.share = 89.91%

STLB_MISS_PTW_DRAM_TOUCH_DEBUG:
stlb_miss_touch_plus_no_touch.count = 107661
stlb_miss_total_check.count = 107661

======STLB miss causes ========
Core_0_STLB_miss_cause_breakdown
Core_0_STLB_cause_Demand_Data_miss 70441
Core_0_STLB_cause_Demand_Data_miss_rate 0.13118
Core_0_STLB_cause_Demand_Instruction_miss 2
Core_0_STLB_cause_Demand_Instruction_miss_rate 3.72453e-06
Core_0_STLB_cause_L1D_Prefetch_miss 42939
Core_0_STLB_cause_L1D_Prefetch_miss_rate 0.0799637
Core_0_STLB_cause_L1D_Prefetch_Same_Page_miss 63
Core_0_STLB_cause_L1D_Prefetch_Same_Page_miss_rate 0.000117323
Core_0_STLB_cause_L1D_Prefetch_Cross_Page_miss 42876
Core_0_STLB_cause_L1D_Prefetch_Cross_Page_miss_rate 0.0798464
Core_0_STLB_cause_L1I_Prefetch_miss 0
Core_0_STLB_cause_L1I_Prefetch_miss_rate 0
Core_0_STLB_cause_Other_miss 0
Core_0_STLB_cause_Other_miss_rate 0
Core_0_STLB_Demand_miss 70443
Core_0_STLB_Demand_miss_rate 0.131183
Core_0_STLB_L1D_Prefetch_miss 42939
Core_0_STLB_L1D_Prefetch_miss_rate 0.0799637
Core_0_STLB_Other_miss 0
Core_0_STLB_Other_miss_rate 0

========== vBerti-TLB Cross-page Flow Stats ==========

Core_0_vBerti_Requested 194379999
Core_0_vBerti_Cross_page_prefetch_in_Requested 25874464
Core_0_vBerti_Same_page_prefetch_in_Requested 168505535
Core_0_vBerti_Cross_page_prefetch_of_Requested 0.133113
Core_0_vBerti_Issued 28124585
Core_0_vBerti_PQ_Drop_Rate 0.855311
Core_0_vBerti_InPQ_Cross_page_prefetch_of_Requested 0.0100922
Core_0_vBerti_Cross_page_PQ_Drop_rate 0.924183
Core_0_vBerti_Cross_page_prefetch_of_Issued 0.0697512

========= DTLB_vBerti Prefetch Stats =========
Core_0_DTLB_demand_access 26464599
Core_0_DTLB_demand_hit 25833908
Core_0_DTLB_demand_miss 630691
Core_0_DTLB_demand_mshr_merge 138458
Core_0_DTLB_demand_fill 498286
Core_0_DTLB_demand_miss_rate 0.0238315
Core_0_DTLB_demand_mpki 6.30691
Core_0_DTLB_vberti_prefetch_access 18929597
Core_0_DTLB_vberti_prefetch_hit 18800382
Core_0_DTLB_vberti_prefetch_miss 129215
Core_0_DTLB_vberti_prefetch_mshr_merge 84469
Core_0_DTLB_vberti_prefetch_fill 38693
Core_0_DTLB_vberti_prefetch_miss_rate 0.00682608
Core_0_DTLB_vberti_prefetch_mpki 1.29215

=== DTLB_vBerti Same/Cross-page Prefetch Stats ===
Core_0_DTLB_vberti_same_page_prefetch 17464382
Core_0_DTLB_vberti_same_page_prefetch_hit 17464133
Core_0_DTLB_vberti_same_page_prefetch_miss 249
Core_0_DTLB_vberti_same_page_prefetch_mshr_merge 76
Core_0_DTLB_vberti_same_page_prefetch_fill 170
Core_0_DTLB_vberti_same_page_prefetch_miss_rate 1.42576e-05
Core_0_DTLB_vberti_same_page_prefetch_mpki 0.00249
Core_0_DTLB_vberti_cross_page_prefetch 1465215
Core_0_DTLB_vberti_cross_page_prefetch_hit 1336249
Core_0_DTLB_vberti_cross_page_prefetch_miss 128966
Core_0_DTLB_vberti_cross_page_prefetch_mshr_merge 84393
Core_0_DTLB_vberti_cross_page_prefetch_fill 38523
Core_0_DTLB_vberti_cross_page_prefetch_miss_rate 0.0880185
Core_0_DTLB_vberti_cross_page_prefetch_mpki 1.28966
Core_0_DTLB_same_page_prefetch_miss_rate 1.42576e-05
Core_0_DTLB_same_page_prefetch_mpki 0.00249
Core_0_DTLB_cross_page_prefetch_miss_rate 0.0880185
Core_0_DTLB_cross_page_prefetch_mpki 1.28966
Core_0_DTLB_cross_page_prefetch_issued 1465215
Core_0_DTLB_cross_page_prefetch_lookups 1465215
Core_0_DTLB_cross_page_prefetch_useful 42270
Core_0_DTLB_cross_page_prefetch_useless 2303
Core_0_DTLB_cross_page_prefetch_late 6050
Core_0_DTLB_cross_page_prefetch_too_early 759
Core_0_DTLB_cross_page_prefetch_too_early_among_fill 0.0197025
Core_0_DTLB_cross_page_prefetch_too_early_among_useless 0.32957
Core_0_DTLB_cross_page_prefetch_pollution_evict 10390
Core_0_DTLB_cross_page_prefetch_pollution_demand 10248
Core_0_DTLB_cross_page_prefetch_pollution_among_prefetch_fill 0.269709
Core_0_DTLB_cross_page_prefetch_accuracy 0.028849
Core_0_DTLB_cross_page_prefetch_coverage 0.062812

========= STLB_vBerti Prefetch Stats =========
Core_0_STLB_demand_access 492235
Core_0_STLB_demand_hit 421792
Core_0_STLB_demand_miss 70443
Core_0_STLB_demand_mshr_merge 0
Core_0_STLB_demand_fill 70443
Core_0_STLB_demand_miss_rate 0.143108
Core_0_STLB_demand_mpki 0.70443
Core_0_STLB_vberti_prefetch_access 44746
Core_0_STLB_vberti_prefetch_hit 1807
Core_0_STLB_vberti_prefetch_miss 42939
Core_0_STLB_vberti_prefetch_mshr_merge 0
Core_0_STLB_vberti_prefetch_fill 63
Core_0_STLB_vberti_prefetch_miss_rate 0.959617
Core_0_STLB_vberti_prefetch_mpki 0.42939

=== STLB_vBerti Same/Cross-page Prefetch Stats ===
Core_0_STLB_vberti_same_page_prefetch 173
Core_0_STLB_vberti_same_page_prefetch_hit 110
Core_0_STLB_vberti_same_page_prefetch_miss 63
Core_0_STLB_vberti_same_page_prefetch_mshr_merge 0
Core_0_STLB_vberti_same_page_prefetch_fill 63
Core_0_STLB_vberti_same_page_prefetch_miss_rate 0.364162
Core_0_STLB_vberti_same_page_prefetch_mpki 0.00063
Core_0_STLB_vberti_cross_page_prefetch 44573
Core_0_STLB_vberti_cross_page_prefetch_hit 1697
Core_0_STLB_vberti_cross_page_prefetch_miss 42876
Core_0_STLB_vberti_cross_page_prefetch_mshr_merge 0
Core_0_STLB_vberti_cross_page_prefetch_fill 0
Core_0_STLB_vberti_cross_page_prefetch_miss_rate 0.961928
Core_0_STLB_vberti_cross_page_prefetch_mpki 0.42876
Core_0_STLB_same_page_prefetch_miss_rate 0.364162
Core_0_STLB_same_page_prefetch_mpki 0.00063
Core_0_STLB_cross_page_prefetch_miss_rate 0.961928
Core_0_STLB_cross_page_prefetch_mpki 0.42876
Core_0_STLB_cross_page_prefetch_issued 44573
Core_0_STLB_cross_page_prefetch_lookups 44573
Core_0_STLB_cross_page_prefetch_useful 5721
Core_0_STLB_cross_page_prefetch_useless 35944
Core_0_STLB_cross_page_prefetch_late 5721
Core_0_STLB_cross_page_prefetch_too_early 0
Core_0_STLB_cross_page_prefetch_too_early_among_fill 0
Core_0_STLB_cross_page_prefetch_too_early_among_useless 0
Core_0_STLB_cross_page_prefetch_pollution_evict 0
Core_0_STLB_cross_page_prefetch_pollution_demand 0
Core_0_STLB_cross_page_prefetch_pollution_among_prefetch_fill 0
Core_0_STLB_cross_page_prefetch_accuracy 0.128351
Core_0_STLB_cross_page_prefetch_coverage 0.0751142

========= STLB Cross-page Prefetch Buffer Stats =========
Core_0_STLB_raw_demand_miss 70441
Core_0_CP_PB_insert 42876
Core_0_CP_PB_demand_hit 5721
Core_0_STLB_PB_demand_miss 64720
Core_0_CP_PB_coverage 0.0812169
Core_0_STLB_raw_demand_mpki 0.70441
Core_0_STLB_PB_demand_mpki 0.6472
Core_0_CP_PB_demand_hit_mpki 0.05721

Core_0_TLB_demand_miss_rate 0.00266178
Core_0_TLB_demand_mpki 0.70443
Core_0_TLB_same_page_prefetch_miss_rate 3.60734e-06
Core_0_TLB_same_page_prefetch_mpki 0.00063
Core_0_TLB_cross_page_prefetch_miss_rate 0.0292626
Core_0_TLB_cross_page_prefetch_mpki 0.42876
Core_0_TLB_cross_page_prefetch_issued 1465215
Core_0_TLB_cross_page_prefetch_lookups 1465215
Core_0_TLB_cross_page_prefetch_useful 36488
Core_0_TLB_cross_page_prefetch_useless 1495
Core_0_TLB_cross_page_prefetch_late 5915
Core_0_TLB_cross_page_prefetch_too_early 292
Core_0_TLB_cross_page_prefetch_too_early_among_fill 0.00757989
Core_0_TLB_cross_page_prefetch_too_early_among_useless 0.195318
Core_0_TLB_cross_page_prefetch_accuracy 0.0249028
Core_0_TLB_cross_page_prefetch_coverage 0.341229
BERTI TO_L1: 229690718 TO_L2: 72799200 TO_L2_BC_MSHR: 13709890
BERTI AVG_LAT: 234.364 NUM_TRACK_LATENCY: 3677068 NUM_CANT_TRACK_LATENCY: 140
BERTI CROSS_PAGE 36957887 NO_CROSS_PAGE: 265532031
BERTI FOUND_BERTI: 37917112 NO_FOUND_BERTI: 4966902
BERTI AVERAGE_ISSUED: 2.92268
