[VMEM] WARNING: physical memory size is smaller than virtual memory size.

*** ChampSim Multicore Out-of-Order Simulator ***
Warmup Instructions: 50000000
Simulation Instructions: 100000000
Number of CPUs: 1
Page size: 4096
Core 0: /data0/tzh/champsim_traces/PARSEC/parsec_2.1.canneal.simlarge.prebuilt.drop_500M.length_250M.champsimtrace.xz
VBerti Prefetcher
BERTI HASH ENTANGLING
BERTI IP MASK ffff
Off-chip DRAM Size: 16 GiB Channels: 1 Width: 64-bit Data Rate: 3205 MT/s
Warmup halting CPU 0 at instruction 50000004 cycle 11533037 for remainder of phase
Warmup finished CPU 0 instructions: 50000004 cycles: 11533037 cumulative IPC: 4.335 (Simulation time: 00 hr 02 min 35 sec)
Warmup complete CPU 0 instructions: 50000004 cycles: 11533037 cumulative IPC: 4.335 (Simulation time: 00 hr 02 min 35 sec)
Simulation finished CPU 0 instructions: 100000001 cycles: 151357900 cumulative IPC: 0.6607 (Simulation time: 00 hr 15 min 53 sec)
Simulation complete CPU 0 instructions: 100000001 cycles: 151357900 cumulative IPC: 0.6607 (Simulation time: 00 hr 15 min 53 sec)

ChampSim completed all CPUs

=== Simulation ===
CPU 0 runs /data0/tzh/champsim_traces/PARSEC/parsec_2.1.canneal.simlarge.prebuilt.drop_500M.length_250M.champsimtrace.xz

Region of Interest Statistics

CPU 0 cumulative IPC: 0.6607 instructions: 100000001 cycles: 151357900
CPU 0 Branch Prediction Accuracy: 95.88% MPKI: 8.145 Average ROB Occupancy at Mispredict: 72.55
Branch type MPKI
BRANCH_DIRECT_JUMP: 0
BRANCH_INDIRECT: 0.2084
BRANCH_CONDITIONAL: 7.774
BRANCH_DIRECT_CALL: 0.1622
BRANCH_INDIRECT_CALL: 8e-05
BRANCH_RETURN: 0

cpu0->cpu0_STLB TOTAL        ACCESS:     640781 HIT:     475086 MISS:     165695 MSHR_MERGE:          0
cpu0->cpu0_STLB LOAD         ACCESS:     640781 HIT:     475086 MISS:     165695 MSHR_MERGE:          0
cpu0->cpu0_STLB RFO          ACCESS:          0 HIT:          0 MISS:          0 MSHR_MERGE:          0
cpu0->cpu0_STLB PREFETCH     ACCESS:          0 HIT:          0 MISS:          0 MSHR_MERGE:          0
cpu0->cpu0_STLB WRITE        ACCESS:          0 HIT:          0 MISS:          0 MSHR_MERGE:          0
cpu0->cpu0_STLB TRANSLATION  ACCESS:          0 HIT:          0 MISS:          0 MSHR_MERGE:          0
cpu0->cpu0_STLB PREFETCH REQUESTED:          0 ISSUED:          0 USEFUL:          0 USELESS:          0 LATE:          0 TOO_EARLY:          0
cpu0->cpu0_STLB AVERAGE MISS LATENCY: 25.33 cycles
cpu0->cpu0_L2C TOTAL        ACCESS:    1551373 HIT:     764342 MISS:     787031 MSHR_MERGE:       8109
cpu0->cpu0_L2C LOAD         ACCESS:     990410 HIT:     343638 MISS:     646772 MSHR_MERGE:          0
cpu0->cpu0_L2C RFO          ACCESS:       2115 HIT:        771 MISS:       1344 MSHR_MERGE:         15
cpu0->cpu0_L2C PREFETCH     ACCESS:     220671 HIT:     119569 MISS:     101102 MSHR_MERGE:       8094
cpu0->cpu0_L2C WRITE        ACCESS:     195425 HIT:     194945 MISS:        480 MSHR_MERGE:          0
cpu0->cpu0_L2C TRANSLATION  ACCESS:     142752 HIT:     105419 MISS:      37333 MSHR_MERGE:          0
cpu0->cpu0_L2C PREFETCH REQUESTED:      48488 ISSUED:      48488 USEFUL:      27929 USELESS:       1886 LATE:          0 TOO_EARLY:        163
cpu0->cpu0_L2C AVERAGE MISS LATENCY: 130.1 cycles
cpu0->cpu0_L1I TOTAL        ACCESS:   10728358 HIT:   10706861 MISS:      21497 MSHR_MERGE:        571
cpu0->cpu0_L1I LOAD         ACCESS:   10728358 HIT:   10706861 MISS:      21497 MSHR_MERGE:        571
cpu0->cpu0_L1I RFO          ACCESS:          0 HIT:          0 MISS:          0 MSHR_MERGE:          0
cpu0->cpu0_L1I PREFETCH     ACCESS:          0 HIT:          0 MISS:          0 MSHR_MERGE:          0
cpu0->cpu0_L1I WRITE        ACCESS:          0 HIT:          0 MISS:          0 MSHR_MERGE:          0
cpu0->cpu0_L1I TRANSLATION  ACCESS:          0 HIT:          0 MISS:          0 MSHR_MERGE:          0
cpu0->cpu0_L1I PREFETCH REQUESTED:          0 ISSUED:          0 USEFUL:          0 USELESS:          0 LATE:          0 TOO_EARLY:          0
cpu0->cpu0_L1I AVERAGE MISS LATENCY: 7.509 cycles
cpu0->cpu0_L1D TOTAL        ACCESS:   30576756 HIT:   29248196 MISS:    1328560 MSHR_MERGE:      41904
cpu0->cpu0_L1D LOAD         ACCESS:   18977761 HIT:   17967606 MISS:    1010155 MSHR_MERGE:      40670
cpu0->cpu0_L1D RFO          ACCESS:          0 HIT:          0 MISS:          0 MSHR_MERGE:          0
cpu0->cpu0_L1D PREFETCH     ACCESS:     438643 HIT:     266163 MISS:     172480 MSHR_MERGE:        176
cpu0->cpu0_L1D WRITE        ACCESS:   10831811 HIT:   10828828 MISS:       2983 MSHR_MERGE:        868
cpu0->cpu0_L1D TRANSLATION  ACCESS:     328541 HIT:     185599 MISS:     142942 MSHR_MERGE:        190
cpu0->cpu0_L1D PREFETCH REQUESTED:     438643 ISSUED:     438643 USEFUL:      66508 USELESS:        241 LATE:         90 TOO_EARLY:         23
cpu0->cpu0_L1D AVERAGE MISS LATENCY: 88.72 cycles
cpu0->cpu0_ITLB TOTAL        ACCESS:    9346735 HIT:    9346654 MISS:         81 MSHR_MERGE:         27
cpu0->cpu0_ITLB LOAD         ACCESS:    9346735 HIT:    9346654 MISS:         81 MSHR_MERGE:         27
cpu0->cpu0_ITLB RFO          ACCESS:          0 HIT:          0 MISS:          0 MSHR_MERGE:          0
cpu0->cpu0_ITLB PREFETCH     ACCESS:          0 HIT:          0 MISS:          0 MSHR_MERGE:          0
cpu0->cpu0_ITLB WRITE        ACCESS:          0 HIT:          0 MISS:          0 MSHR_MERGE:          0
cpu0->cpu0_ITLB TRANSLATION  ACCESS:          0 HIT:          0 MISS:          0 MSHR_MERGE:          0
cpu0->cpu0_ITLB PREFETCH REQUESTED:          0 ISSUED:          0 USEFUL:          0 USELESS:          0 LATE:          0 TOO_EARLY:          0
cpu0->cpu0_ITLB AVERAGE MISS LATENCY: 41.07 cycles
cpu0->cpu0_DTLB TOTAL        ACCESS:   28891241 HIT:   28125683 MISS:     765558 MSHR_MERGE:     124831
cpu0->cpu0_DTLB LOAD         ACCESS:   28891241 HIT:   28125683 MISS:     765558 MSHR_MERGE:     124831
cpu0->cpu0_DTLB RFO          ACCESS:          0 HIT:          0 MISS:          0 MSHR_MERGE:          0
cpu0->cpu0_DTLB PREFETCH     ACCESS:          0 HIT:          0 MISS:          0 MSHR_MERGE:          0
cpu0->cpu0_DTLB WRITE        ACCESS:          0 HIT:          0 MISS:          0 MSHR_MERGE:          0
cpu0->cpu0_DTLB TRANSLATION  ACCESS:          0 HIT:          0 MISS:          0 MSHR_MERGE:          0
cpu0->cpu0_DTLB PREFETCH REQUESTED:          0 ISSUED:          0 USEFUL:          0 USELESS:          0 LATE:          0 TOO_EARLY:          0
cpu0->cpu0_DTLB AVERAGE MISS LATENCY: 11.75 cycles
cpu0->LLC TOTAL        ACCESS:     971451 HIT:     432725 MISS:     538726 MSHR_MERGE:          0
cpu0->LLC LOAD         ACCESS:     646772 HIT:     222308 MISS:     424464 MSHR_MERGE:          0
cpu0->LLC RFO          ACCESS:       1329 HIT:        102 MISS:       1227 MSHR_MERGE:          0
cpu0->LLC PREFETCH     ACCESS:      93008 HIT:       3702 MISS:      89306 MSHR_MERGE:          0
cpu0->LLC WRITE        ACCESS:     193009 HIT:     170948 MISS:      22061 MSHR_MERGE:          0
cpu0->LLC TRANSLATION  ACCESS:      37333 HIT:      35665 MISS:       1668 MSHR_MERGE:          0
cpu0->LLC PREFETCH REQUESTED:          0 ISSUED:          0 USEFUL:          0 USELESS:          0 LATE:          0 TOO_EARLY:          0
cpu0->LLC AVERAGE MISS LATENCY: 175.2 cycles

DRAM Statistics

Channel 0 RQ ROW_BUFFER_HIT:        171
  ROW_BUFFER_MISS:     516493
  AVG DBUS CONGESTED CYCLE: 21.62
Channel 0 WQ ROW_BUFFER_HIT:      73258
  ROW_BUFFER_MISS:     116554
  FULL:          0
Channel 0 REFRESHES ISSUED:      12613

[ROI Statistics]
[System Configuration]
num_cpus 1
cpu_freq 4000
fetch_width 6
decode_width 6
dispatch_width 6
execute_width 6
lq_width 2
sq_width 2
retire_width 6
scheduler_size 128
branch_mispredict_penalty 15
rob_size 352
lq_size 128
sq_size 72
ifetch_buffer_size 64
decode_buffer_size 32
dispatch_buffer_size 32
register_file_size 288
decode_latency 1
dispatch_latency 1
schedule_latency 1
execute_latency 1
page_size 4096
block_size 64
core_0_itlb_set 16
core_0_itlb_way 4
core_0_itlb_rq_size 16
core_0_itlb_wq_size 16
core_0_itlb_pq_size 0
core_0_itlb_mshr_size 8
core_0_itlb_hit_latency 1
core_0_itlb_fill_latency 1
core_0_itlb_max_tag_check 2
core_0_itlb_max_fill 2
core_0_dtlb_set 16
core_0_dtlb_way 4
core_0_dtlb_rq_size 16
core_0_dtlb_wq_size 16
core_0_dtlb_pq_size 0
core_0_dtlb_mshr_size 8
core_0_dtlb_hit_latency 1
core_0_dtlb_fill_latency 1
core_0_dtlb_max_tag_check 2
core_0_dtlb_max_fill 2
core_0_stlb_set 128
core_0_stlb_way 12
core_0_stlb_rq_size 32
core_0_stlb_wq_size 32
core_0_stlb_pq_size 0
core_0_stlb_mshr_size 16
core_0_stlb_hit_latency 4
core_0_stlb_fill_latency 4
core_0_stlb_max_tag_check 1
core_0_stlb_max_fill 1
core_0_l1i_set 64
core_0_l1i_way 8
core_0_l1i_rq_size 64
core_0_l1i_wq_size 64
core_0_l1i_pq_size 32
core_0_l1i_mshr_size 8
core_0_l1i_hit_latency 2
core_0_l1i_fill_latency 2
core_0_l1i_max_tag_check 2
core_0_l1i_max_fill 2
core_0_l1d_set 64
core_0_l1d_way 12
core_0_l1d_rq_size 64
core_0_l1d_wq_size 64
core_0_l1d_pq_size 8
core_0_l1d_mshr_size 16
core_0_l1d_hit_latency 2
core_0_l1d_fill_latency 3
core_0_l1d_max_tag_check 2
core_0_l1d_max_fill 2
core_0_l2c_set 1024
core_0_l2c_way 8
core_0_l2c_rq_size 32
core_0_l2c_wq_size 32
core_0_l2c_pq_size 16
core_0_l2c_mshr_size 32
core_0_l2c_hit_latency 5
core_0_l2c_fill_latency 5
core_0_l2c_max_tag_check 1
core_0_l2c_max_fill 1
llc_set 2048
llc_way 16
llc_rq_size 32
llc_wq_size 32
llc_pq_size 32
llc_mshr_size 64
llc_hit_latency 10
llc_fill_latency 10
llc_max_tag_check 1
llc_max_fill 1
dram_channels 1
dram_ranks 1
dram_bankgroups 8
dram_banks 4
dram_rows 65536
dram_columns 1024
dram_channel_width 8
dram_rq_size 64
dram_wq_size 64
dram_size 17179869184
core_0_itlb_prefetcher no
core_0_dtlb_prefetcher no
core_0_stlb_prefetcher no
core_0_l1i_prefetcher next_line
core_0_l1d_prefetcher vberti
core_0_l2c_prefetcher ip_stride
llc_prefetcher no
llc_replacement drrip

Core_0_instructions 100000001
Core_0_cycles 151357900
Core_0_IPC 0.660686
Core_0_branch_prediction_accuracy 95.885
Core_0_branch_MPKI 8.14483
Core_0_average_ROB_occupancy_at_mispredict 72.5542

Core_0_ITLB_total_access 9346735
Core_0_ITLB_total_hit 9346654
Core_0_ITLB_total_miss 81
Core_0_ITLB_total_MPKI 0.00081
Core_0_ITLB_total_miss_rate 8.66613e-06
Core_0_ITLB_demand_access 9346735
Core_0_ITLB_demand_hit 9346654
Core_0_ITLB_demand_miss 81
Core_0_ITLB_demand_MPKI 0.00081
Core_0_ITLB_demand_miss_rate 8.66613e-06
Core_0_ITLB_load_access 9346735
Core_0_ITLB_load_hit 9346654
Core_0_ITLB_load_miss 81
Core_0_ITLB_load_MPKI 0.00081
Core_0_ITLB_load_miss_rate 8.66613e-06
Core_0_ITLB_rfo_access 0
Core_0_ITLB_rfo_hit 0
Core_0_ITLB_rfo_miss 0
Core_0_ITLB_rfo_MPKI 0
Core_0_ITLB_rfo_miss_rate 0
Core_0_ITLB_prefetch_access 0
Core_0_ITLB_prefetch_hit 0
Core_0_ITLB_prefetch_miss 0
Core_0_ITLB_prefetch_MPKI 0
Core_0_ITLB_prefetch_miss_rate 0
Core_0_ITLB_writeback_access 0
Core_0_ITLB_writeback_hit 0
Core_0_ITLB_writeback_miss 0
Core_0_ITLB_writeback_MPKI 0
Core_0_ITLB_writeback_miss_rate 0
Core_0_ITLB_prefetch_requested 0
Core_0_ITLB_prefetch_issued 0
Core_0_ITLB_prefetch_useful 0
Core_0_ITLB_prefetch_useless 0
Core_0_ITLB_prefetch_late 0
Core_0_ITLB_prefetch_fill 0
Core_0_ITLB_prefetch_too_early 0
Core_0_ITLB_prefetch_too_early_among_fill 0
Core_0_ITLB_prefetch_too_early_among_useless 0
Core_0_ITLB_prefetch_pollution_evict 0
Core_0_ITLB_prefetch_pollution_demand 0
Core_0_ITLB_prefetch_pollution_among_prefetch_fill 0
Core_0_ITLB_prefetch_accuracy 0
Core_0_ITLB_prefetch_coverage 0

Core_0_DTLB_total_access 28891241
Core_0_DTLB_total_hit 28125683
Core_0_DTLB_total_miss 765558
Core_0_DTLB_total_MPKI 7.65558
Core_0_DTLB_total_miss_rate 0.0264979
Core_0_DTLB_demand_access 28891241
Core_0_DTLB_demand_hit 28125683
Core_0_DTLB_demand_miss 765558
Core_0_DTLB_demand_MPKI 7.65558
Core_0_DTLB_demand_miss_rate 0.0264979
Core_0_DTLB_load_access 28891241
Core_0_DTLB_load_hit 28125683
Core_0_DTLB_load_miss 765558
Core_0_DTLB_load_MPKI 7.65558
Core_0_DTLB_load_miss_rate 0.0264979
Core_0_DTLB_rfo_access 0
Core_0_DTLB_rfo_hit 0
Core_0_DTLB_rfo_miss 0
Core_0_DTLB_rfo_MPKI 0
Core_0_DTLB_rfo_miss_rate 0
Core_0_DTLB_prefetch_access 0
Core_0_DTLB_prefetch_hit 0
Core_0_DTLB_prefetch_miss 0
Core_0_DTLB_prefetch_MPKI 0
Core_0_DTLB_prefetch_miss_rate 0
Core_0_DTLB_writeback_access 0
Core_0_DTLB_writeback_hit 0
Core_0_DTLB_writeback_miss 0
Core_0_DTLB_writeback_MPKI 0
Core_0_DTLB_writeback_miss_rate 0
Core_0_DTLB_prefetch_requested 0
Core_0_DTLB_prefetch_issued 0
Core_0_DTLB_prefetch_useful 0
Core_0_DTLB_prefetch_useless 0
Core_0_DTLB_prefetch_late 0
Core_0_DTLB_prefetch_fill 0
Core_0_DTLB_prefetch_too_early 0
Core_0_DTLB_prefetch_too_early_among_fill 0
Core_0_DTLB_prefetch_too_early_among_useless 0
Core_0_DTLB_prefetch_pollution_evict 0
Core_0_DTLB_prefetch_pollution_demand 0
Core_0_DTLB_prefetch_pollution_among_prefetch_fill 0
Core_0_DTLB_prefetch_accuracy 0
Core_0_DTLB_prefetch_coverage 0

Core_0_STLB_total_access 640781
Core_0_STLB_total_hit 475086
Core_0_STLB_total_miss 165695
Core_0_STLB_total_MPKI 1.65695
Core_0_STLB_total_miss_rate 0.258583
Core_0_STLB_demand_access 640781
Core_0_STLB_demand_hit 475086
Core_0_STLB_demand_miss 165695
Core_0_STLB_demand_MPKI 1.65695
Core_0_STLB_demand_miss_rate 0.258583
Core_0_STLB_load_access 640781
Core_0_STLB_load_hit 475086
Core_0_STLB_load_miss 165695
Core_0_STLB_load_MPKI 1.65695
Core_0_STLB_load_miss_rate 0.258583
Core_0_STLB_rfo_access 0
Core_0_STLB_rfo_hit 0
Core_0_STLB_rfo_miss 0
Core_0_STLB_rfo_MPKI 0
Core_0_STLB_rfo_miss_rate 0
Core_0_STLB_prefetch_access 0
Core_0_STLB_prefetch_hit 0
Core_0_STLB_prefetch_miss 0
Core_0_STLB_prefetch_MPKI 0
Core_0_STLB_prefetch_miss_rate 0
Core_0_STLB_writeback_access 0
Core_0_STLB_writeback_hit 0
Core_0_STLB_writeback_miss 0
Core_0_STLB_writeback_MPKI 0
Core_0_STLB_writeback_miss_rate 0
Core_0_STLB_prefetch_requested 0
Core_0_STLB_prefetch_issued 0
Core_0_STLB_prefetch_useful 0
Core_0_STLB_prefetch_useless 0
Core_0_STLB_prefetch_late 0
Core_0_STLB_prefetch_fill 0
Core_0_STLB_prefetch_too_early 0
Core_0_STLB_prefetch_too_early_among_fill 0
Core_0_STLB_prefetch_too_early_among_useless 0
Core_0_STLB_prefetch_pollution_evict 0
Core_0_STLB_prefetch_pollution_demand 0
Core_0_STLB_prefetch_pollution_among_prefetch_fill 0
Core_0_STLB_prefetch_accuracy 0
Core_0_STLB_prefetch_coverage 0

Core_0_L1I_total_access 10728358
Core_0_L1I_total_hit 10706861
Core_0_L1I_total_miss 21497
Core_0_L1I_total_MPKI 0.21497
Core_0_L1I_total_miss_rate 0.00200375
Core_0_L1I_demand_access 10728358
Core_0_L1I_demand_hit 10706861
Core_0_L1I_demand_miss 21497
Core_0_L1I_demand_MPKI 0.21497
Core_0_L1I_demand_miss_rate 0.00200375
Core_0_L1I_load_access 10728358
Core_0_L1I_load_hit 10706861
Core_0_L1I_load_miss 21497
Core_0_L1I_load_MPKI 0.21497
Core_0_L1I_load_miss_rate 0.00200375
Core_0_L1I_rfo_access 0
Core_0_L1I_rfo_hit 0
Core_0_L1I_rfo_miss 0
Core_0_L1I_rfo_MPKI 0
Core_0_L1I_rfo_miss_rate 0
Core_0_L1I_prefetch_access 0
Core_0_L1I_prefetch_hit 0
Core_0_L1I_prefetch_miss 0
Core_0_L1I_prefetch_MPKI 0
Core_0_L1I_prefetch_miss_rate 0
Core_0_L1I_writeback_access 0
Core_0_L1I_writeback_hit 0
Core_0_L1I_writeback_miss 0
Core_0_L1I_writeback_MPKI 0
Core_0_L1I_writeback_miss_rate 0
Core_0_L1I_prefetch_requested 0
Core_0_L1I_prefetch_issued 0
Core_0_L1I_prefetch_useful 0
Core_0_L1I_prefetch_useless 0
Core_0_L1I_prefetch_late 0
Core_0_L1I_prefetch_fill 0
Core_0_L1I_prefetch_too_early 0
Core_0_L1I_prefetch_too_early_among_fill 0
Core_0_L1I_prefetch_too_early_among_useless 0
Core_0_L1I_prefetch_pollution_evict 0
Core_0_L1I_prefetch_pollution_demand 0
Core_0_L1I_prefetch_pollution_among_prefetch_fill 0
Core_0_L1I_prefetch_accuracy 0
Core_0_L1I_prefetch_coverage 0

Core_0_L1D_total_access 30248215
Core_0_L1D_total_hit 29062597
Core_0_L1D_total_miss 1185618
Core_0_L1D_total_MPKI 11.8562
Core_0_L1D_total_miss_rate 0.0391963
Core_0_L1D_demand_access 18977761
Core_0_L1D_demand_hit 17967606
Core_0_L1D_demand_miss 1010155
Core_0_L1D_demand_MPKI 10.1015
Core_0_L1D_demand_miss_rate 0.0532284
Core_0_L1D_load_access 18977761
Core_0_L1D_load_hit 17967606
Core_0_L1D_load_miss 1010155
Core_0_L1D_load_MPKI 10.1015
Core_0_L1D_load_miss_rate 0.0532284
Core_0_L1D_rfo_access 0
Core_0_L1D_rfo_hit 0
Core_0_L1D_rfo_miss 0
Core_0_L1D_rfo_MPKI 0
Core_0_L1D_rfo_miss_rate 0
Core_0_L1D_prefetch_access 438643
Core_0_L1D_prefetch_hit 266163
Core_0_L1D_prefetch_miss 172480
Core_0_L1D_prefetch_MPKI 1.7248
Core_0_L1D_prefetch_miss_rate 0.393213
Core_0_L1D_writeback_access 10831811
Core_0_L1D_writeback_hit 10828828
Core_0_L1D_writeback_miss 2983
Core_0_L1D_writeback_MPKI 0.02983
Core_0_L1D_writeback_miss_rate 0.000275393
Core_0_L1D_prefetch_requested 438643
Core_0_L1D_prefetch_issued 438643
Core_0_L1D_prefetch_useful 66508
Core_0_L1D_prefetch_useless 241
Core_0_L1D_prefetch_late 90
Core_0_L1D_prefetch_fill 66660
Core_0_L1D_prefetch_too_early 23
Core_0_L1D_prefetch_too_early_among_fill 0.000345035
Core_0_L1D_prefetch_too_early_among_useless 0.0954357
Core_0_L1D_prefetch_pollution_evict 19904
Core_0_L1D_prefetch_pollution_demand 19904
Core_0_L1D_prefetch_pollution_among_prefetch_fill 0.29859
Core_0_L1D_prefetch_accuracy 0.151622
Core_0_L1D_prefetch_coverage 0.0617723

Core_0_L2C_total_access 1408621
Core_0_L2C_total_hit 658923
Core_0_L2C_total_miss 749698
Core_0_L2C_total_MPKI 7.49698
Core_0_L2C_total_miss_rate 0.532221
Core_0_L2C_demand_access 992525
Core_0_L2C_demand_hit 344409
Core_0_L2C_demand_miss 648116
Core_0_L2C_demand_MPKI 6.48116
Core_0_L2C_demand_miss_rate 0.652997
Core_0_L2C_load_access 990410
Core_0_L2C_load_hit 343638
Core_0_L2C_load_miss 646772
Core_0_L2C_load_MPKI 6.46772
Core_0_L2C_load_miss_rate 0.653035
Core_0_L2C_rfo_access 2115
Core_0_L2C_rfo_hit 771
Core_0_L2C_rfo_miss 1344
Core_0_L2C_rfo_MPKI 0.01344
Core_0_L2C_rfo_miss_rate 0.635461
Core_0_L2C_prefetch_access 220671
Core_0_L2C_prefetch_hit 119569
Core_0_L2C_prefetch_miss 101102
Core_0_L2C_prefetch_MPKI 1.01102
Core_0_L2C_prefetch_miss_rate 0.458157
Core_0_L2C_writeback_access 195425
Core_0_L2C_writeback_hit 194945
Core_0_L2C_writeback_miss 480
Core_0_L2C_writeback_MPKI 0.0048
Core_0_L2C_writeback_miss_rate 0.00245619
Core_0_L2C_prefetch_requested 48488
Core_0_L2C_prefetch_issued 48488
Core_0_L2C_prefetch_useful 27929
Core_0_L2C_prefetch_useless 1886
Core_0_L2C_prefetch_late 0
Core_0_L2C_prefetch_fill 92993
Core_0_L2C_prefetch_too_early 163
Core_0_L2C_prefetch_too_early_among_fill 0.00175282
Core_0_L2C_prefetch_too_early_among_useless 0.0864263
Core_0_L2C_prefetch_pollution_evict 32415
Core_0_L2C_prefetch_pollution_demand 32411
Core_0_L2C_prefetch_pollution_among_prefetch_fill 0.348575
Core_0_L2C_prefetch_accuracy 0.575998
Core_0_L2C_prefetch_coverage 0.0413123

Core_0_LLC_total_access 934118
Core_0_LLC_total_hit 397060
Core_0_LLC_total_miss 537058
Core_0_LLC_total_MPKI 5.37058
Core_0_LLC_total_miss_rate 0.574936
Core_0_LLC_demand_access 648101
Core_0_LLC_demand_hit 222410
Core_0_LLC_demand_miss 425691
Core_0_LLC_demand_MPKI 4.25691
Core_0_LLC_demand_miss_rate 0.656828
Core_0_LLC_load_access 646772
Core_0_LLC_load_hit 222308
Core_0_LLC_load_miss 424464
Core_0_LLC_load_MPKI 4.24464
Core_0_LLC_load_miss_rate 0.656281
Core_0_LLC_rfo_access 1329
Core_0_LLC_rfo_hit 102
Core_0_LLC_rfo_miss 1227
Core_0_LLC_rfo_MPKI 0.01227
Core_0_LLC_rfo_miss_rate 0.923251
Core_0_LLC_prefetch_access 93008
Core_0_LLC_prefetch_hit 3702
Core_0_LLC_prefetch_miss 89306
Core_0_LLC_prefetch_MPKI 0.89306
Core_0_LLC_prefetch_miss_rate 0.960197
Core_0_LLC_writeback_access 193009
Core_0_LLC_writeback_hit 170948
Core_0_LLC_writeback_miss 22061
Core_0_LLC_writeback_MPKI 0.22061
Core_0_LLC_writeback_miss_rate 0.1143
Core_0_LLC_prefetch_requested 0
Core_0_LLC_prefetch_issued 0
Core_0_LLC_prefetch_useful 0
Core_0_LLC_prefetch_useless 0
Core_0_LLC_prefetch_late 0
Core_0_LLC_prefetch_fill 89306
Core_0_LLC_prefetch_too_early 0
Core_0_LLC_prefetch_too_early_among_fill 0
Core_0_LLC_prefetch_too_early_among_useless 0
Core_0_LLC_prefetch_pollution_evict 34498
Core_0_LLC_prefetch_pollution_demand 34498
Core_0_LLC_prefetch_pollution_among_prefetch_fill 0.38629
Core_0_LLC_prefetch_accuracy 0
Core_0_LLC_prefetch_coverage 0

[DRAM Statistics]
Channel_0_RQ_row_buffer_hit 171
Channel_0_RQ_row_buffer_miss 516493
Channel_0_WQ_row_buffer_hit 73258
Channel_0_WQ_row_buffer_miss 116554
Channel_0_WQ_full 0
Channel_0_dbus_congested 2494867
DRAM_total_RQ_row_buffer_hit 171
DRAM_total_RQ_row_buffer_miss 516493
DRAM_total_WQ_row_buffer_hit 73258
DRAM_total_WQ_row_buffer_miss 116554
DRAM_total_WQ_full 0
DRAM_total_dbus_congested 2494867
DRAM_avg_congested_cycle 21.6229

====== DRAM_RQ_TRAFFIC ========
DRAM_RQ_READ_TRAFFIC_BREAKDOWN:
data_demand_read.count = 425663
data_demand_read.share = 82.39%

inst_demand_read.count = 28
inst_demand_read.share = 0.01%

cache_inst_prefetch.count = 0
cache_inst_prefetch.share = 0.00%

cache_data_prefetch.count = 89306
cache_data_prefetch.share = 17.29%

stlb_data_demand.count = 1515
stlb_data_demand.share = 0.29%

stlb_inst_demand.count = 0
stlb_inst_demand.share = 0.00%

stlb_l1i_pref.count = 0
stlb_l1i_pref.share = 0.00%

stlb_l1d_pref.count = 153
stlb_l1d_pref.share = 0.03%

DRAM_RQ_READ_TRAFFIC_SUMMARY:
cache_demand.count = 425691
cache_demand.share = 82.39%

cache_prefetch.count = 89306
cache_prefetch.share = 17.29%

stlb_demand.count = 1515
stlb_demand.share = 0.29%

stlb_prefetch.count = 153
stlb_prefetch.share = 0.03%

DRAM_RQ_READ_TRAFFIC_DEBUG:
total_classified_read.count = 516665
unclassified_read.count = 0
total_read_with_other.count = 516665

classified_plus_unclassified_check.count = 516665
dram_rq_read_total_observed.count = 516665
dram_rq_read_total_observed.per_1K_instructions = 5.16665

STLB_MISS_PTW_DRAM_TOUCH_BREAKDOWN:
stlb_miss_total.count = 164372

stlb_miss_touch_dram.count = 1665
stlb_miss_touch_dram.share = 1.01%

stlb_miss_no_dram_touch.count = 162707
stlb_miss_no_dram_touch.share = 98.99%

STLB_MISS_PTW_DRAM_TOUCH_DEBUG:
stlb_miss_touch_plus_no_touch.count = 164372
stlb_miss_total_check.count = 164372

======STLB miss causes ========
Core_0_STLB_miss_cause_breakdown
Core_0_STLB_cause_Demand_Data_miss 164022
Core_0_STLB_cause_Demand_Data_miss_rate 0.255972
Core_0_STLB_cause_Demand_Instruction_miss 54
Core_0_STLB_cause_Demand_Instruction_miss_rate 8.42722e-05
Core_0_STLB_cause_L1D_Prefetch_miss 1619
Core_0_STLB_cause_L1D_Prefetch_miss_rate 0.0025266
Core_0_STLB_cause_L1D_Prefetch_Same_Page_miss 0
Core_0_STLB_cause_L1D_Prefetch_Same_Page_miss_rate 0
Core_0_STLB_cause_L1D_Prefetch_Cross_Page_miss 1619
Core_0_STLB_cause_L1D_Prefetch_Cross_Page_miss_rate 0.0025266
Core_0_STLB_cause_L1I_Prefetch_miss 0
Core_0_STLB_cause_L1I_Prefetch_miss_rate 0
Core_0_STLB_cause_Other_miss 0
Core_0_STLB_cause_Other_miss_rate 0
Core_0_STLB_Demand_miss 164076
Core_0_STLB_Demand_miss_rate 0.256056
Core_0_STLB_L1D_Prefetch_miss 1619
Core_0_STLB_L1D_Prefetch_miss_rate 0.0025266
Core_0_STLB_Other_miss 0
Core_0_STLB_Other_miss_rate 0

========== vBerti-TLB Cross-page Flow Stats ==========

Core_0_vBerti_Requested 438643
Core_0_vBerti_Cross_page_prefetch_in_Requested 8437
Core_0_vBerti_Same_page_prefetch_in_Requested 430206
Core_0_vBerti_Cross_page_prefetch_of_Requested 0.0192343
Core_0_vBerti_Issued 438643
Core_0_vBerti_PQ_Drop_Rate 0
Core_0_vBerti_InPQ_Cross_page_prefetch_of_Requested 0.0192343
Core_0_vBerti_Cross_page_PQ_Drop_rate 0
Core_0_vBerti_Cross_page_prefetch_of_Issued 0.0192343

========= DTLB_vBerti Prefetch Stats =========
Core_0_DTLB_demand_access 28560351
Core_0_DTLB_demand_hit 27796923
Core_0_DTLB_demand_miss 763428
Core_0_DTLB_demand_mshr_merge 124328
Core_0_DTLB_demand_fill 639106
Core_0_DTLB_demand_miss_rate 0.0267303
Core_0_DTLB_demand_mpki 7.63428
Core_0_DTLB_vberti_prefetch_access 330890
Core_0_DTLB_vberti_prefetch_hit 328760
Core_0_DTLB_vberti_prefetch_miss 2130
Core_0_DTLB_vberti_prefetch_mshr_merge 503
Core_0_DTLB_vberti_prefetch_fill 1621
Core_0_DTLB_vberti_prefetch_miss_rate 0.00643718
Core_0_DTLB_vberti_prefetch_mpki 0.0213

=== DTLB_vBerti Same/Cross-page Prefetch Stats ===
Core_0_DTLB_vberti_same_page_prefetch 323637
Core_0_DTLB_vberti_same_page_prefetch_hit 323637
Core_0_DTLB_vberti_same_page_prefetch_miss 0
Core_0_DTLB_vberti_same_page_prefetch_mshr_merge 0
Core_0_DTLB_vberti_same_page_prefetch_fill 0
Core_0_DTLB_vberti_same_page_prefetch_miss_rate 0
Core_0_DTLB_vberti_same_page_prefetch_mpki 0
Core_0_DTLB_vberti_cross_page_prefetch 7253
Core_0_DTLB_vberti_cross_page_prefetch_hit 5123
Core_0_DTLB_vberti_cross_page_prefetch_miss 2130
Core_0_DTLB_vberti_cross_page_prefetch_mshr_merge 503
Core_0_DTLB_vberti_cross_page_prefetch_fill 1621
Core_0_DTLB_vberti_cross_page_prefetch_miss_rate 0.293672
Core_0_DTLB_vberti_cross_page_prefetch_mpki 0.0213
Core_0_DTLB_same_page_prefetch_miss_rate 0
Core_0_DTLB_same_page_prefetch_mpki 0
Core_0_DTLB_cross_page_prefetch_miss_rate 0.293672
Core_0_DTLB_cross_page_prefetch_mpki 0.0213
Core_0_DTLB_cross_page_prefetch_issued 7253
Core_0_DTLB_cross_page_prefetch_lookups 7253
Core_0_DTLB_cross_page_prefetch_useful 1068
Core_0_DTLB_cross_page_prefetch_useless 559
Core_0_DTLB_cross_page_prefetch_late 6
Core_0_DTLB_cross_page_prefetch_too_early 225
Core_0_DTLB_cross_page_prefetch_too_early_among_fill 0.138803
Core_0_DTLB_cross_page_prefetch_too_early_among_useless 0.402504
Core_0_DTLB_cross_page_prefetch_pollution_evict 1485
Core_0_DTLB_cross_page_prefetch_pollution_demand 1485
Core_0_DTLB_cross_page_prefetch_pollution_among_prefetch_fill 0.916101
Core_0_DTLB_cross_page_prefetch_accuracy 0.147249
Core_0_DTLB_cross_page_prefetch_coverage 0.001397

========= STLB_vBerti Prefetch Stats =========
Core_0_STLB_demand_access 639154
Core_0_STLB_demand_hit 475078
Core_0_STLB_demand_miss 164076
Core_0_STLB_demand_mshr_merge 0
Core_0_STLB_demand_fill 164076
Core_0_STLB_demand_miss_rate 0.256708
Core_0_STLB_demand_mpki 1.64076
Core_0_STLB_vberti_prefetch_access 1627
Core_0_STLB_vberti_prefetch_hit 8
Core_0_STLB_vberti_prefetch_miss 1619
Core_0_STLB_vberti_prefetch_mshr_merge 0
Core_0_STLB_vberti_prefetch_fill 0
Core_0_STLB_vberti_prefetch_miss_rate 0.995083
Core_0_STLB_vberti_prefetch_mpki 0.01619

=== STLB_vBerti Same/Cross-page Prefetch Stats ===
Core_0_STLB_vberti_same_page_prefetch 0
Core_0_STLB_vberti_same_page_prefetch_hit 0
Core_0_STLB_vberti_same_page_prefetch_miss 0
Core_0_STLB_vberti_same_page_prefetch_mshr_merge 0
Core_0_STLB_vberti_same_page_prefetch_fill 0
Core_0_STLB_vberti_same_page_prefetch_miss_rate 0
Core_0_STLB_vberti_same_page_prefetch_mpki 0
Core_0_STLB_vberti_cross_page_prefetch 1627
Core_0_STLB_vberti_cross_page_prefetch_hit 8
Core_0_STLB_vberti_cross_page_prefetch_miss 1619
Core_0_STLB_vberti_cross_page_prefetch_mshr_merge 0
Core_0_STLB_vberti_cross_page_prefetch_fill 0
Core_0_STLB_vberti_cross_page_prefetch_miss_rate 0.995083
Core_0_STLB_vberti_cross_page_prefetch_mpki 0.01619
Core_0_STLB_same_page_prefetch_miss_rate 0
Core_0_STLB_same_page_prefetch_mpki 0
Core_0_STLB_cross_page_prefetch_miss_rate 0.995083
Core_0_STLB_cross_page_prefetch_mpki 0.01619
Core_0_STLB_cross_page_prefetch_issued 1627
Core_0_STLB_cross_page_prefetch_lookups 1627
Core_0_STLB_cross_page_prefetch_useful 1323
Core_0_STLB_cross_page_prefetch_useless 40
Core_0_STLB_cross_page_prefetch_late 1323
Core_0_STLB_cross_page_prefetch_too_early 0
Core_0_STLB_cross_page_prefetch_too_early_among_fill 0
Core_0_STLB_cross_page_prefetch_too_early_among_useless 0
Core_0_STLB_cross_page_prefetch_pollution_evict 0
Core_0_STLB_cross_page_prefetch_pollution_demand 0
Core_0_STLB_cross_page_prefetch_pollution_among_prefetch_fill 0
Core_0_STLB_cross_page_prefetch_accuracy 0.813153
Core_0_STLB_cross_page_prefetch_coverage 0.00799884

========= STLB Cross-page Prefetch Buffer Stats =========
Core_0_STLB_raw_demand_miss 164022
Core_0_CP_PB_insert 1619
Core_0_CP_PB_demand_hit 1323
Core_0_STLB_PB_demand_miss 162699
Core_0_CP_PB_coverage 0.00806599
Core_0_STLB_raw_demand_mpki 1.64022
Core_0_STLB_PB_demand_mpki 1.62699
Core_0_CP_PB_demand_hit_mpki 0.01323

Core_0_TLB_demand_miss_rate 0.00574489
Core_0_TLB_demand_mpki 1.64076
Core_0_TLB_same_page_prefetch_miss_rate 0
Core_0_TLB_same_page_prefetch_mpki 0
Core_0_TLB_cross_page_prefetch_miss_rate 0.223218
Core_0_TLB_cross_page_prefetch_mpki 0.01619
Core_0_TLB_cross_page_prefetch_issued 7253
Core_0_TLB_cross_page_prefetch_lookups 7253
Core_0_TLB_cross_page_prefetch_useful 1018
Core_0_TLB_cross_page_prefetch_useless 495
Core_0_TLB_cross_page_prefetch_late 6
Core_0_TLB_cross_page_prefetch_too_early 229
Core_0_TLB_cross_page_prefetch_too_early_among_fill 0.141271
Core_0_TLB_cross_page_prefetch_too_early_among_useless 0.462626
Core_0_TLB_cross_page_prefetch_accuracy 0.140356
Core_0_TLB_cross_page_prefetch_coverage 0.00616618
BERTI TO_L1: 456773 TO_L2: 174408 TO_L2_BC_MSHR: 0
BERTI AVG_LAT: 71.3403 NUM_TRACK_LATENCY: 1538650 NUM_CANT_TRACK_LATENCY: 0
BERTI CROSS_PAGE 12634 NO_CROSS_PAGE: 618547
BERTI FOUND_BERTI: 7866601 NO_FOUND_BERTI: 32308472
BERTI AVERAGE_ISSUED: 1.51642
