[VMEM] WARNING: physical memory size is smaller than virtual memory size.

*** ChampSim Multicore Out-of-Order Simulator ***
Warmup Instructions: 50000000
Simulation Instructions: 100000000
Number of CPUs: 1
Page size: 4096
Core 0: /data0/tzh/champsim_traces/PARSEC/parsec_2.1.canneal.simlarge.prebuilt.drop_4750M.length_250M.champsimtrace.xz
VBerti Prefetcher
BERTI HASH ENTANGLING
BERTI IP MASK ffff
Off-chip DRAM Size: 16 GiB Channels: 1 Width: 64-bit Data Rate: 3205 MT/s
Warmup halting CPU 0 at instruction 50000003 cycle 13865673 for remainder of phase
Warmup finished CPU 0 instructions: 50000003 cycles: 13865673 cumulative IPC: 3.606 (Simulation time: 00 hr 03 min 01 sec)
Warmup complete CPU 0 instructions: 50000003 cycles: 13865673 cumulative IPC: 3.606 (Simulation time: 00 hr 03 min 01 sec)
Simulation finished CPU 0 instructions: 100000002 cycles: 335122140 cumulative IPC: 0.2984 (Simulation time: 00 hr 33 min 59 sec)
Simulation complete CPU 0 instructions: 100000002 cycles: 335122140 cumulative IPC: 0.2984 (Simulation time: 00 hr 33 min 59 sec)

ChampSim completed all CPUs

=== Simulation ===
CPU 0 runs /data0/tzh/champsim_traces/PARSEC/parsec_2.1.canneal.simlarge.prebuilt.drop_4750M.length_250M.champsimtrace.xz

Region of Interest Statistics

CPU 0 cumulative IPC: 0.2984 instructions: 100000002 cycles: 335122140
CPU 0 Branch Prediction Accuracy: 96.81% MPKI: 2.754 Average ROB Occupancy at Mispredict: 189.6
Branch type MPKI
BRANCH_DIRECT_JUMP: 0.00038
BRANCH_INDIRECT: 2e-05
BRANCH_CONDITIONAL: 2.751
BRANCH_DIRECT_CALL: 0.00046
BRANCH_INDIRECT_CALL: 0
BRANCH_RETURN: 0.00159

cpu0->cpu0_STLB TOTAL        ACCESS:    2502708 HIT:    1275027 MISS:    1227681 MSHR_MERGE:          0
cpu0->cpu0_STLB LOAD         ACCESS:    2502708 HIT:    1275027 MISS:    1227681 MSHR_MERGE:          0
cpu0->cpu0_STLB RFO          ACCESS:          0 HIT:          0 MISS:          0 MSHR_MERGE:          0
cpu0->cpu0_STLB PREFETCH     ACCESS:          0 HIT:          0 MISS:          0 MSHR_MERGE:          0
cpu0->cpu0_STLB WRITE        ACCESS:          0 HIT:          0 MISS:          0 MSHR_MERGE:          0
cpu0->cpu0_STLB TRANSLATION  ACCESS:          0 HIT:          0 MISS:          0 MSHR_MERGE:          0
cpu0->cpu0_STLB PREFETCH REQUESTED:          0 ISSUED:          0 USEFUL:          0 USELESS:          0 LATE:          0 TOO_EARLY:          0
cpu0->cpu0_STLB AVERAGE MISS LATENCY: 32.28 cycles
cpu0->cpu0_L2C TOTAL        ACCESS:    5310651 HIT:    2902062 MISS:    2408589 MSHR_MERGE:      10790
cpu0->cpu0_L2C LOAD         ACCESS:    2285681 HIT:     170205 MISS:    2115476 MSHR_MERGE:       2006
cpu0->cpu0_L2C RFO          ACCESS:       2758 HIT:       2389 MISS:        369 MSHR_MERGE:          0
cpu0->cpu0_L2C PREFETCH     ACCESS:    1044609 HIT:     986972 MISS:      57637 MSHR_MERGE:       8784
cpu0->cpu0_L2C WRITE        ACCESS:     977282 HIT:     977279 MISS:          3 MSHR_MERGE:          0
cpu0->cpu0_L2C TRANSLATION  ACCESS:    1000321 HIT:     765217 MISS:     235104 MSHR_MERGE:          0
cpu0->cpu0_L2C PREFETCH REQUESTED:     234664 ISSUED:     234279 USEFUL:       9202 USELESS:      19512 LATE:       1888 TOO_EARLY:       9340
cpu0->cpu0_L2C AVERAGE MISS LATENCY: 181.2 cycles
cpu0->cpu0_L1I TOTAL        ACCESS:    7721057 HIT:    7720943 MISS:        114 MSHR_MERGE:         11
cpu0->cpu0_L1I LOAD         ACCESS:    7721057 HIT:    7720943 MISS:        114 MSHR_MERGE:         11
cpu0->cpu0_L1I RFO          ACCESS:          0 HIT:          0 MISS:          0 MSHR_MERGE:          0
cpu0->cpu0_L1I PREFETCH     ACCESS:          0 HIT:          0 MISS:          0 MSHR_MERGE:          0
cpu0->cpu0_L1I WRITE        ACCESS:          0 HIT:          0 MISS:          0 MSHR_MERGE:          0
cpu0->cpu0_L1I TRANSLATION  ACCESS:          0 HIT:          0 MISS:          0 MSHR_MERGE:          0
cpu0->cpu0_L1I PREFETCH REQUESTED:          0 ISSUED:          0 USEFUL:          0 USELESS:          0 LATE:          0 TOO_EARLY:          0
cpu0->cpu0_L1I AVERAGE MISS LATENCY: 203.6 cycles
cpu0->cpu0_L1D TOTAL        ACCESS:   28707253 HIT:   23458037 MISS:    5249216 MSHR_MERGE:    1149559
cpu0->cpu0_L1D LOAD         ACCESS:   18577051 HIT:   15144768 MISS:    3432283 MSHR_MERGE:    1146705
cpu0->cpu0_L1D RFO          ACCESS:          0 HIT:          0 MISS:          0 MSHR_MERGE:          0
cpu0->cpu0_L1D PREFETCH     ACCESS:    1498354 HIT:     686328 MISS:     812026 MSHR_MERGE:       1026
cpu0->cpu0_L1D WRITE        ACCESS:    6033553 HIT:    6029699 MISS:       3854 MSHR_MERGE:       1096
cpu0->cpu0_L1D TRANSLATION  ACCESS:    2598295 HIT:    1597242 MISS:    1001053 MSHR_MERGE:        732
cpu0->cpu0_L1D PREFETCH REQUESTED:    1877327 ISSUED:    1498354 USEFUL:      48058 USELESS:       4529 LATE:        260 TOO_EARLY:        317
cpu0->cpu0_L1D AVERAGE MISS LATENCY: 138.3 cycles
cpu0->cpu0_ITLB TOTAL        ACCESS:    7022917 HIT:    7022909 MISS:          8 MSHR_MERGE:          1
cpu0->cpu0_ITLB LOAD         ACCESS:    7022917 HIT:    7022909 MISS:          8 MSHR_MERGE:          1
cpu0->cpu0_ITLB RFO          ACCESS:          0 HIT:          0 MISS:          0 MSHR_MERGE:          0
cpu0->cpu0_ITLB PREFETCH     ACCESS:          0 HIT:          0 MISS:          0 MSHR_MERGE:          0
cpu0->cpu0_ITLB WRITE        ACCESS:          0 HIT:          0 MISS:          0 MSHR_MERGE:          0
cpu0->cpu0_ITLB TRANSLATION  ACCESS:          0 HIT:          0 MISS:          0 MSHR_MERGE:          0
cpu0->cpu0_ITLB PREFETCH REQUESTED:          0 ISSUED:          0 USEFUL:          0 USELESS:          0 LATE:          0 TOO_EARLY:          0
cpu0->cpu0_ITLB AVERAGE MISS LATENCY: 314.6 cycles
cpu0->cpu0_DTLB TOTAL        ACCESS:   25218686 HIT:   21817530 MISS:    3401156 MSHR_MERGE:     898455
cpu0->cpu0_DTLB LOAD         ACCESS:   25218686 HIT:   21817530 MISS:    3401156 MSHR_MERGE:     898455
cpu0->cpu0_DTLB RFO          ACCESS:          0 HIT:          0 MISS:          0 MSHR_MERGE:          0
cpu0->cpu0_DTLB PREFETCH     ACCESS:          0 HIT:          0 MISS:          0 MSHR_MERGE:          0
cpu0->cpu0_DTLB WRITE        ACCESS:          0 HIT:          0 MISS:          0 MSHR_MERGE:          0
cpu0->cpu0_DTLB TRANSLATION  ACCESS:          0 HIT:          0 MISS:          0 MSHR_MERGE:          0
cpu0->cpu0_DTLB PREFETCH REQUESTED:          0 ISSUED:          0 USEFUL:          0 USELESS:          0 LATE:          0 TOO_EARLY:          0
cpu0->cpu0_DTLB AVERAGE MISS LATENCY: 21.32 cycles
cpu0->LLC TOTAL        ACCESS:    3331389 HIT:    1193924 MISS:    2137465 MSHR_MERGE:          0
cpu0->LLC LOAD         ACCESS:    2113470 HIT:     188586 MISS:    1924884 MSHR_MERGE:          0
cpu0->LLC RFO          ACCESS:        369 HIT:        106 MISS:        263 MSHR_MERGE:          0
cpu0->LLC PREFETCH     ACCESS:      48853 HIT:       6905 MISS:      41948 MSHR_MERGE:          0
cpu0->LLC WRITE        ACCESS:     933593 HIT:     828476 MISS:     105117 MSHR_MERGE:          0
cpu0->LLC TRANSLATION  ACCESS:     235104 HIT:     169851 MISS:      65253 MSHR_MERGE:          0
cpu0->LLC PREFETCH REQUESTED:          0 ISSUED:          0 USEFUL:          0 USELESS:          0 LATE:          0 TOO_EARLY:          0
cpu0->LLC AVERAGE MISS LATENCY: 185.9 cycles

DRAM Statistics

Channel 0 RQ ROW_BUFFER_HIT:        138
  ROW_BUFFER_MISS:    2032202
  AVG DBUS CONGESTED CYCLE: 15.68
Channel 0 WQ ROW_BUFFER_HIT:     337389
  ROW_BUFFER_MISS:     564407
  FULL:          0
Channel 0 REFRESHES ISSUED:      27927

[ROI Statistics]
[System Configuration]
num_cpus 1
cpu_freq 4000
fetch_width 6
decode_width 6
dispatch_width 6
execute_width 6
lq_width 2
sq_width 2
retire_width 6
scheduler_size 128
branch_mispredict_penalty 15
rob_size 352
lq_size 128
sq_size 72
ifetch_buffer_size 64
decode_buffer_size 32
dispatch_buffer_size 32
register_file_size 288
decode_latency 1
dispatch_latency 1
schedule_latency 1
execute_latency 1
page_size 4096
block_size 64
core_0_itlb_set 16
core_0_itlb_way 4
core_0_itlb_rq_size 16
core_0_itlb_wq_size 16
core_0_itlb_pq_size 0
core_0_itlb_mshr_size 8
core_0_itlb_hit_latency 1
core_0_itlb_fill_latency 1
core_0_itlb_max_tag_check 2
core_0_itlb_max_fill 2
core_0_dtlb_set 16
core_0_dtlb_way 4
core_0_dtlb_rq_size 16
core_0_dtlb_wq_size 16
core_0_dtlb_pq_size 0
core_0_dtlb_mshr_size 8
core_0_dtlb_hit_latency 1
core_0_dtlb_fill_latency 1
core_0_dtlb_max_tag_check 2
core_0_dtlb_max_fill 2
core_0_stlb_set 128
core_0_stlb_way 12
core_0_stlb_rq_size 32
core_0_stlb_wq_size 32
core_0_stlb_pq_size 0
core_0_stlb_mshr_size 16
core_0_stlb_hit_latency 4
core_0_stlb_fill_latency 4
core_0_stlb_max_tag_check 1
core_0_stlb_max_fill 1
core_0_l1i_set 64
core_0_l1i_way 8
core_0_l1i_rq_size 64
core_0_l1i_wq_size 64
core_0_l1i_pq_size 32
core_0_l1i_mshr_size 8
core_0_l1i_hit_latency 2
core_0_l1i_fill_latency 2
core_0_l1i_max_tag_check 2
core_0_l1i_max_fill 2
core_0_l1d_set 64
core_0_l1d_way 12
core_0_l1d_rq_size 64
core_0_l1d_wq_size 64
core_0_l1d_pq_size 8
core_0_l1d_mshr_size 16
core_0_l1d_hit_latency 2
core_0_l1d_fill_latency 3
core_0_l1d_max_tag_check 2
core_0_l1d_max_fill 2
core_0_l2c_set 1024
core_0_l2c_way 8
core_0_l2c_rq_size 32
core_0_l2c_wq_size 32
core_0_l2c_pq_size 16
core_0_l2c_mshr_size 32
core_0_l2c_hit_latency 5
core_0_l2c_fill_latency 5
core_0_l2c_max_tag_check 1
core_0_l2c_max_fill 1
llc_set 2048
llc_way 16
llc_rq_size 32
llc_wq_size 32
llc_pq_size 32
llc_mshr_size 64
llc_hit_latency 10
llc_fill_latency 10
llc_max_tag_check 1
llc_max_fill 1
dram_channels 1
dram_ranks 1
dram_bankgroups 8
dram_banks 4
dram_rows 65536
dram_columns 1024
dram_channel_width 8
dram_rq_size 64
dram_wq_size 64
dram_size 17179869184
core_0_itlb_prefetcher no
core_0_dtlb_prefetcher no
core_0_stlb_prefetcher no
core_0_l1i_prefetcher next_line
core_0_l1d_prefetcher vberti
core_0_l2c_prefetcher ip_stride
llc_prefetcher no
llc_replacement drrip

Core_0_instructions 100000002
Core_0_cycles 335122140
Core_0_IPC 0.298399
Core_0_branch_prediction_accuracy 96.8101
Core_0_branch_MPKI 2.75384
Core_0_average_ROB_occupancy_at_mispredict 189.563

Core_0_ITLB_total_access 7022917
Core_0_ITLB_total_hit 7022909
Core_0_ITLB_total_miss 8
Core_0_ITLB_total_MPKI 8e-05
Core_0_ITLB_total_miss_rate 1.13913e-06
Core_0_ITLB_demand_access 7022917
Core_0_ITLB_demand_hit 7022909
Core_0_ITLB_demand_miss 8
Core_0_ITLB_demand_MPKI 8e-05
Core_0_ITLB_demand_miss_rate 1.13913e-06
Core_0_ITLB_load_access 7022917
Core_0_ITLB_load_hit 7022909
Core_0_ITLB_load_miss 8
Core_0_ITLB_load_MPKI 8e-05
Core_0_ITLB_load_miss_rate 1.13913e-06
Core_0_ITLB_rfo_access 0
Core_0_ITLB_rfo_hit 0
Core_0_ITLB_rfo_miss 0
Core_0_ITLB_rfo_MPKI 0
Core_0_ITLB_rfo_miss_rate 0
Core_0_ITLB_prefetch_access 0
Core_0_ITLB_prefetch_hit 0
Core_0_ITLB_prefetch_miss 0
Core_0_ITLB_prefetch_MPKI 0
Core_0_ITLB_prefetch_miss_rate 0
Core_0_ITLB_writeback_access 0
Core_0_ITLB_writeback_hit 0
Core_0_ITLB_writeback_miss 0
Core_0_ITLB_writeback_MPKI 0
Core_0_ITLB_writeback_miss_rate 0
Core_0_ITLB_prefetch_requested 0
Core_0_ITLB_prefetch_issued 0
Core_0_ITLB_prefetch_useful 0
Core_0_ITLB_prefetch_useless 0
Core_0_ITLB_prefetch_late 0
Core_0_ITLB_prefetch_fill 0
Core_0_ITLB_prefetch_too_early 0
Core_0_ITLB_prefetch_too_early_among_fill 0
Core_0_ITLB_prefetch_too_early_among_useless 0
Core_0_ITLB_prefetch_pollution_evict 0
Core_0_ITLB_prefetch_pollution_demand 0
Core_0_ITLB_prefetch_pollution_among_prefetch_fill 0
Core_0_ITLB_prefetch_accuracy 0
Core_0_ITLB_prefetch_coverage 0

Core_0_DTLB_total_access 25218686
Core_0_DTLB_total_hit 21817530
Core_0_DTLB_total_miss 3401156
Core_0_DTLB_total_MPKI 34.0116
Core_0_DTLB_total_miss_rate 0.134867
Core_0_DTLB_demand_access 25218686
Core_0_DTLB_demand_hit 21817530
Core_0_DTLB_demand_miss 3401156
Core_0_DTLB_demand_MPKI 34.0116
Core_0_DTLB_demand_miss_rate 0.134867
Core_0_DTLB_load_access 25218686
Core_0_DTLB_load_hit 21817530
Core_0_DTLB_load_miss 3401156
Core_0_DTLB_load_MPKI 34.0116
Core_0_DTLB_load_miss_rate 0.134867
Core_0_DTLB_rfo_access 0
Core_0_DTLB_rfo_hit 0
Core_0_DTLB_rfo_miss 0
Core_0_DTLB_rfo_MPKI 0
Core_0_DTLB_rfo_miss_rate 0
Core_0_DTLB_prefetch_access 0
Core_0_DTLB_prefetch_hit 0
Core_0_DTLB_prefetch_miss 0
Core_0_DTLB_prefetch_MPKI 0
Core_0_DTLB_prefetch_miss_rate 0
Core_0_DTLB_writeback_access 0
Core_0_DTLB_writeback_hit 0
Core_0_DTLB_writeback_miss 0
Core_0_DTLB_writeback_MPKI 0
Core_0_DTLB_writeback_miss_rate 0
Core_0_DTLB_prefetch_requested 0
Core_0_DTLB_prefetch_issued 0
Core_0_DTLB_prefetch_useful 0
Core_0_DTLB_prefetch_useless 0
Core_0_DTLB_prefetch_late 0
Core_0_DTLB_prefetch_fill 0
Core_0_DTLB_prefetch_too_early 0
Core_0_DTLB_prefetch_too_early_among_fill 0
Core_0_DTLB_prefetch_too_early_among_useless 0
Core_0_DTLB_prefetch_pollution_evict 0
Core_0_DTLB_prefetch_pollution_demand 0
Core_0_DTLB_prefetch_pollution_among_prefetch_fill 0
Core_0_DTLB_prefetch_accuracy 0
Core_0_DTLB_prefetch_coverage 0

Core_0_STLB_total_access 2502708
Core_0_STLB_total_hit 1275027
Core_0_STLB_total_miss 1227681
Core_0_STLB_total_MPKI 12.2768
Core_0_STLB_total_miss_rate 0.490541
Core_0_STLB_demand_access 2502708
Core_0_STLB_demand_hit 1275027
Core_0_STLB_demand_miss 1227681
Core_0_STLB_demand_MPKI 12.2768
Core_0_STLB_demand_miss_rate 0.490541
Core_0_STLB_load_access 2502708
Core_0_STLB_load_hit 1275027
Core_0_STLB_load_miss 1227681
Core_0_STLB_load_MPKI 12.2768
Core_0_STLB_load_miss_rate 0.490541
Core_0_STLB_rfo_access 0
Core_0_STLB_rfo_hit 0
Core_0_STLB_rfo_miss 0
Core_0_STLB_rfo_MPKI 0
Core_0_STLB_rfo_miss_rate 0
Core_0_STLB_prefetch_access 0
Core_0_STLB_prefetch_hit 0
Core_0_STLB_prefetch_miss 0
Core_0_STLB_prefetch_MPKI 0
Core_0_STLB_prefetch_miss_rate 0
Core_0_STLB_writeback_access 0
Core_0_STLB_writeback_hit 0
Core_0_STLB_writeback_miss 0
Core_0_STLB_writeback_MPKI 0
Core_0_STLB_writeback_miss_rate 0
Core_0_STLB_prefetch_requested 0
Core_0_STLB_prefetch_issued 0
Core_0_STLB_prefetch_useful 0
Core_0_STLB_prefetch_useless 0
Core_0_STLB_prefetch_late 0
Core_0_STLB_prefetch_fill 0
Core_0_STLB_prefetch_too_early 0
Core_0_STLB_prefetch_too_early_among_fill 0
Core_0_STLB_prefetch_too_early_among_useless 0
Core_0_STLB_prefetch_pollution_evict 0
Core_0_STLB_prefetch_pollution_demand 0
Core_0_STLB_prefetch_pollution_among_prefetch_fill 0
Core_0_STLB_prefetch_accuracy 0
Core_0_STLB_prefetch_coverage 0

Core_0_L1I_total_access 7721057
Core_0_L1I_total_hit 7720943
Core_0_L1I_total_miss 114
Core_0_L1I_total_MPKI 0.00114
Core_0_L1I_total_miss_rate 1.47648e-05
Core_0_L1I_demand_access 7721057
Core_0_L1I_demand_hit 7720943
Core_0_L1I_demand_miss 114
Core_0_L1I_demand_MPKI 0.00114
Core_0_L1I_demand_miss_rate 1.47648e-05
Core_0_L1I_load_access 7721057
Core_0_L1I_load_hit 7720943
Core_0_L1I_load_miss 114
Core_0_L1I_load_MPKI 0.00114
Core_0_L1I_load_miss_rate 1.47648e-05
Core_0_L1I_rfo_access 0
Core_0_L1I_rfo_hit 0
Core_0_L1I_rfo_miss 0
Core_0_L1I_rfo_MPKI 0
Core_0_L1I_rfo_miss_rate 0
Core_0_L1I_prefetch_access 0
Core_0_L1I_prefetch_hit 0
Core_0_L1I_prefetch_miss 0
Core_0_L1I_prefetch_MPKI 0
Core_0_L1I_prefetch_miss_rate 0
Core_0_L1I_writeback_access 0
Core_0_L1I_writeback_hit 0
Core_0_L1I_writeback_miss 0
Core_0_L1I_writeback_MPKI 0
Core_0_L1I_writeback_miss_rate 0
Core_0_L1I_prefetch_requested 0
Core_0_L1I_prefetch_issued 0
Core_0_L1I_prefetch_useful 0
Core_0_L1I_prefetch_useless 0
Core_0_L1I_prefetch_late 0
Core_0_L1I_prefetch_fill 0
Core_0_L1I_prefetch_too_early 0
Core_0_L1I_prefetch_too_early_among_fill 0
Core_0_L1I_prefetch_too_early_among_useless 0
Core_0_L1I_prefetch_pollution_evict 0
Core_0_L1I_prefetch_pollution_demand 0
Core_0_L1I_prefetch_pollution_among_prefetch_fill 0
Core_0_L1I_prefetch_accuracy 0
Core_0_L1I_prefetch_coverage 0

Core_0_L1D_total_access 26108958
Core_0_L1D_total_hit 21860795
Core_0_L1D_total_miss 4248163
Core_0_L1D_total_MPKI 42.4816
Core_0_L1D_total_miss_rate 0.162709
Core_0_L1D_demand_access 18577051
Core_0_L1D_demand_hit 15144768
Core_0_L1D_demand_miss 3432283
Core_0_L1D_demand_MPKI 34.3228
Core_0_L1D_demand_miss_rate 0.184759
Core_0_L1D_load_access 18577051
Core_0_L1D_load_hit 15144768
Core_0_L1D_load_miss 3432283
Core_0_L1D_load_MPKI 34.3228
Core_0_L1D_load_miss_rate 0.184759
Core_0_L1D_rfo_access 0
Core_0_L1D_rfo_hit 0
Core_0_L1D_rfo_miss 0
Core_0_L1D_rfo_MPKI 0
Core_0_L1D_rfo_miss_rate 0
Core_0_L1D_prefetch_access 1498354
Core_0_L1D_prefetch_hit 686328
Core_0_L1D_prefetch_miss 812026
Core_0_L1D_prefetch_MPKI 8.12026
Core_0_L1D_prefetch_miss_rate 0.541945
Core_0_L1D_writeback_access 6033553
Core_0_L1D_writeback_hit 6029699
Core_0_L1D_writeback_miss 3854
Core_0_L1D_writeback_MPKI 0.03854
Core_0_L1D_writeback_miss_rate 0.000638761
Core_0_L1D_prefetch_requested 1877327
Core_0_L1D_prefetch_issued 1498354
Core_0_L1D_prefetch_useful 48058
Core_0_L1D_prefetch_useless 4529
Core_0_L1D_prefetch_late 260
Core_0_L1D_prefetch_fill 52316
Core_0_L1D_prefetch_too_early 317
Core_0_L1D_prefetch_too_early_among_fill 0.00605933
Core_0_L1D_prefetch_too_early_among_useless 0.0699934
Core_0_L1D_prefetch_pollution_evict 5407
Core_0_L1D_prefetch_pollution_demand 5407
Core_0_L1D_prefetch_pollution_among_prefetch_fill 0.103353
Core_0_L1D_prefetch_accuracy 0.0320739
Core_0_L1D_prefetch_coverage 0.0138084

Core_0_L2C_total_access 4310330
Core_0_L2C_total_hit 2136845
Core_0_L2C_total_miss 2173485
Core_0_L2C_total_MPKI 21.7348
Core_0_L2C_total_miss_rate 0.50425
Core_0_L2C_demand_access 2288439
Core_0_L2C_demand_hit 172594
Core_0_L2C_demand_miss 2115845
Core_0_L2C_demand_MPKI 21.1584
Core_0_L2C_demand_miss_rate 0.92458
Core_0_L2C_load_access 2285681
Core_0_L2C_load_hit 170205
Core_0_L2C_load_miss 2115476
Core_0_L2C_load_MPKI 21.1548
Core_0_L2C_load_miss_rate 0.925534
Core_0_L2C_rfo_access 2758
Core_0_L2C_rfo_hit 2389
Core_0_L2C_rfo_miss 369
Core_0_L2C_rfo_MPKI 0.00369
Core_0_L2C_rfo_miss_rate 0.133793
Core_0_L2C_prefetch_access 1044609
Core_0_L2C_prefetch_hit 986972
Core_0_L2C_prefetch_miss 57637
Core_0_L2C_prefetch_MPKI 0.57637
Core_0_L2C_prefetch_miss_rate 0.0551757
Core_0_L2C_writeback_access 977282
Core_0_L2C_writeback_hit 977279
Core_0_L2C_writeback_miss 3
Core_0_L2C_writeback_MPKI 3e-05
Core_0_L2C_writeback_miss_rate 3.06974e-06
Core_0_L2C_prefetch_requested 234664
Core_0_L2C_prefetch_issued 234279
Core_0_L2C_prefetch_useful 9202
Core_0_L2C_prefetch_useless 19512
Core_0_L2C_prefetch_late 1888
Core_0_L2C_prefetch_fill 46847
Core_0_L2C_prefetch_too_early 9340
Core_0_L2C_prefetch_too_early_among_fill 0.199372
Core_0_L2C_prefetch_too_early_among_useless 0.47868
Core_0_L2C_prefetch_pollution_evict 21237
Core_0_L2C_prefetch_pollution_demand 21116
Core_0_L2C_prefetch_pollution_among_prefetch_fill 0.453327
Core_0_L2C_prefetch_accuracy 0.039278
Core_0_L2C_prefetch_coverage 0.00433026

Core_0_LLC_total_access 3096285
Core_0_LLC_total_hit 1024073
Core_0_LLC_total_miss 2072212
Core_0_LLC_total_MPKI 20.7221
Core_0_LLC_total_miss_rate 0.669258
Core_0_LLC_demand_access 2113839
Core_0_LLC_demand_hit 188692
Core_0_LLC_demand_miss 1925147
Core_0_LLC_demand_MPKI 19.2515
Core_0_LLC_demand_miss_rate 0.910735
Core_0_LLC_load_access 2113470
Core_0_LLC_load_hit 188586
Core_0_LLC_load_miss 1924884
Core_0_LLC_load_MPKI 19.2488
Core_0_LLC_load_miss_rate 0.910769
Core_0_LLC_rfo_access 369
Core_0_LLC_rfo_hit 106
Core_0_LLC_rfo_miss 263
Core_0_LLC_rfo_MPKI 0.00263
Core_0_LLC_rfo_miss_rate 0.712737
Core_0_LLC_prefetch_access 48853
Core_0_LLC_prefetch_hit 6905
Core_0_LLC_prefetch_miss 41948
Core_0_LLC_prefetch_MPKI 0.41948
Core_0_LLC_prefetch_miss_rate 0.858658
Core_0_LLC_writeback_access 933593
Core_0_LLC_writeback_hit 828476
Core_0_LLC_writeback_miss 105117
Core_0_LLC_writeback_MPKI 1.05117
Core_0_LLC_writeback_miss_rate 0.112594
Core_0_LLC_prefetch_requested 0
Core_0_LLC_prefetch_issued 0
Core_0_LLC_prefetch_useful 0
Core_0_LLC_prefetch_useless 0
Core_0_LLC_prefetch_late 0
Core_0_LLC_prefetch_fill 41948
Core_0_LLC_prefetch_too_early 0
Core_0_LLC_prefetch_too_early_among_fill 0
Core_0_LLC_prefetch_too_early_among_useless 0
Core_0_LLC_prefetch_pollution_evict 25290
Core_0_LLC_prefetch_pollution_demand 25290
Core_0_LLC_prefetch_pollution_among_prefetch_fill 0.602889
Core_0_LLC_prefetch_accuracy 0
Core_0_LLC_prefetch_coverage 0

[DRAM Statistics]
Channel_0_RQ_row_buffer_hit 138
Channel_0_RQ_row_buffer_miss 2032202
Channel_0_WQ_row_buffer_hit 337389
Channel_0_WQ_row_buffer_miss 564407
Channel_0_WQ_full 0
Channel_0_dbus_congested 7878510
DRAM_total_RQ_row_buffer_hit 138
DRAM_total_RQ_row_buffer_miss 2032202
DRAM_total_WQ_row_buffer_hit 337389
DRAM_total_WQ_row_buffer_miss 564407
DRAM_total_WQ_full 0
DRAM_total_dbus_congested 7878510
DRAM_avg_congested_cycle 15.6801

====== DRAM_RQ_TRAFFIC ========
DRAM_RQ_READ_TRAFFIC_BREAKDOWN:
data_demand_read.count = 1925044
data_demand_read.share = 94.72%

inst_demand_read.count = 103
inst_demand_read.share = 0.01%

cache_inst_prefetch.count = 0
cache_inst_prefetch.share = 0.00%

cache_data_prefetch.count = 41948
cache_data_prefetch.share = 2.06%

stlb_data_demand.count = 65237
stlb_data_demand.share = 3.21%

stlb_inst_demand.count = 3
stlb_inst_demand.share = 0.00%

stlb_l1i_pref.count = 0
stlb_l1i_pref.share = 0.00%

stlb_l1d_pref.count = 13
stlb_l1d_pref.share = 0.00%

DRAM_RQ_READ_TRAFFIC_SUMMARY:
cache_demand.count = 1925147
cache_demand.share = 94.73%

cache_prefetch.count = 41948
cache_prefetch.share = 2.06%

stlb_demand.count = 65240
stlb_demand.share = 3.21%

stlb_prefetch.count = 13
stlb_prefetch.share = 0.00%

DRAM_RQ_READ_TRAFFIC_DEBUG:
total_classified_read.count = 2032348
unclassified_read.count = 0
total_read_with_other.count = 2032348

classified_plus_unclassified_check.count = 2032348
dram_rq_read_total_observed.count = 2032348
dram_rq_read_total_observed.per_1K_instructions = 20.3235

STLB_MISS_PTW_DRAM_TOUCH_BREAKDOWN:
stlb_miss_total.count = 1227469

stlb_miss_touch_dram.count = 65325
stlb_miss_touch_dram.share = 5.32%

stlb_miss_no_dram_touch.count = 1162144
stlb_miss_no_dram_touch.share = 94.68%

STLB_MISS_PTW_DRAM_TOUCH_DEBUG:
stlb_miss_touch_plus_no_touch.count = 1227469
stlb_miss_total_check.count = 1227469

======STLB miss causes ========
Core_0_STLB_miss_cause_breakdown
Core_0_STLB_cause_Demand_Data_miss 1226895
Core_0_STLB_cause_Demand_Data_miss_rate 0.490227
Core_0_STLB_cause_Demand_Instruction_miss 7
Core_0_STLB_cause_Demand_Instruction_miss_rate 2.79697e-06
Core_0_STLB_cause_L1D_Prefetch_miss 779
Core_0_STLB_cause_L1D_Prefetch_miss_rate 0.000311263
Core_0_STLB_cause_L1D_Prefetch_Same_Page_miss 0
Core_0_STLB_cause_L1D_Prefetch_Same_Page_miss_rate 0
Core_0_STLB_cause_L1D_Prefetch_Cross_Page_miss 779
Core_0_STLB_cause_L1D_Prefetch_Cross_Page_miss_rate 0.000311263
Core_0_STLB_cause_L1I_Prefetch_miss 0
Core_0_STLB_cause_L1I_Prefetch_miss_rate 0
Core_0_STLB_cause_Other_miss 0
Core_0_STLB_cause_Other_miss_rate 0
Core_0_STLB_Demand_miss 1226902
Core_0_STLB_Demand_miss_rate 0.49023
Core_0_STLB_L1D_Prefetch_miss 779
Core_0_STLB_L1D_Prefetch_miss_rate 0.000311263
Core_0_STLB_Other_miss 0
Core_0_STLB_Other_miss_rate 0

========== vBerti-TLB Cross-page Flow Stats ==========

Core_0_vBerti_Requested 1877327
Core_0_vBerti_Cross_page_prefetch_in_Requested 192422
Core_0_vBerti_Same_page_prefetch_in_Requested 1684905
Core_0_vBerti_Cross_page_prefetch_of_Requested 0.102498
Core_0_vBerti_Issued 1498354
Core_0_vBerti_PQ_Drop_Rate 0.201868
Core_0_vBerti_InPQ_Cross_page_prefetch_of_Requested 0.0724397
Core_0_vBerti_Cross_page_PQ_Drop_rate 0.293256
Core_0_vBerti_Cross_page_prefetch_of_Issued 0.0907616

========= DTLB_vBerti Prefetch Stats =========
Core_0_DTLB_demand_access 24246588
Core_0_DTLB_demand_hit 20847024
Core_0_DTLB_demand_miss 3399564
Core_0_DTLB_demand_mshr_merge 898246
Core_0_DTLB_demand_fill 2501321
Core_0_DTLB_demand_miss_rate 0.140208
Core_0_DTLB_demand_mpki 33.9956
Core_0_DTLB_vberti_prefetch_access 972098
Core_0_DTLB_vberti_prefetch_hit 970506
Core_0_DTLB_vberti_prefetch_miss 1592
Core_0_DTLB_vberti_prefetch_mshr_merge 209
Core_0_DTLB_vberti_prefetch_fill 1382
Core_0_DTLB_vberti_prefetch_miss_rate 0.00163769
Core_0_DTLB_vberti_prefetch_mpki 0.01592

=== DTLB_vBerti Same/Cross-page Prefetch Stats ===
Core_0_DTLB_vberti_same_page_prefetch 876313
Core_0_DTLB_vberti_same_page_prefetch_hit 876313
Core_0_DTLB_vberti_same_page_prefetch_miss 0
Core_0_DTLB_vberti_same_page_prefetch_mshr_merge 0
Core_0_DTLB_vberti_same_page_prefetch_fill 0
Core_0_DTLB_vberti_same_page_prefetch_miss_rate 0
Core_0_DTLB_vberti_same_page_prefetch_mpki 0
Core_0_DTLB_vberti_cross_page_prefetch 95785
Core_0_DTLB_vberti_cross_page_prefetch_hit 94193
Core_0_DTLB_vberti_cross_page_prefetch_miss 1592
Core_0_DTLB_vberti_cross_page_prefetch_mshr_merge 209
Core_0_DTLB_vberti_cross_page_prefetch_fill 1382
Core_0_DTLB_vberti_cross_page_prefetch_miss_rate 0.0166206
Core_0_DTLB_vberti_cross_page_prefetch_mpki 0.01592
Core_0_DTLB_same_page_prefetch_miss_rate 0
Core_0_DTLB_same_page_prefetch_mpki 0
Core_0_DTLB_cross_page_prefetch_miss_rate 0.0166206
Core_0_DTLB_cross_page_prefetch_mpki 0.01592
Core_0_DTLB_cross_page_prefetch_issued 95785
Core_0_DTLB_cross_page_prefetch_lookups 95785
Core_0_DTLB_cross_page_prefetch_useful 79
Core_0_DTLB_cross_page_prefetch_useless 1304
Core_0_DTLB_cross_page_prefetch_late 1
Core_0_DTLB_cross_page_prefetch_too_early 92
Core_0_DTLB_cross_page_prefetch_too_early_among_fill 0.0665702
Core_0_DTLB_cross_page_prefetch_too_early_among_useless 0.0705521
Core_0_DTLB_cross_page_prefetch_pollution_evict 1303
Core_0_DTLB_cross_page_prefetch_pollution_demand 1303
Core_0_DTLB_cross_page_prefetch_pollution_among_prefetch_fill 0.942836
Core_0_DTLB_cross_page_prefetch_accuracy 0.000824764
Core_0_DTLB_cross_page_prefetch_coverage 2.32377e-05

========= STLB_vBerti Prefetch Stats =========
Core_0_STLB_demand_access 2501325
Core_0_STLB_demand_hit 1274423
Core_0_STLB_demand_miss 1226902
Core_0_STLB_demand_mshr_merge 0
Core_0_STLB_demand_fill 1226904
Core_0_STLB_demand_miss_rate 0.490501
Core_0_STLB_demand_mpki 12.269
Core_0_STLB_vberti_prefetch_access 1383
Core_0_STLB_vberti_prefetch_hit 604
Core_0_STLB_vberti_prefetch_miss 779
Core_0_STLB_vberti_prefetch_mshr_merge 0
Core_0_STLB_vberti_prefetch_fill 0
Core_0_STLB_vberti_prefetch_miss_rate 0.563268
Core_0_STLB_vberti_prefetch_mpki 0.00779

=== STLB_vBerti Same/Cross-page Prefetch Stats ===
Core_0_STLB_vberti_same_page_prefetch 0
Core_0_STLB_vberti_same_page_prefetch_hit 0
Core_0_STLB_vberti_same_page_prefetch_miss 0
Core_0_STLB_vberti_same_page_prefetch_mshr_merge 0
Core_0_STLB_vberti_same_page_prefetch_fill 0
Core_0_STLB_vberti_same_page_prefetch_miss_rate 0
Core_0_STLB_vberti_same_page_prefetch_mpki 0
Core_0_STLB_vberti_cross_page_prefetch 1383
Core_0_STLB_vberti_cross_page_prefetch_hit 604
Core_0_STLB_vberti_cross_page_prefetch_miss 779
Core_0_STLB_vberti_cross_page_prefetch_mshr_merge 0
Core_0_STLB_vberti_cross_page_prefetch_fill 0
Core_0_STLB_vberti_cross_page_prefetch_miss_rate 0.563268
Core_0_STLB_vberti_cross_page_prefetch_mpki 0.00779
Core_0_STLB_same_page_prefetch_miss_rate 0
Core_0_STLB_same_page_prefetch_mpki 0
Core_0_STLB_cross_page_prefetch_miss_rate 0.563268
Core_0_STLB_cross_page_prefetch_mpki 0.00779
Core_0_STLB_cross_page_prefetch_issued 1383
Core_0_STLB_cross_page_prefetch_lookups 1383
Core_0_STLB_cross_page_prefetch_useful 212
Core_0_STLB_cross_page_prefetch_useless 522
Core_0_STLB_cross_page_prefetch_late 212
Core_0_STLB_cross_page_prefetch_too_early 0
Core_0_STLB_cross_page_prefetch_too_early_among_fill 0
Core_0_STLB_cross_page_prefetch_too_early_among_useless 0
Core_0_STLB_cross_page_prefetch_pollution_evict 0
Core_0_STLB_cross_page_prefetch_pollution_demand 0
Core_0_STLB_cross_page_prefetch_pollution_among_prefetch_fill 0
Core_0_STLB_cross_page_prefetch_accuracy 0.15329
Core_0_STLB_cross_page_prefetch_coverage 0.000172763

========= STLB Cross-page Prefetch Buffer Stats =========
Core_0_STLB_raw_demand_miss 1226895
Core_0_CP_PB_insert 779
Core_0_CP_PB_demand_hit 212
Core_0_STLB_PB_demand_miss 1226683
Core_0_CP_PB_coverage 0.000172794
Core_0_STLB_raw_demand_mpki 12.2689
Core_0_STLB_PB_demand_mpki 12.2668
Core_0_CP_PB_demand_hit_mpki 0.00212

Core_0_TLB_demand_miss_rate 0.050601
Core_0_TLB_demand_mpki 12.269
Core_0_TLB_same_page_prefetch_miss_rate 0
Core_0_TLB_same_page_prefetch_mpki 0
Core_0_TLB_cross_page_prefetch_miss_rate 0.0081328
Core_0_TLB_cross_page_prefetch_mpki 0.00779
Core_0_TLB_cross_page_prefetch_issued 95785
Core_0_TLB_cross_page_prefetch_lookups 95785
Core_0_TLB_cross_page_prefetch_useful 73
Core_0_TLB_cross_page_prefetch_useless 1303
Core_0_TLB_cross_page_prefetch_late 1
Core_0_TLB_cross_page_prefetch_too_early 91
Core_0_TLB_cross_page_prefetch_too_early_among_fill 0.0658466
Core_0_TLB_cross_page_prefetch_too_early_among_useless 0.0698388
Core_0_TLB_cross_page_prefetch_accuracy 0.000762124
Core_0_TLB_cross_page_prefetch_coverage 5.94959e-05
BERTI TO_L1: 1097655 TO_L2: 2214553 TO_L2_BC_MSHR: 0
BERTI AVG_LAT: 124.294 NUM_TRACK_LATENCY: 3515942 NUM_CANT_TRACK_LATENCY: 0
BERTI CROSS_PAGE 340324 NO_CROSS_PAGE: 2971884
BERTI FOUND_BERTI: 16799283 NO_FOUND_BERTI: 16228072
BERTI AVERAGE_ISSUED: 3.51457
