[VMEM] WARNING: physical memory size is smaller than virtual memory size.

*** ChampSim Multicore Out-of-Order Simulator ***
Warmup Instructions: 50000000
Simulation Instructions: 100000000
Number of CPUs: 1
Page size: 4096
Core 0: /data2/zcq/champsim_traces_gap/pr.kron-90B.champsimtrace.xz
VBerti Prefetcher
BERTI HASH ENTANGLING
BERTI IP MASK ffff
Off-chip DRAM Size: 16 GiB Channels: 1 Width: 64-bit Data Rate: 3205 MT/s
Warmup halting CPU 0 at instruction 50000002 cycle 29208613 for remainder of phase
Warmup finished CPU 0 instructions: 50000002 cycles: 29208613 cumulative IPC: 1.712 (Simulation time: 00 hr 08 min 39 sec)
Warmup complete CPU 0 instructions: 50000002 cycles: 29208613 cumulative IPC: 1.712 (Simulation time: 00 hr 08 min 39 sec)
Simulation CPU 0 warning: IPC 0.023036 < 0.05
Simulation CPU 0 warning: IPC 0.025066 < 0.05
Simulation CPU 0 warning: IPC 0.026281 < 0.05
Simulation CPU 0 warning: IPC 0.022553 < 0.05
Simulation CPU 0 warning: IPC 0.022159 < 0.05
Simulation CPU 0 warning: IPC 0.022615 < 0.05
Simulation CPU 0 warning: IPC 0.023324 < 0.05
Simulation CPU 0 warning: IPC 0.023824 < 0.05
Simulation CPU 0 warning: IPC 0.023475 < 0.05
Simulation CPU 0 warning: IPC 0.022886 < 0.05
Simulation CPU 0 warning: IPC 0.023722 < 0.05
Simulation CPU 0 warning: IPC 0.02379 < 0.05
Simulation CPU 0 warning: IPC 0.023418 < 0.05
Simulation CPU 0 warning: IPC 0.022984 < 0.05
Simulation CPU 0 warning: IPC 0.022843 < 0.05
Simulation CPU 0 warning: IPC 0.022812 < 0.05
Simulation CPU 0 warning: IPC 0.0229 < 0.05
Simulation CPU 0 warning: IPC 0.023449 < 0.05
Simulation CPU 0 warning: IPC 0.024393 < 0.05
Simulation CPU 0 warning: IPC 0.02415 < 0.05
Simulation CPU 0 warning: IPC 0.023794 < 0.05
Simulation CPU 0 warning: IPC 0.023798 < 0.05
Simulation CPU 0 warning: IPC 0.023069 < 0.05
Simulation CPU 0 warning: IPC 0.024094 < 0.05
Simulation CPU 0 warning: IPC 0.024365 < 0.05
Simulation CPU 0 warning: IPC 0.025232 < 0.05
Simulation CPU 0 warning: IPC 0.023773 < 0.05
Simulation CPU 0 warning: IPC 0.023401 < 0.05
Simulation CPU 0 warning: IPC 0.022877 < 0.05
Simulation CPU 0 warning: IPC 0.022117 < 0.05
Simulation CPU 0 warning: IPC 0.023576 < 0.05
Simulation CPU 0 warning: IPC 0.025531 < 0.05
Simulation CPU 0 warning: IPC 0.024595 < 0.05
Simulation CPU 0 warning: IPC 0.023015 < 0.05
Simulation CPU 0 warning: IPC 0.023313 < 0.05
Simulation CPU 0 warning: IPC 0.023246 < 0.05
Simulation CPU 0 warning: IPC 0.023789 < 0.05
Simulation CPU 0 warning: IPC 0.024197 < 0.05
Simulation CPU 0 warning: IPC 0.023956 < 0.05
Simulation CPU 0 warning: IPC 0.025146 < 0.05
Simulation CPU 0 warning: IPC 0.024556 < 0.05
Simulation CPU 0 warning: IPC 0.024644 < 0.05
Simulation CPU 0 warning: IPC 0.02276 < 0.05
Simulation CPU 0 warning: IPC 0.02481 < 0.05
Simulation CPU 0 warning: IPC 0.023018 < 0.05
Simulation CPU 0 warning: IPC 0.023809 < 0.05
Simulation CPU 0 warning: IPC 0.022793 < 0.05
Simulation CPU 0 warning: IPC 0.022189 < 0.05
Simulation CPU 0 warning: IPC 0.024517 < 0.05
Simulation CPU 0 warning: IPC 0.02296 < 0.05
Simulation CPU 0 warning: IPC 0.023668 < 0.05
Simulation CPU 0 warning: IPC 0.023046 < 0.05
Simulation CPU 0 warning: IPC 0.024214 < 0.05
Simulation CPU 0 warning: IPC 0.023068 < 0.05
Simulation CPU 0 warning: IPC 0.023497 < 0.05
Simulation CPU 0 warning: IPC 0.023292 < 0.05
Simulation CPU 0 warning: IPC 0.022939 < 0.05
Simulation CPU 0 warning: IPC 0.023663 < 0.05
Simulation CPU 0 warning: IPC 0.022453 < 0.05
Simulation CPU 0 warning: IPC 0.024438 < 0.05
Simulation CPU 0 warning: IPC 0.023155 < 0.05
Simulation CPU 0 warning: IPC 0.022831 < 0.05
Simulation CPU 0 warning: IPC 0.023308 < 0.05
Simulation CPU 0 warning: IPC 0.022118 < 0.05
Simulation CPU 0 warning: IPC 0.02344 < 0.05
Simulation CPU 0 warning: IPC 0.022448 < 0.05
Simulation CPU 0 warning: IPC 0.024102 < 0.05
Simulation CPU 0 warning: IPC 0.024503 < 0.05
Simulation CPU 0 warning: IPC 0.024851 < 0.05
Simulation CPU 0 warning: IPC 0.024408 < 0.05
Simulation CPU 0 warning: IPC 0.023973 < 0.05
Simulation CPU 0 warning: IPC 0.02352 < 0.05
Simulation CPU 0 warning: IPC 0.022333 < 0.05
Simulation CPU 0 warning: IPC 0.022296 < 0.05
Simulation CPU 0 warning: IPC 0.02217 < 0.05
Simulation CPU 0 warning: IPC 0.024079 < 0.05
Simulation CPU 0 warning: IPC 0.023012 < 0.05
Simulation CPU 0 warning: IPC 0.02261 < 0.05
Simulation CPU 0 warning: IPC 0.023149 < 0.05
Simulation CPU 0 warning: IPC 0.023246 < 0.05
Simulation CPU 0 warning: IPC 0.024518 < 0.05
Simulation CPU 0 warning: IPC 0.022538 < 0.05
Simulation CPU 0 warning: IPC 0.024296 < 0.05
Simulation CPU 0 warning: IPC 0.023539 < 0.05
Simulation CPU 0 warning: IPC 0.024197 < 0.05
Simulation CPU 0 warning: IPC 0.024371 < 0.05
Simulation CPU 0 warning: IPC 0.024367 < 0.05
Simulation CPU 0 warning: IPC 0.023582 < 0.05
Simulation CPU 0 warning: IPC 0.024926 < 0.05
Simulation CPU 0 warning: IPC 0.023173 < 0.05
Simulation CPU 0 warning: IPC 0.022125 < 0.05
Simulation CPU 0 warning: IPC 0.024411 < 0.05
Simulation CPU 0 warning: IPC 0.022631 < 0.05
Simulation CPU 0 warning: IPC 0.022633 < 0.05
Simulation CPU 0 warning: IPC 0.024137 < 0.05
Simulation CPU 0 warning: IPC 0.022698 < 0.05
Simulation CPU 0 warning: IPC 0.022176 < 0.05
Simulation CPU 0 warning: IPC 0.02316 < 0.05
Simulation CPU 0 warning: IPC 0.023415 < 0.05
Simulation CPU 0 warning: IPC 0.023732 < 0.05
Simulation CPU 0 warning: IPC 0.023257 < 0.05
Simulation CPU 0 warning: IPC 0.023557 < 0.05
Simulation CPU 0 warning: IPC 0.023435 < 0.05
Simulation CPU 0 warning: IPC 0.023496 < 0.05
Simulation CPU 0 warning: IPC 0.024979 < 0.05
Simulation CPU 0 warning: IPC 0.022678 < 0.05
Simulation CPU 0 warning: IPC 0.024172 < 0.05
Simulation CPU 0 warning: IPC 0.023261 < 0.05
Simulation CPU 0 warning: IPC 0.023224 < 0.05
Simulation CPU 0 warning: IPC 0.022795 < 0.05
Simulation CPU 0 warning: IPC 0.022417 < 0.05
Simulation CPU 0 warning: IPC 0.022811 < 0.05
Simulation CPU 0 warning: IPC 0.023598 < 0.05
Simulation CPU 0 warning: IPC 0.024527 < 0.05
Simulation CPU 0 warning: IPC 0.023877 < 0.05
Simulation CPU 0 warning: IPC 0.024199 < 0.05
Simulation CPU 0 warning: IPC 0.023449 < 0.05
Simulation CPU 0 warning: IPC 0.023616 < 0.05
Simulation CPU 0 warning: IPC 0.025739 < 0.05
Simulation CPU 0 warning: IPC 0.02424 < 0.05
Simulation CPU 0 warning: IPC 0.023724 < 0.05
Simulation CPU 0 warning: IPC 0.023942 < 0.05
Simulation CPU 0 warning: IPC 0.024168 < 0.05
Simulation CPU 0 warning: IPC 0.02482 < 0.05
Simulation CPU 0 warning: IPC 0.023884 < 0.05
Simulation CPU 0 warning: IPC 0.022886 < 0.05
Simulation CPU 0 warning: IPC 0.023779 < 0.05
Simulation CPU 0 warning: IPC 0.024774 < 0.05
Simulation CPU 0 warning: IPC 0.024461 < 0.05
Simulation CPU 0 warning: IPC 0.024415 < 0.05
Simulation CPU 0 warning: IPC 0.0226 < 0.05
Simulation CPU 0 warning: IPC 0.022108 < 0.05
Simulation CPU 0 warning: IPC 0.023131 < 0.05
Simulation CPU 0 warning: IPC 0.024596 < 0.05
Simulation CPU 0 warning: IPC 0.023939 < 0.05
Simulation CPU 0 warning: IPC 0.022804 < 0.05
Simulation CPU 0 warning: IPC 0.022832 < 0.05
Simulation CPU 0 warning: IPC 0.024462 < 0.05
Simulation CPU 0 warning: IPC 0.022248 < 0.05
Simulation CPU 0 warning: IPC 0.023139 < 0.05
Simulation CPU 0 warning: IPC 0.024839 < 0.05
Simulation CPU 0 warning: IPC 0.023668 < 0.05
Simulation CPU 0 warning: IPC 0.023177 < 0.05
Simulation CPU 0 warning: IPC 0.024494 < 0.05
Simulation CPU 0 warning: IPC 0.022549 < 0.05
Simulation CPU 0 warning: IPC 0.022595 < 0.05
Simulation CPU 0 warning: IPC 0.02258 < 0.05
Simulation CPU 0 warning: IPC 0.022456 < 0.05
Simulation CPU 0 warning: IPC 0.022569 < 0.05
Simulation CPU 0 warning: IPC 0.023269 < 0.05
Simulation CPU 0 warning: IPC 0.023817 < 0.05
Simulation CPU 0 warning: IPC 0.023659 < 0.05
Simulation CPU 0 warning: IPC 0.023802 < 0.05
Simulation CPU 0 warning: IPC 0.024001 < 0.05
Simulation CPU 0 warning: IPC 0.0237 < 0.05
Simulation CPU 0 warning: IPC 0.023579 < 0.05
Simulation CPU 0 warning: IPC 0.023564 < 0.05
Simulation CPU 0 warning: IPC 0.02228 < 0.05
Simulation CPU 0 warning: IPC 0.02124 < 0.05
Simulation CPU 0 warning: IPC 0.023152 < 0.05
Simulation CPU 0 warning: IPC 0.022454 < 0.05
Simulation CPU 0 warning: IPC 0.023272 < 0.05
Simulation CPU 0 warning: IPC 0.023348 < 0.05
Simulation CPU 0 warning: IPC 0.022975 < 0.05
Simulation CPU 0 warning: IPC 0.021683 < 0.05
Simulation CPU 0 warning: IPC 0.022876 < 0.05
Simulation CPU 0 warning: IPC 0.023067 < 0.05
Simulation CPU 0 warning: IPC 0.022647 < 0.05
Simulation CPU 0 warning: IPC 0.021399 < 0.05
Simulation CPU 0 warning: IPC 0.023536 < 0.05
Simulation CPU 0 warning: IPC 0.024202 < 0.05
Simulation CPU 0 warning: IPC 0.024292 < 0.05
Simulation CPU 0 warning: IPC 0.022446 < 0.05
Simulation CPU 0 warning: IPC 0.022139 < 0.05
Simulation CPU 0 warning: IPC 0.023472 < 0.05
Simulation CPU 0 warning: IPC 0.023177 < 0.05
Simulation CPU 0 warning: IPC 0.022077 < 0.05
Simulation CPU 0 warning: IPC 0.024253 < 0.05
Simulation CPU 0 warning: IPC 0.023087 < 0.05
Simulation CPU 0 warning: IPC 0.023328 < 0.05
Simulation CPU 0 warning: IPC 0.022813 < 0.05
Simulation CPU 0 warning: IPC 0.023169 < 0.05
Simulation CPU 0 warning: IPC 0.022881 < 0.05
Simulation CPU 0 warning: IPC 0.023406 < 0.05
Simulation CPU 0 warning: IPC 0.024176 < 0.05
Simulation CPU 0 warning: IPC 0.024909 < 0.05
Simulation CPU 0 warning: IPC 0.022437 < 0.05
Simulation CPU 0 warning: IPC 0.023761 < 0.05
Simulation CPU 0 warning: IPC 0.023608 < 0.05
Simulation CPU 0 warning: IPC 0.023963 < 0.05
Simulation CPU 0 warning: IPC 0.023408 < 0.05
Simulation CPU 0 warning: IPC 0.023769 < 0.05
Simulation CPU 0 warning: IPC 0.02386 < 0.05
Simulation CPU 0 warning: IPC 0.024703 < 0.05
Simulation CPU 0 warning: IPC 0.023912 < 0.05
Simulation CPU 0 warning: IPC 0.023475 < 0.05
Simulation CPU 0 warning: IPC 0.022933 < 0.05
Simulation CPU 0 warning: IPC 0.02262 < 0.05
Simulation CPU 0 warning: IPC 0.02365 < 0.05
Simulation CPU 0 warning: IPC 0.023683 < 0.05
Simulation CPU 0 warning: IPC 0.022984 < 0.05
Simulation CPU 0 warning: IPC 0.022538 < 0.05
Simulation CPU 0 warning: IPC 0.022058 < 0.05
Simulation CPU 0 warning: IPC 0.023066 < 0.05
Simulation CPU 0 warning: IPC 0.024441 < 0.05
Simulation CPU 0 warning: IPC 0.023264 < 0.05
Simulation CPU 0 warning: IPC 0.024233 < 0.05
Simulation CPU 0 warning: IPC 0.024859 < 0.05
Simulation CPU 0 warning: IPC 0.023377 < 0.05
Simulation CPU 0 warning: IPC 0.023431 < 0.05
Simulation CPU 0 warning: IPC 0.022672 < 0.05
Simulation CPU 0 warning: IPC 0.022499 < 0.05
Simulation CPU 0 warning: IPC 0.024457 < 0.05
Simulation CPU 0 warning: IPC 0.024118 < 0.05
Simulation CPU 0 warning: IPC 0.022967 < 0.05
Simulation CPU 0 warning: IPC 0.024501 < 0.05
Simulation CPU 0 warning: IPC 0.02486 < 0.05
Simulation CPU 0 warning: IPC 0.022892 < 0.05
Simulation CPU 0 warning: IPC 0.023784 < 0.05
Simulation CPU 0 warning: IPC 0.023201 < 0.05
Simulation CPU 0 warning: IPC 0.023599 < 0.05
Simulation CPU 0 warning: IPC 0.02355 < 0.05
Simulation CPU 0 warning: IPC 0.024681 < 0.05
Simulation CPU 0 warning: IPC 0.023124 < 0.05
Simulation CPU 0 warning: IPC 0.023092 < 0.05
Simulation CPU 0 warning: IPC 0.024703 < 0.05
Simulation CPU 0 warning: IPC 0.02314 < 0.05
Simulation CPU 0 warning: IPC 0.024454 < 0.05
Simulation CPU 0 warning: IPC 0.025739 < 0.05
Simulation CPU 0 warning: IPC 0.02244 < 0.05
Simulation CPU 0 warning: IPC 0.023224 < 0.05
Simulation CPU 0 warning: IPC 0.023527 < 0.05
Simulation CPU 0 warning: IPC 0.023886 < 0.05
Simulation CPU 0 warning: IPC 0.023252 < 0.05
Simulation CPU 0 warning: IPC 0.022923 < 0.05
Simulation CPU 0 warning: IPC 0.024057 < 0.05
Simulation CPU 0 warning: IPC 0.024238 < 0.05
Simulation CPU 0 warning: IPC 0.022882 < 0.05
Simulation CPU 0 warning: IPC 0.023905 < 0.05
Simulation CPU 0 warning: IPC 0.022602 < 0.05
Simulation CPU 0 warning: IPC 0.023813 < 0.05
Simulation CPU 0 warning: IPC 0.024518 < 0.05
Simulation CPU 0 warning: IPC 0.02391 < 0.05
Simulation CPU 0 warning: IPC 0.022301 < 0.05
Simulation CPU 0 warning: IPC 0.021619 < 0.05
Simulation CPU 0 warning: IPC 0.023745 < 0.05
Simulation CPU 0 warning: IPC 0.023512 < 0.05
Simulation CPU 0 warning: IPC 0.02212 < 0.05
Simulation CPU 0 warning: IPC 0.022142 < 0.05
Simulation CPU 0 warning: IPC 0.023475 < 0.05
Simulation CPU 0 warning: IPC 0.022172 < 0.05
Simulation CPU 0 warning: IPC 0.023473 < 0.05
Simulation CPU 0 warning: IPC 0.024134 < 0.05
Simulation CPU 0 warning: IPC 0.025018 < 0.05
Simulation CPU 0 warning: IPC 0.023877 < 0.05
Simulation CPU 0 warning: IPC 0.023438 < 0.05
Simulation CPU 0 warning: IPC 0.023384 < 0.05
Simulation CPU 0 warning: IPC 0.023032 < 0.05
Simulation CPU 0 warning: IPC 0.024027 < 0.05
Simulation CPU 0 warning: IPC 0.023281 < 0.05
Simulation CPU 0 warning: IPC 0.023089 < 0.05
Simulation CPU 0 warning: IPC 0.024192 < 0.05
Simulation CPU 0 warning: IPC 0.024472 < 0.05
Simulation CPU 0 warning: IPC 0.024244 < 0.05
Simulation CPU 0 warning: IPC 0.022471 < 0.05
Simulation CPU 0 warning: IPC 0.023432 < 0.05
Simulation CPU 0 warning: IPC 0.022414 < 0.05
Simulation CPU 0 warning: IPC 0.024328 < 0.05
Simulation CPU 0 warning: IPC 0.023154 < 0.05
Simulation CPU 0 warning: IPC 0.024347 < 0.05
Simulation CPU 0 warning: IPC 0.022243 < 0.05
Simulation CPU 0 warning: IPC 0.023102 < 0.05
Simulation CPU 0 warning: IPC 0.024637 < 0.05
Simulation CPU 0 warning: IPC 0.023472 < 0.05
Simulation CPU 0 warning: IPC 0.023532 < 0.05
Simulation CPU 0 warning: IPC 0.023095 < 0.05
Simulation CPU 0 warning: IPC 0.023495 < 0.05
Simulation CPU 0 warning: IPC 0.02419 < 0.05
Simulation CPU 0 warning: IPC 0.022238 < 0.05
Simulation CPU 0 warning: IPC 0.023599 < 0.05
Simulation CPU 0 warning: IPC 0.02422 < 0.05
Simulation CPU 0 warning: IPC 0.022825 < 0.05
Simulation CPU 0 warning: IPC 0.023906 < 0.05
Simulation CPU 0 warning: IPC 0.023736 < 0.05
Simulation CPU 0 warning: IPC 0.022196 < 0.05
Simulation CPU 0 warning: IPC 0.022179 < 0.05
Simulation CPU 0 warning: IPC 0.024646 < 0.05
Simulation CPU 0 warning: IPC 0.023968 < 0.05
Simulation CPU 0 warning: IPC 0.023799 < 0.05
Simulation CPU 0 warning: IPC 0.022848 < 0.05
Simulation CPU 0 warning: IPC 0.024802 < 0.05
Simulation CPU 0 warning: IPC 0.02388 < 0.05
Simulation CPU 0 warning: IPC 0.024704 < 0.05
Simulation CPU 0 warning: IPC 0.022989 < 0.05
Simulation CPU 0 warning: IPC 0.02247 < 0.05
Simulation CPU 0 warning: IPC 0.024818 < 0.05
Simulation CPU 0 warning: IPC 0.023529 < 0.05
Simulation CPU 0 warning: IPC 0.024246 < 0.05
Simulation CPU 0 warning: IPC 0.022713 < 0.05
Simulation CPU 0 warning: IPC 0.0236 < 0.05
Simulation CPU 0 warning: IPC 0.023926 < 0.05
Simulation CPU 0 warning: IPC 0.024053 < 0.05
Simulation CPU 0 warning: IPC 0.025329 < 0.05
Simulation CPU 0 warning: IPC 0.02403 < 0.05
Simulation CPU 0 warning: IPC 0.022534 < 0.05
Simulation CPU 0 warning: IPC 0.022566 < 0.05
Simulation CPU 0 warning: IPC 0.023556 < 0.05
Simulation CPU 0 warning: IPC 0.023839 < 0.05
Simulation CPU 0 warning: IPC 0.023921 < 0.05
Simulation CPU 0 warning: IPC 0.024094 < 0.05
Simulation CPU 0 warning: IPC 0.023765 < 0.05
Simulation CPU 0 warning: IPC 0.025236 < 0.05
Simulation CPU 0 warning: IPC 0.02412 < 0.05
Simulation CPU 0 warning: IPC 0.023199 < 0.05
Simulation CPU 0 warning: IPC 0.024382 < 0.05
Simulation CPU 0 warning: IPC 0.025056 < 0.05
Simulation CPU 0 warning: IPC 0.023612 < 0.05
Simulation CPU 0 warning: IPC 0.023167 < 0.05
Simulation CPU 0 warning: IPC 0.024256 < 0.05
Simulation CPU 0 warning: IPC 0.024694 < 0.05
Simulation CPU 0 warning: IPC 0.025357 < 0.05
Simulation CPU 0 warning: IPC 0.024691 < 0.05
Simulation CPU 0 warning: IPC 0.024482 < 0.05
Simulation CPU 0 warning: IPC 0.025268 < 0.05
Simulation CPU 0 warning: IPC 0.023885 < 0.05
Simulation CPU 0 warning: IPC 0.022963 < 0.05
Simulation CPU 0 warning: IPC 0.022564 < 0.05
Simulation CPU 0 warning: IPC 0.022707 < 0.05
Simulation CPU 0 warning: IPC 0.024159 < 0.05
Simulation CPU 0 warning: IPC 0.02329 < 0.05
Simulation CPU 0 warning: IPC 0.023155 < 0.05
Simulation CPU 0 warning: IPC 0.024072 < 0.05
Simulation CPU 0 warning: IPC 0.023337 < 0.05
Simulation CPU 0 warning: IPC 0.023962 < 0.05
Simulation CPU 0 warning: IPC 0.022893 < 0.05
Simulation CPU 0 warning: IPC 0.02252 < 0.05
Simulation CPU 0 warning: IPC 0.021592 < 0.05
Simulation CPU 0 warning: IPC 0.022977 < 0.05
Simulation CPU 0 warning: IPC 0.023527 < 0.05
Simulation CPU 0 warning: IPC 0.024871 < 0.05
Simulation CPU 0 warning: IPC 0.023417 < 0.05
Simulation CPU 0 warning: IPC 0.02395 < 0.05
Simulation CPU 0 warning: IPC 0.025261 < 0.05
Simulation CPU 0 warning: IPC 0.024731 < 0.05
Simulation CPU 0 warning: IPC 0.024463 < 0.05
Simulation CPU 0 warning: IPC 0.023733 < 0.05
Simulation CPU 0 warning: IPC 0.02284 < 0.05
Simulation CPU 0 warning: IPC 0.023659 < 0.05
Simulation CPU 0 warning: IPC 0.023813 < 0.05
Simulation CPU 0 warning: IPC 0.02243 < 0.05
Simulation CPU 0 warning: IPC 0.025082 < 0.05
Simulation CPU 0 warning: IPC 0.022832 < 0.05
Simulation CPU 0 warning: IPC 0.023662 < 0.05
Simulation CPU 0 warning: IPC 0.024039 < 0.05
Simulation CPU 0 warning: IPC 0.024118 < 0.05
Simulation CPU 0 warning: IPC 0.024309 < 0.05
Simulation CPU 0 warning: IPC 0.024349 < 0.05
Simulation CPU 0 warning: IPC 0.024993 < 0.05
Simulation CPU 0 warning: IPC 0.025042 < 0.05
Simulation CPU 0 warning: IPC 0.024408 < 0.05
Simulation CPU 0 warning: IPC 0.023817 < 0.05
Simulation CPU 0 warning: IPC 0.024348 < 0.05
Simulation CPU 0 warning: IPC 0.023441 < 0.05
Simulation CPU 0 warning: IPC 0.024711 < 0.05
Simulation CPU 0 warning: IPC 0.023696 < 0.05
Simulation CPU 0 warning: IPC 0.022802 < 0.05
Simulation CPU 0 warning: IPC 0.023217 < 0.05
Simulation CPU 0 warning: IPC 0.024381 < 0.05
Simulation CPU 0 warning: IPC 0.024012 < 0.05
Simulation CPU 0 warning: IPC 0.023798 < 0.05
Simulation CPU 0 warning: IPC 0.023603 < 0.05
Simulation CPU 0 warning: IPC 0.023287 < 0.05
Simulation CPU 0 warning: IPC 0.02213 < 0.05
Simulation CPU 0 warning: IPC 0.022161 < 0.05
Simulation CPU 0 warning: IPC 0.022541 < 0.05
Simulation CPU 0 warning: IPC 0.023901 < 0.05
Simulation CPU 0 warning: IPC 0.024036 < 0.05
Simulation CPU 0 warning: IPC 0.024681 < 0.05
Simulation CPU 0 warning: IPC 0.023322 < 0.05
Simulation CPU 0 warning: IPC 0.024815 < 0.05
Simulation CPU 0 warning: IPC 0.023083 < 0.05
Simulation CPU 0 warning: IPC 0.022359 < 0.05
Simulation CPU 0 warning: IPC 0.024738 < 0.05
Simulation CPU 0 warning: IPC 0.023628 < 0.05
Simulation CPU 0 warning: IPC 0.023335 < 0.05
Simulation CPU 0 warning: IPC 0.023848 < 0.05
Simulation CPU 0 warning: IPC 0.021865 < 0.05
Simulation CPU 0 warning: IPC 0.023291 < 0.05
Simulation CPU 0 warning: IPC 0.024651 < 0.05
Simulation CPU 0 warning: IPC 0.023456 < 0.05
Simulation CPU 0 warning: IPC 0.023134 < 0.05
Simulation CPU 0 warning: IPC 0.023307 < 0.05
Simulation CPU 0 warning: IPC 0.024621 < 0.05
Simulation CPU 0 warning: IPC 0.024161 < 0.05
Simulation CPU 0 warning: IPC 0.024638 < 0.05
Simulation CPU 0 warning: IPC 0.024177 < 0.05
Simulation CPU 0 warning: IPC 0.02407 < 0.05
Simulation CPU 0 warning: IPC 0.023118 < 0.05
Simulation CPU 0 warning: IPC 0.02425 < 0.05
Simulation CPU 0 warning: IPC 0.023352 < 0.05
Simulation CPU 0 warning: IPC 0.024698 < 0.05
Simulation CPU 0 warning: IPC 0.023821 < 0.05
Simulation CPU 0 warning: IPC 0.023019 < 0.05
Simulation CPU 0 warning: IPC 0.023852 < 0.05
Simulation CPU 0 warning: IPC 0.023404 < 0.05
Simulation CPU 0 warning: IPC 0.023177 < 0.05
Simulation CPU 0 warning: IPC 0.023975 < 0.05
Simulation CPU 0 warning: IPC 0.022447 < 0.05
Simulation CPU 0 warning: IPC 0.023134 < 0.05
Simulation CPU 0 warning: IPC 0.02307 < 0.05
Simulation CPU 0 warning: IPC 0.024042 < 0.05
Simulation CPU 0 warning: IPC 0.02443 < 0.05
Simulation CPU 0 warning: IPC 0.022718 < 0.05
Simulation CPU 0 warning: IPC 0.022951 < 0.05
Simulation CPU 0 warning: IPC 0.024643 < 0.05
Simulation CPU 0 warning: IPC 0.022996 < 0.05
Simulation CPU 0 warning: IPC 0.024371 < 0.05
Simulation CPU 0 warning: IPC 0.02418 < 0.05
Simulation CPU 0 warning: IPC 0.023539 < 0.05
Simulation CPU 0 warning: IPC 0.023973 < 0.05
Simulation CPU 0 warning: IPC 0.024263 < 0.05
Simulation CPU 0 warning: IPC 0.023876 < 0.05
Simulation CPU 0 warning: IPC 0.024001 < 0.05
Simulation CPU 0 warning: IPC 0.024903 < 0.05
Simulation finished CPU 0 instructions: 100000003 cycles: 4242109223 cumulative IPC: 0.02357 (Simulation time: 05 hr 53 min 37 sec)
Simulation complete CPU 0 instructions: 100000003 cycles: 4242109223 cumulative IPC: 0.02357 (Simulation time: 05 hr 53 min 37 sec)

ChampSim completed all CPUs

=== Simulation ===
CPU 0 runs /data2/zcq/champsim_traces_gap/pr.kron-90B.champsimtrace.xz

Region of Interest Statistics

CPU 0 cumulative IPC: 0.02357 instructions: 100000003 cycles: 4242109223
CPU 0 Branch Prediction Accuracy: 97.3% MPKI: 5.276 Average ROB Occupancy at Mispredict: 240.3
Branch type MPKI
BRANCH_DIRECT_JUMP: 0
BRANCH_INDIRECT: 0
BRANCH_CONDITIONAL: 5.276
BRANCH_DIRECT_CALL: 0
BRANCH_INDIRECT_CALL: 0
BRANCH_RETURN: 0

cpu0->cpu0_STLB TOTAL        ACCESS:   17064594 HIT:     259169 MISS:   16805425 MSHR_MERGE:          0
cpu0->cpu0_STLB LOAD         ACCESS:   17064594 HIT:     259169 MISS:   16805425 MSHR_MERGE:          0
cpu0->cpu0_STLB RFO          ACCESS:          0 HIT:          0 MISS:          0 MSHR_MERGE:          0
cpu0->cpu0_STLB PREFETCH     ACCESS:          0 HIT:          0 MISS:          0 MSHR_MERGE:          0
cpu0->cpu0_STLB WRITE        ACCESS:          0 HIT:          0 MISS:          0 MSHR_MERGE:          0
cpu0->cpu0_STLB TRANSLATION  ACCESS:          0 HIT:          0 MISS:          0 MSHR_MERGE:          0
cpu0->cpu0_STLB PREFETCH REQUESTED:          0 ISSUED:          0 USEFUL:          0 USELESS:          0 LATE:          0 TOO_EARLY:          0
cpu0->cpu0_STLB AVERAGE MISS LATENCY: 35.36 cycles
cpu0->cpu0_L2C TOTAL        ACCESS:   39783721 HIT:    8448480 MISS:   31335241 MSHR_MERGE:      27423
cpu0->cpu0_L2C LOAD         ACCESS:   18099459 HIT:     266323 MISS:   17833136 MSHR_MERGE:        973
cpu0->cpu0_L2C RFO          ACCESS:      15672 HIT:      13567 MISS:       2105 MSHR_MERGE:          0
cpu0->cpu0_L2C PREFETCH     ACCESS:    6888936 HIT:    5581449 MISS:    1307487 MSHR_MERGE:      26450
cpu0->cpu0_L2C WRITE        ACCESS:      64078 HIT:      64074 MISS:          4 MSHR_MERGE:          0
cpu0->cpu0_L2C TRANSLATION  ACCESS:   14715576 HIT:    2523067 MISS:   12192509 MSHR_MERGE:          0
cpu0->cpu0_L2C PREFETCH REQUESTED:    3437592 ISSUED:    3437585 USEFUL:     993433 USELESS:      39415 LATE:        931 TOO_EARLY:       3954
cpu0->cpu0_L2C AVERAGE MISS LATENCY: 115.5 cycles
cpu0->cpu0_L1I TOTAL        ACCESS:   14893920 HIT:   14893920 MISS:          0 MSHR_MERGE:          0
cpu0->cpu0_L1I LOAD         ACCESS:   14893920 HIT:   14893920 MISS:          0 MSHR_MERGE:          0
cpu0->cpu0_L1I RFO          ACCESS:          0 HIT:          0 MISS:          0 MSHR_MERGE:          0
cpu0->cpu0_L1I PREFETCH     ACCESS:          0 HIT:          0 MISS:          0 MSHR_MERGE:          0
cpu0->cpu0_L1I WRITE        ACCESS:          0 HIT:          0 MISS:          0 MSHR_MERGE:          0
cpu0->cpu0_L1I TRANSLATION  ACCESS:          0 HIT:          0 MISS:          0 MSHR_MERGE:          0
cpu0->cpu0_L1I PREFETCH REQUESTED:          0 ISSUED:          0 USEFUL:          0 USELESS:          0 LATE:          0 TOO_EARLY:          0
cpu0->cpu0_L1I AVERAGE MISS LATENCY: - cycles
cpu0->cpu0_L1D TOTAL        ACCESS:   99758562 HIT:   63361276 MISS:   36397286 MSHR_MERGE:     112573
cpu0->cpu0_L1D LOAD         ACCESS:   37625328 HIT:   19468418 MISS:   18156910 MSHR_MERGE:      57452
cpu0->cpu0_L1D RFO          ACCESS:          0 HIT:          0 MISS:          0 MSHR_MERGE:          0
cpu0->cpu0_L1D PREFETCH     ACCESS:   22396051 HIT:   18918219 MISS:    3477832 MSHR_MERGE:      23824
cpu0->cpu0_L1D WRITE        ACCESS:     628321 HIT:     581355 MISS:      46966 MSHR_MERGE:      31294
cpu0->cpu0_L1D TRANSLATION  ACCESS:   39108862 HIT:   24393284 MISS:   14715578 MSHR_MERGE:          3
cpu0->cpu0_L1D PREFETCH REQUESTED:   23977467 ISSUED:   22396043 USEFUL:    1225312 USELESS:      42208 LATE:       4345 TOO_EARLY:       2257
cpu0->cpu0_L1D AVERAGE MISS LATENCY: 114.6 cycles
cpu0->cpu0_ITLB TOTAL        ACCESS:   14893920 HIT:   14893920 MISS:          0 MSHR_MERGE:          0
cpu0->cpu0_ITLB LOAD         ACCESS:   14893920 HIT:   14893920 MISS:          0 MSHR_MERGE:          0
cpu0->cpu0_ITLB RFO          ACCESS:          0 HIT:          0 MISS:          0 MSHR_MERGE:          0
cpu0->cpu0_ITLB PREFETCH     ACCESS:          0 HIT:          0 MISS:          0 MSHR_MERGE:          0
cpu0->cpu0_ITLB WRITE        ACCESS:          0 HIT:          0 MISS:          0 MSHR_MERGE:          0
cpu0->cpu0_ITLB TRANSLATION  ACCESS:          0 HIT:          0 MISS:          0 MSHR_MERGE:          0
cpu0->cpu0_ITLB PREFETCH REQUESTED:          0 ISSUED:          0 USEFUL:          0 USELESS:          0 LATE:          0 TOO_EARLY:          0
cpu0->cpu0_ITLB AVERAGE MISS LATENCY: - cycles
cpu0->cpu0_DTLB TOTAL        ACCESS:   58458326 HIT:   41348849 MISS:   17109477 MSHR_MERGE:      44883
cpu0->cpu0_DTLB LOAD         ACCESS:   58458326 HIT:   41348849 MISS:   17109477 MSHR_MERGE:      44883
cpu0->cpu0_DTLB RFO          ACCESS:          0 HIT:          0 MISS:          0 MSHR_MERGE:          0
cpu0->cpu0_DTLB PREFETCH     ACCESS:          0 HIT:          0 MISS:          0 MSHR_MERGE:          0
cpu0->cpu0_DTLB WRITE        ACCESS:          0 HIT:          0 MISS:          0 MSHR_MERGE:          0
cpu0->cpu0_DTLB TRANSLATION  ACCESS:          0 HIT:          0 MISS:          0 MSHR_MERGE:          0
cpu0->cpu0_DTLB PREFETCH REQUESTED:          0 ISSUED:          0 USEFUL:          0 USELESS:          0 LATE:          0 TOO_EARLY:          0
cpu0->cpu0_DTLB AVERAGE MISS LATENCY: 40.8 cycles
cpu0->LLC TOTAL        ACCESS:   31345993 HIT:   13344700 MISS:   18001293 MSHR_MERGE:          1
cpu0->LLC LOAD         ACCESS:   17832163 HIT:    1565705 MISS:   16266458 MSHR_MERGE:          0
cpu0->LLC RFO          ACCESS:       2105 HIT:       2097 MISS:          8 MSHR_MERGE:          0
cpu0->LLC PREFETCH     ACCESS:    1281037 HIT:       1211 MISS:    1279826 MSHR_MERGE:          1
cpu0->LLC WRITE        ACCESS:      38179 HIT:      11450 MISS:      26729 MSHR_MERGE:          0
cpu0->LLC TRANSLATION  ACCESS:   12192509 HIT:   11764237 MISS:     428272 MSHR_MERGE:          0
cpu0->LLC PREFETCH REQUESTED:          0 ISSUED:          0 USEFUL:          0 USELESS:          0 LATE:          0 TOO_EARLY:          0
cpu0->LLC AVERAGE MISS LATENCY: 179.6 cycles

DRAM Statistics

Channel 0 RQ ROW_BUFFER_HIT:      26872
  ROW_BUFFER_MISS:   17947690
  AVG DBUS CONGESTED CYCLE: 14.71
Channel 0 WQ ROW_BUFFER_HIT:       5093
  ROW_BUFFER_MISS:      29377
  FULL:          0
Channel 0 REFRESHES ISSUED:     353509

[ROI Statistics]
[System Configuration]
num_cpus 1
cpu_freq 4000
fetch_width 6
decode_width 6
dispatch_width 6
execute_width 6
lq_width 2
sq_width 2
retire_width 6
scheduler_size 128
branch_mispredict_penalty 15
rob_size 352
lq_size 128
sq_size 72
ifetch_buffer_size 64
decode_buffer_size 32
dispatch_buffer_size 32
register_file_size 288
decode_latency 1
dispatch_latency 1
schedule_latency 1
execute_latency 1
page_size 4096
block_size 64
core_0_itlb_set 16
core_0_itlb_way 4
core_0_itlb_rq_size 16
core_0_itlb_wq_size 16
core_0_itlb_pq_size 0
core_0_itlb_mshr_size 8
core_0_itlb_hit_latency 1
core_0_itlb_fill_latency 1
core_0_itlb_max_tag_check 2
core_0_itlb_max_fill 2
core_0_dtlb_set 16
core_0_dtlb_way 4
core_0_dtlb_rq_size 16
core_0_dtlb_wq_size 16
core_0_dtlb_pq_size 0
core_0_dtlb_mshr_size 8
core_0_dtlb_hit_latency 1
core_0_dtlb_fill_latency 1
core_0_dtlb_max_tag_check 2
core_0_dtlb_max_fill 2
core_0_stlb_set 128
core_0_stlb_way 12
core_0_stlb_rq_size 32
core_0_stlb_wq_size 32
core_0_stlb_pq_size 0
core_0_stlb_mshr_size 16
core_0_stlb_hit_latency 4
core_0_stlb_fill_latency 4
core_0_stlb_max_tag_check 1
core_0_stlb_max_fill 1
core_0_l1i_set 64
core_0_l1i_way 8
core_0_l1i_rq_size 64
core_0_l1i_wq_size 64
core_0_l1i_pq_size 32
core_0_l1i_mshr_size 8
core_0_l1i_hit_latency 2
core_0_l1i_fill_latency 2
core_0_l1i_max_tag_check 2
core_0_l1i_max_fill 2
core_0_l1d_set 64
core_0_l1d_way 12
core_0_l1d_rq_size 64
core_0_l1d_wq_size 64
core_0_l1d_pq_size 8
core_0_l1d_mshr_size 16
core_0_l1d_hit_latency 2
core_0_l1d_fill_latency 3
core_0_l1d_max_tag_check 2
core_0_l1d_max_fill 2
core_0_l2c_set 1024
core_0_l2c_way 8
core_0_l2c_rq_size 32
core_0_l2c_wq_size 32
core_0_l2c_pq_size 16
core_0_l2c_mshr_size 32
core_0_l2c_hit_latency 5
core_0_l2c_fill_latency 5
core_0_l2c_max_tag_check 1
core_0_l2c_max_fill 1
llc_set 2048
llc_way 16
llc_rq_size 32
llc_wq_size 32
llc_pq_size 32
llc_mshr_size 64
llc_hit_latency 10
llc_fill_latency 10
llc_max_tag_check 1
llc_max_fill 1
dram_channels 1
dram_ranks 1
dram_bankgroups 8
dram_banks 4
dram_rows 65536
dram_columns 1024
dram_channel_width 8
dram_rq_size 64
dram_wq_size 64
dram_size 17179869184
core_0_itlb_prefetcher no
core_0_dtlb_prefetcher no
core_0_stlb_prefetcher no
core_0_l1i_prefetcher next_line
core_0_l1d_prefetcher vberti
core_0_l2c_prefetcher ip_stride
llc_prefetcher no
llc_replacement drrip

Core_0_instructions 100000003
Core_0_cycles 4242109223
Core_0_IPC 0.0235732
Core_0_branch_prediction_accuracy 97.2966
Core_0_branch_MPKI 5.2756
Core_0_average_ROB_occupancy_at_mispredict 240.322

Core_0_ITLB_total_access 14893920
Core_0_ITLB_total_hit 14893920
Core_0_ITLB_total_miss 0
Core_0_ITLB_total_MPKI 0
Core_0_ITLB_total_miss_rate 0
Core_0_ITLB_demand_access 14893920
Core_0_ITLB_demand_hit 14893920
Core_0_ITLB_demand_miss 0
Core_0_ITLB_demand_MPKI 0
Core_0_ITLB_demand_miss_rate 0
Core_0_ITLB_load_access 14893920
Core_0_ITLB_load_hit 14893920
Core_0_ITLB_load_miss 0
Core_0_ITLB_load_MPKI 0
Core_0_ITLB_load_miss_rate 0
Core_0_ITLB_rfo_access 0
Core_0_ITLB_rfo_hit 0
Core_0_ITLB_rfo_miss 0
Core_0_ITLB_rfo_MPKI 0
Core_0_ITLB_rfo_miss_rate 0
Core_0_ITLB_prefetch_access 0
Core_0_ITLB_prefetch_hit 0
Core_0_ITLB_prefetch_miss 0
Core_0_ITLB_prefetch_MPKI 0
Core_0_ITLB_prefetch_miss_rate 0
Core_0_ITLB_writeback_access 0
Core_0_ITLB_writeback_hit 0
Core_0_ITLB_writeback_miss 0
Core_0_ITLB_writeback_MPKI 0
Core_0_ITLB_writeback_miss_rate 0
Core_0_ITLB_prefetch_requested 0
Core_0_ITLB_prefetch_issued 0
Core_0_ITLB_prefetch_useful 0
Core_0_ITLB_prefetch_useless 0
Core_0_ITLB_prefetch_late 0
Core_0_ITLB_prefetch_fill 0
Core_0_ITLB_prefetch_too_early 0
Core_0_ITLB_prefetch_too_early_among_fill 0
Core_0_ITLB_prefetch_too_early_among_useless 0
Core_0_ITLB_prefetch_pollution_evict 0
Core_0_ITLB_prefetch_pollution_demand 0
Core_0_ITLB_prefetch_pollution_among_prefetch_fill 0
Core_0_ITLB_prefetch_accuracy 0
Core_0_ITLB_prefetch_coverage 0

Core_0_DTLB_total_access 58458326
Core_0_DTLB_total_hit 41348849
Core_0_DTLB_total_miss 17109477
Core_0_DTLB_total_MPKI 171.095
Core_0_DTLB_total_miss_rate 0.292678
Core_0_DTLB_demand_access 58458326
Core_0_DTLB_demand_hit 41348849
Core_0_DTLB_demand_miss 17109477
Core_0_DTLB_demand_MPKI 171.095
Core_0_DTLB_demand_miss_rate 0.292678
Core_0_DTLB_load_access 58458326
Core_0_DTLB_load_hit 41348849
Core_0_DTLB_load_miss 17109477
Core_0_DTLB_load_MPKI 171.095
Core_0_DTLB_load_miss_rate 0.292678
Core_0_DTLB_rfo_access 0
Core_0_DTLB_rfo_hit 0
Core_0_DTLB_rfo_miss 0
Core_0_DTLB_rfo_MPKI 0
Core_0_DTLB_rfo_miss_rate 0
Core_0_DTLB_prefetch_access 0
Core_0_DTLB_prefetch_hit 0
Core_0_DTLB_prefetch_miss 0
Core_0_DTLB_prefetch_MPKI 0
Core_0_DTLB_prefetch_miss_rate 0
Core_0_DTLB_writeback_access 0
Core_0_DTLB_writeback_hit 0
Core_0_DTLB_writeback_miss 0
Core_0_DTLB_writeback_MPKI 0
Core_0_DTLB_writeback_miss_rate 0
Core_0_DTLB_prefetch_requested 0
Core_0_DTLB_prefetch_issued 0
Core_0_DTLB_prefetch_useful 0
Core_0_DTLB_prefetch_useless 0
Core_0_DTLB_prefetch_late 0
Core_0_DTLB_prefetch_fill 0
Core_0_DTLB_prefetch_too_early 0
Core_0_DTLB_prefetch_too_early_among_fill 0
Core_0_DTLB_prefetch_too_early_among_useless 0
Core_0_DTLB_prefetch_pollution_evict 0
Core_0_DTLB_prefetch_pollution_demand 0
Core_0_DTLB_prefetch_pollution_among_prefetch_fill 0
Core_0_DTLB_prefetch_accuracy 0
Core_0_DTLB_prefetch_coverage 0

Core_0_STLB_total_access 17064594
Core_0_STLB_total_hit 259169
Core_0_STLB_total_miss 16805425
Core_0_STLB_total_MPKI 168.054
Core_0_STLB_total_miss_rate 0.984812
Core_0_STLB_demand_access 17064594
Core_0_STLB_demand_hit 259169
Core_0_STLB_demand_miss 16805425
Core_0_STLB_demand_MPKI 168.054
Core_0_STLB_demand_miss_rate 0.984812
Core_0_STLB_load_access 17064594
Core_0_STLB_load_hit 259169
Core_0_STLB_load_miss 16805425
Core_0_STLB_load_MPKI 168.054
Core_0_STLB_load_miss_rate 0.984812
Core_0_STLB_rfo_access 0
Core_0_STLB_rfo_hit 0
Core_0_STLB_rfo_miss 0
Core_0_STLB_rfo_MPKI 0
Core_0_STLB_rfo_miss_rate 0
Core_0_STLB_prefetch_access 0
Core_0_STLB_prefetch_hit 0
Core_0_STLB_prefetch_miss 0
Core_0_STLB_prefetch_MPKI 0
Core_0_STLB_prefetch_miss_rate 0
Core_0_STLB_writeback_access 0
Core_0_STLB_writeback_hit 0
Core_0_STLB_writeback_miss 0
Core_0_STLB_writeback_MPKI 0
Core_0_STLB_writeback_miss_rate 0
Core_0_STLB_prefetch_requested 0
Core_0_STLB_prefetch_issued 0
Core_0_STLB_prefetch_useful 0
Core_0_STLB_prefetch_useless 0
Core_0_STLB_prefetch_late 0
Core_0_STLB_prefetch_fill 0
Core_0_STLB_prefetch_too_early 0
Core_0_STLB_prefetch_too_early_among_fill 0
Core_0_STLB_prefetch_too_early_among_useless 0
Core_0_STLB_prefetch_pollution_evict 0
Core_0_STLB_prefetch_pollution_demand 0
Core_0_STLB_prefetch_pollution_among_prefetch_fill 0
Core_0_STLB_prefetch_accuracy 0
Core_0_STLB_prefetch_coverage 0

Core_0_L1I_total_access 14893920
Core_0_L1I_total_hit 14893920
Core_0_L1I_total_miss 0
Core_0_L1I_total_MPKI 0
Core_0_L1I_total_miss_rate 0
Core_0_L1I_demand_access 14893920
Core_0_L1I_demand_hit 14893920
Core_0_L1I_demand_miss 0
Core_0_L1I_demand_MPKI 0
Core_0_L1I_demand_miss_rate 0
Core_0_L1I_load_access 14893920
Core_0_L1I_load_hit 14893920
Core_0_L1I_load_miss 0
Core_0_L1I_load_MPKI 0
Core_0_L1I_load_miss_rate 0
Core_0_L1I_rfo_access 0
Core_0_L1I_rfo_hit 0
Core_0_L1I_rfo_miss 0
Core_0_L1I_rfo_MPKI 0
Core_0_L1I_rfo_miss_rate 0
Core_0_L1I_prefetch_access 0
Core_0_L1I_prefetch_hit 0
Core_0_L1I_prefetch_miss 0
Core_0_L1I_prefetch_MPKI 0
Core_0_L1I_prefetch_miss_rate 0
Core_0_L1I_writeback_access 0
Core_0_L1I_writeback_hit 0
Core_0_L1I_writeback_miss 0
Core_0_L1I_writeback_MPKI 0
Core_0_L1I_writeback_miss_rate 0
Core_0_L1I_prefetch_requested 0
Core_0_L1I_prefetch_issued 0
Core_0_L1I_prefetch_useful 0
Core_0_L1I_prefetch_useless 0
Core_0_L1I_prefetch_late 0
Core_0_L1I_prefetch_fill 0
Core_0_L1I_prefetch_too_early 0
Core_0_L1I_prefetch_too_early_among_fill 0
Core_0_L1I_prefetch_too_early_among_useless 0
Core_0_L1I_prefetch_pollution_evict 0
Core_0_L1I_prefetch_pollution_demand 0
Core_0_L1I_prefetch_pollution_among_prefetch_fill 0
Core_0_L1I_prefetch_accuracy 0
Core_0_L1I_prefetch_coverage 0

Core_0_L1D_total_access 60649700
Core_0_L1D_total_hit 38967992
Core_0_L1D_total_miss 21681708
Core_0_L1D_total_MPKI 216.817
Core_0_L1D_total_miss_rate 0.357491
Core_0_L1D_demand_access 37625328
Core_0_L1D_demand_hit 19468418
Core_0_L1D_demand_miss 18156910
Core_0_L1D_demand_MPKI 181.569
Core_0_L1D_demand_miss_rate 0.482571
Core_0_L1D_load_access 37625328
Core_0_L1D_load_hit 19468418
Core_0_L1D_load_miss 18156910
Core_0_L1D_load_MPKI 181.569
Core_0_L1D_load_miss_rate 0.482571
Core_0_L1D_rfo_access 0
Core_0_L1D_rfo_hit 0
Core_0_L1D_rfo_miss 0
Core_0_L1D_rfo_MPKI 0
Core_0_L1D_rfo_miss_rate 0
Core_0_L1D_prefetch_access 22396051
Core_0_L1D_prefetch_hit 18918219
Core_0_L1D_prefetch_miss 3477832
Core_0_L1D_prefetch_MPKI 34.7783
Core_0_L1D_prefetch_miss_rate 0.155288
Core_0_L1D_writeback_access 628321
Core_0_L1D_writeback_hit 581355
Core_0_L1D_writeback_miss 46966
Core_0_L1D_writeback_MPKI 0.46966
Core_0_L1D_writeback_miss_rate 0.0747484
Core_0_L1D_prefetch_requested 23977467
Core_0_L1D_prefetch_issued 22396043
Core_0_L1D_prefetch_useful 1225312
Core_0_L1D_prefetch_useless 42208
Core_0_L1D_prefetch_late 4345
Core_0_L1D_prefetch_fill 1263175
Core_0_L1D_prefetch_too_early 2257
Core_0_L1D_prefetch_too_early_among_fill 0.00178677
Core_0_L1D_prefetch_too_early_among_useless 0.0534733
Core_0_L1D_prefetch_pollution_evict 21719
Core_0_L1D_prefetch_pollution_demand 21649
Core_0_L1D_prefetch_pollution_among_prefetch_fill 0.017194
Core_0_L1D_prefetch_accuracy 0.0547111
Core_0_L1D_prefetch_coverage 0.0632183

Core_0_L2C_total_access 25068145
Core_0_L2C_total_hit 5925413
Core_0_L2C_total_miss 19142732
Core_0_L2C_total_MPKI 191.427
Core_0_L2C_total_miss_rate 0.763628
Core_0_L2C_demand_access 18115131
Core_0_L2C_demand_hit 279890
Core_0_L2C_demand_miss 17835241
Core_0_L2C_demand_MPKI 178.352
Core_0_L2C_demand_miss_rate 0.984549
Core_0_L2C_load_access 18099459
Core_0_L2C_load_hit 266323
Core_0_L2C_load_miss 17833136
Core_0_L2C_load_MPKI 178.331
Core_0_L2C_load_miss_rate 0.985286
Core_0_L2C_rfo_access 15672
Core_0_L2C_rfo_hit 13567
Core_0_L2C_rfo_miss 2105
Core_0_L2C_rfo_MPKI 0.02105
Core_0_L2C_rfo_miss_rate 0.134316
Core_0_L2C_prefetch_access 6888936
Core_0_L2C_prefetch_hit 5581449
Core_0_L2C_prefetch_miss 1307487
Core_0_L2C_prefetch_MPKI 13.0749
Core_0_L2C_prefetch_miss_rate 0.189795
Core_0_L2C_writeback_access 64078
Core_0_L2C_writeback_hit 64074
Core_0_L2C_writeback_miss 4
Core_0_L2C_writeback_MPKI 4e-05
Core_0_L2C_writeback_miss_rate 6.24239e-05
Core_0_L2C_prefetch_requested 3437592
Core_0_L2C_prefetch_issued 3437585
Core_0_L2C_prefetch_useful 993433
Core_0_L2C_prefetch_useless 39415
Core_0_L2C_prefetch_late 931
Core_0_L2C_prefetch_fill 1280062
Core_0_L2C_prefetch_too_early 3954
Core_0_L2C_prefetch_too_early_among_fill 0.00308891
Core_0_L2C_prefetch_too_early_among_useless 0.100317
Core_0_L2C_prefetch_pollution_evict 115781
Core_0_L2C_prefetch_pollution_demand 115779
Core_0_L2C_prefetch_pollution_among_prefetch_fill 0.0904495
Core_0_L2C_prefetch_accuracy 0.288992
Core_0_L2C_prefetch_coverage 0.0527617

Core_0_LLC_total_access 19153484
Core_0_LLC_total_hit 1580463
Core_0_LLC_total_miss 17573021
Core_0_LLC_total_MPKI 175.73
Core_0_LLC_total_miss_rate 0.917484
Core_0_LLC_demand_access 17834268
Core_0_LLC_demand_hit 1567802
Core_0_LLC_demand_miss 16266466
Core_0_LLC_demand_MPKI 162.665
Core_0_LLC_demand_miss_rate 0.91209
Core_0_LLC_load_access 17832163
Core_0_LLC_load_hit 1565705
Core_0_LLC_load_miss 16266458
Core_0_LLC_load_MPKI 162.665
Core_0_LLC_load_miss_rate 0.912198
Core_0_LLC_rfo_access 2105
Core_0_LLC_rfo_hit 2097
Core_0_LLC_rfo_miss 8
Core_0_LLC_rfo_MPKI 8e-05
Core_0_LLC_rfo_miss_rate 0.00380048
Core_0_LLC_prefetch_access 1281037
Core_0_LLC_prefetch_hit 1211
Core_0_LLC_prefetch_miss 1279826
Core_0_LLC_prefetch_MPKI 12.7983
Core_0_LLC_prefetch_miss_rate 0.999055
Core_0_LLC_writeback_access 38179
Core_0_LLC_writeback_hit 11450
Core_0_LLC_writeback_miss 26729
Core_0_LLC_writeback_MPKI 0.26729
Core_0_LLC_writeback_miss_rate 0.700097
Core_0_LLC_prefetch_requested 0
Core_0_LLC_prefetch_issued 0
Core_0_LLC_prefetch_useful 0
Core_0_LLC_prefetch_useless 0
Core_0_LLC_prefetch_late 0
Core_0_LLC_prefetch_fill 1279825
Core_0_LLC_prefetch_too_early 0
Core_0_LLC_prefetch_too_early_among_fill 0
Core_0_LLC_prefetch_too_early_among_useless 0
Core_0_LLC_prefetch_pollution_evict 315515
Core_0_LLC_prefetch_pollution_demand 315515
Core_0_LLC_prefetch_pollution_among_prefetch_fill 0.24653
Core_0_LLC_prefetch_accuracy 0
Core_0_LLC_prefetch_coverage 0

[DRAM Statistics]
Channel_0_RQ_row_buffer_hit 26872
Channel_0_RQ_row_buffer_miss 17947690
Channel_0_WQ_row_buffer_hit 5093
Channel_0_WQ_row_buffer_miss 29377
Channel_0_WQ_full 0
Channel_0_dbus_congested 3819600
DRAM_total_RQ_row_buffer_hit 26872
DRAM_total_RQ_row_buffer_miss 17947690
DRAM_total_WQ_row_buffer_hit 5093
DRAM_total_WQ_row_buffer_miss 29377
DRAM_total_WQ_full 0
DRAM_total_dbus_congested 3819600
DRAM_avg_congested_cycle 14.7061

====== DRAM_RQ_TRAFFIC ========
DRAM_RQ_READ_TRAFFIC_BREAKDOWN:
data_demand_read.count = 16266466
data_demand_read.share = 90.50%

inst_demand_read.count = 0
inst_demand_read.share = 0.00%

cache_inst_prefetch.count = 0
cache_inst_prefetch.share = 0.00%

cache_data_prefetch.count = 1279825
cache_data_prefetch.share = 7.12%

stlb_data_demand.count = 425304
stlb_data_demand.share = 2.37%

stlb_inst_demand.count = 0
stlb_inst_demand.share = 0.00%

stlb_l1i_pref.count = 0
stlb_l1i_pref.share = 0.00%

stlb_l1d_pref.count = 2968
stlb_l1d_pref.share = 0.02%

DRAM_RQ_READ_TRAFFIC_SUMMARY:
cache_demand.count = 16266466
cache_demand.share = 90.50%

cache_prefetch.count = 1279825
cache_prefetch.share = 7.12%

stlb_demand.count = 425304
stlb_demand.share = 2.37%

stlb_prefetch.count = 2968
stlb_prefetch.share = 0.02%

DRAM_RQ_READ_TRAFFIC_DEBUG:
total_classified_read.count = 17974563
unclassified_read.count = 0
total_read_with_other.count = 17974563

classified_plus_unclassified_check.count = 17974563
dram_rq_read_total_observed.count = 17974563
dram_rq_read_total_observed.per_1K_instructions = 179.746

STLB_MISS_PTW_DRAM_TOUCH_BREAKDOWN:
stlb_miss_total.count = 16801274

stlb_miss_touch_dram.count = 428079
stlb_miss_touch_dram.share = 2.55%

stlb_miss_no_dram_touch.count = 16373195
stlb_miss_no_dram_touch.share = 97.45%

STLB_MISS_PTW_DRAM_TOUCH_DEBUG:
stlb_miss_touch_plus_no_touch.count = 16801274
stlb_miss_total_check.count = 16801274

======STLB miss causes ========
Core_0_STLB_miss_cause_breakdown
Core_0_STLB_cause_Demand_Data_miss 16780722
Core_0_STLB_cause_Demand_Data_miss_rate 0.983365
Core_0_STLB_cause_Demand_Instruction_miss 0
Core_0_STLB_cause_Demand_Instruction_miss_rate 0
Core_0_STLB_cause_L1D_Prefetch_miss 24703
Core_0_STLB_cause_L1D_Prefetch_miss_rate 0.00144762
Core_0_STLB_cause_L1D_Prefetch_Same_Page_miss 0
Core_0_STLB_cause_L1D_Prefetch_Same_Page_miss_rate 0
Core_0_STLB_cause_L1D_Prefetch_Cross_Page_miss 24703
Core_0_STLB_cause_L1D_Prefetch_Cross_Page_miss_rate 0.00144762
Core_0_STLB_cause_L1I_Prefetch_miss 0
Core_0_STLB_cause_L1I_Prefetch_miss_rate 0
Core_0_STLB_cause_Other_miss 0
Core_0_STLB_cause_Other_miss_rate 0
Core_0_STLB_Demand_miss 16780722
Core_0_STLB_Demand_miss_rate 0.983365
Core_0_STLB_L1D_Prefetch_miss 24703
Core_0_STLB_L1D_Prefetch_miss_rate 0.00144762
Core_0_STLB_Other_miss 0
Core_0_STLB_Other_miss_rate 0

========== vBerti-TLB Cross-page Flow Stats ==========

Core_0_vBerti_Requested 23977467
Core_0_vBerti_Cross_page_prefetch_in_Requested 817982
Core_0_vBerti_Same_page_prefetch_in_Requested 23159485
Core_0_vBerti_Cross_page_prefetch_of_Requested 0.0341146
Core_0_vBerti_Issued 22396043
Core_0_vBerti_PQ_Drop_Rate 0.0659546
Core_0_vBerti_InPQ_Cross_page_prefetch_of_Requested 0.0257728
Core_0_vBerti_Cross_page_PQ_Drop_rate 0.244524
Core_0_vBerti_Cross_page_prefetch_of_Issued 0.0275926

========= DTLB_vBerti Prefetch Stats =========
Core_0_DTLB_demand_access 38149431
Core_0_DTLB_demand_hit 21084597
Core_0_DTLB_demand_miss 17064834
Core_0_DTLB_demand_mshr_merge 24946
Core_0_DTLB_demand_fill 17040026
Core_0_DTLB_demand_miss_rate 0.447316
Core_0_DTLB_demand_mpki 170.648
Core_0_DTLB_vberti_prefetch_access 20308895
Core_0_DTLB_vberti_prefetch_hit 20264252
Core_0_DTLB_vberti_prefetch_miss 44643
Core_0_DTLB_vberti_prefetch_mshr_merge 19937
Core_0_DTLB_vberti_prefetch_fill 24576
Core_0_DTLB_vberti_prefetch_miss_rate 0.0021982
Core_0_DTLB_vberti_prefetch_mpki 0.44643

=== DTLB_vBerti Same/Cross-page Prefetch Stats ===
Core_0_DTLB_vberti_same_page_prefetch 19779189
Core_0_DTLB_vberti_same_page_prefetch_hit 19779186
Core_0_DTLB_vberti_same_page_prefetch_miss 3
Core_0_DTLB_vberti_same_page_prefetch_mshr_merge 0
Core_0_DTLB_vberti_same_page_prefetch_fill 3
Core_0_DTLB_vberti_same_page_prefetch_miss_rate 1.51675e-07
Core_0_DTLB_vberti_same_page_prefetch_mpki 3e-05
Core_0_DTLB_vberti_cross_page_prefetch 529706
Core_0_DTLB_vberti_cross_page_prefetch_hit 485066
Core_0_DTLB_vberti_cross_page_prefetch_miss 44640
Core_0_DTLB_vberti_cross_page_prefetch_mshr_merge 19937
Core_0_DTLB_vberti_cross_page_prefetch_fill 24573
Core_0_DTLB_vberti_cross_page_prefetch_miss_rate 0.0842732
Core_0_DTLB_vberti_cross_page_prefetch_mpki 0.4464
Core_0_DTLB_same_page_prefetch_miss_rate 1.51675e-07
Core_0_DTLB_same_page_prefetch_mpki 3e-05
Core_0_DTLB_cross_page_prefetch_miss_rate 0.0842732
Core_0_DTLB_cross_page_prefetch_mpki 0.4464
Core_0_DTLB_cross_page_prefetch_issued 529706
Core_0_DTLB_cross_page_prefetch_lookups 529706
Core_0_DTLB_cross_page_prefetch_useful 19493
Core_0_DTLB_cross_page_prefetch_useless 5210
Core_0_DTLB_cross_page_prefetch_late 130
Core_0_DTLB_cross_page_prefetch_too_early 94
Core_0_DTLB_cross_page_prefetch_too_early_among_fill 0.00382534
Core_0_DTLB_cross_page_prefetch_too_early_among_useless 0.0180422
Core_0_DTLB_cross_page_prefetch_pollution_evict 8076
Core_0_DTLB_cross_page_prefetch_pollution_demand 8070
Core_0_DTLB_cross_page_prefetch_pollution_among_prefetch_fill 0.328653
Core_0_DTLB_cross_page_prefetch_accuracy 0.0367997
Core_0_DTLB_cross_page_prefetch_coverage 0.00114099

========= STLB_vBerti Prefetch Stats =========
Core_0_STLB_demand_access 17039888
Core_0_STLB_demand_hit 259166
Core_0_STLB_demand_miss 16780722
Core_0_STLB_demand_mshr_merge 0
Core_0_STLB_demand_fill 16780730
Core_0_STLB_demand_miss_rate 0.984791
Core_0_STLB_demand_mpki 167.807
Core_0_STLB_vberti_prefetch_access 24706
Core_0_STLB_vberti_prefetch_hit 3
Core_0_STLB_vberti_prefetch_miss 24703
Core_0_STLB_vberti_prefetch_mshr_merge 0
Core_0_STLB_vberti_prefetch_fill 0
Core_0_STLB_vberti_prefetch_miss_rate 0.999879
Core_0_STLB_vberti_prefetch_mpki 0.24703

=== STLB_vBerti Same/Cross-page Prefetch Stats ===
Core_0_STLB_vberti_same_page_prefetch 3
Core_0_STLB_vberti_same_page_prefetch_hit 3
Core_0_STLB_vberti_same_page_prefetch_miss 0
Core_0_STLB_vberti_same_page_prefetch_mshr_merge 0
Core_0_STLB_vberti_same_page_prefetch_fill 0
Core_0_STLB_vberti_same_page_prefetch_miss_rate 0
Core_0_STLB_vberti_same_page_prefetch_mpki 0
Core_0_STLB_vberti_cross_page_prefetch 24703
Core_0_STLB_vberti_cross_page_prefetch_hit 0
Core_0_STLB_vberti_cross_page_prefetch_miss 24703
Core_0_STLB_vberti_cross_page_prefetch_mshr_merge 0
Core_0_STLB_vberti_cross_page_prefetch_fill 0
Core_0_STLB_vberti_cross_page_prefetch_miss_rate 1
Core_0_STLB_vberti_cross_page_prefetch_mpki 0.24703
Core_0_STLB_same_page_prefetch_miss_rate 0
Core_0_STLB_same_page_prefetch_mpki 0
Core_0_STLB_cross_page_prefetch_miss_rate 1
Core_0_STLB_cross_page_prefetch_mpki 0.24703
Core_0_STLB_cross_page_prefetch_issued 24703
Core_0_STLB_cross_page_prefetch_lookups 24703
Core_0_STLB_cross_page_prefetch_useful 4151
Core_0_STLB_cross_page_prefetch_useless 15453
Core_0_STLB_cross_page_prefetch_late 4151
Core_0_STLB_cross_page_prefetch_too_early 0
Core_0_STLB_cross_page_prefetch_too_early_among_fill 0
Core_0_STLB_cross_page_prefetch_too_early_among_useless 0
Core_0_STLB_cross_page_prefetch_pollution_evict 0
Core_0_STLB_cross_page_prefetch_pollution_demand 0
Core_0_STLB_cross_page_prefetch_pollution_among_prefetch_fill 0
Core_0_STLB_cross_page_prefetch_accuracy 0.168036
Core_0_STLB_cross_page_prefetch_coverage 0.000247306

========= STLB Cross-page Prefetch Buffer Stats =========
Core_0_STLB_raw_demand_miss 16780722
Core_0_CP_PB_insert 24703
Core_0_CP_PB_demand_hit 4151
Core_0_STLB_PB_demand_miss 16776571
Core_0_CP_PB_coverage 0.000247367
Core_0_STLB_raw_demand_mpki 167.807
Core_0_STLB_PB_demand_mpki 167.766
Core_0_CP_PB_demand_hit_mpki 0.04151

Core_0_TLB_demand_miss_rate 0.439868
Core_0_TLB_demand_mpki 167.807
Core_0_TLB_same_page_prefetch_miss_rate 0
Core_0_TLB_same_page_prefetch_mpki 0
Core_0_TLB_cross_page_prefetch_miss_rate 0.0466353
Core_0_TLB_cross_page_prefetch_mpki 0.24703
Core_0_TLB_cross_page_prefetch_issued 529706
Core_0_TLB_cross_page_prefetch_lookups 529706
Core_0_TLB_cross_page_prefetch_useful 19493
Core_0_TLB_cross_page_prefetch_useless 5210
Core_0_TLB_cross_page_prefetch_late 130
Core_0_TLB_cross_page_prefetch_too_early 94
Core_0_TLB_cross_page_prefetch_too_early_among_fill 0.00382534
Core_0_TLB_cross_page_prefetch_too_early_among_useless 0.0180422
Core_0_TLB_cross_page_prefetch_accuracy 0.0367997
Core_0_TLB_cross_page_prefetch_coverage 0.00116028
BERTI TO_L1: 21237231 TO_L2: 4308833 TO_L2_BC_MSHR: 141
BERTI AVG_LAT: 120.45 NUM_TRACK_LATENCY: 28967551 NUM_CANT_TRACK_LATENCY: 166
BERTI CROSS_PAGE 929422 NO_CROSS_PAGE: 24616642
BERTI FOUND_BERTI: 46981405 NO_FOUND_BERTI: 1390774
BERTI AVERAGE_ISSUED: 1.19889
