[VMEM] WARNING: physical memory size is smaller than virtual memory size.

*** ChampSim Multicore Out-of-Order Simulator ***
Warmup Instructions: 50000000
Simulation Instructions: 100000000
Number of CPUs: 1
Page size: 4096
Core 0: /data0/tzh/champsim_traces/QMM/srv_61_new.xz
VBerti Prefetcher
BERTI HASH ENTANGLING
BERTI IP MASK ffff
Off-chip DRAM Size: 16 GiB Channels: 1 Width: 64-bit Data Rate: 3205 MT/s
[BTB] WARNING: target of return is a lower address than the corresponding call. This is usually a problem with your trace.
[BTB] WARNING: target of return is a lower address than the corresponding call. This is usually a problem with your trace.
[BTB] WARNING: target of return is a lower address than the corresponding call. This is usually a problem with your trace.
[BTB] WARNING: target of return is a lower address than the corresponding call. This is usually a problem with your trace.
[BTB] WARNING: target of return is a lower address than the corresponding call. This is usually a problem with your trace.
[BTB] WARNING: target of return is a lower address than the corresponding call. This is usually a problem with your trace.
[BTB] WARNING: target of return is a lower address than the corresponding call. This is usually a problem with your trace.
[BTB] WARNING: target of return is a lower address than the corresponding call. This is usually a problem with your trace.
[BTB] WARNING: target of return is a lower address than the corresponding call. This is usually a problem with your trace.
[BTB] WARNING: target of return is a lower address than the corresponding call. This is usually a problem with your trace.
*** Reached end of trace: (0, "/data0/tzh/champsim_traces/QMM/srv_61_new.xz")
Warmup halting CPU 0 at instruction 50000002 cycle 10840595 for remainder of phase
Warmup finished CPU 0 instructions: 50000002 cycles: 10840595 cumulative IPC: 4.612 (Simulation time: 00 hr 02 min 45 sec)
Warmup complete CPU 0 instructions: 50000002 cycles: 10840595 cumulative IPC: 4.612 (Simulation time: 00 hr 02 min 45 sec)
*** Reached end of trace: (0, "/data0/tzh/champsim_traces/QMM/srv_61_new.xz")
*** Reached end of trace: (0, "/data0/tzh/champsim_traces/QMM/srv_61_new.xz")
*** Reached end of trace: (0, "/data0/tzh/champsim_traces/QMM/srv_61_new.xz")
Simulation finished CPU 0 instructions: 100000002 cycles: 62176456 cumulative IPC: 1.608 (Simulation time: 00 hr 11 min 46 sec)
Simulation complete CPU 0 instructions: 100000002 cycles: 62176456 cumulative IPC: 1.608 (Simulation time: 00 hr 11 min 46 sec)

ChampSim completed all CPUs

=== Simulation ===
CPU 0 runs /data0/tzh/champsim_traces/QMM/srv_61_new.xz

Region of Interest Statistics

CPU 0 cumulative IPC: 1.608 instructions: 100000002 cycles: 62176456
CPU 0 Branch Prediction Accuracy: 97.36% MPKI: 4.77 Average ROB Occupancy at Mispredict: 94.01
Branch type MPKI
BRANCH_DIRECT_JUMP: 0.4208
BRANCH_INDIRECT: 0.353
BRANCH_CONDITIONAL: 2.481
BRANCH_DIRECT_CALL: 0.7435
BRANCH_INDIRECT_CALL: 0.1828
BRANCH_RETURN: 0.589

cpu0->cpu0_STLB TOTAL        ACCESS:    1621575 HIT:    1392650 MISS:     228925 MSHR_MERGE:          0
cpu0->cpu0_STLB LOAD         ACCESS:    1621575 HIT:    1392650 MISS:     228925 MSHR_MERGE:          0
cpu0->cpu0_STLB RFO          ACCESS:          0 HIT:          0 MISS:          0 MSHR_MERGE:          0
cpu0->cpu0_STLB PREFETCH     ACCESS:          0 HIT:          0 MISS:          0 MSHR_MERGE:          0
cpu0->cpu0_STLB WRITE        ACCESS:          0 HIT:          0 MISS:          0 MSHR_MERGE:          0
cpu0->cpu0_STLB TRANSLATION  ACCESS:          0 HIT:          0 MISS:          0 MSHR_MERGE:          0
cpu0->cpu0_STLB PREFETCH REQUESTED:          0 ISSUED:          0 USEFUL:          0 USELESS:          0 LATE:          0 TOO_EARLY:          0
cpu0->cpu0_STLB AVERAGE MISS LATENCY: 29.38 cycles
cpu0->cpu0_L2C TOTAL        ACCESS:    4668717 HIT:    2559016 MISS:    2109701 MSHR_MERGE:       6732
cpu0->cpu0_L2C LOAD         ACCESS:    3721399 HIT:    1870286 MISS:    1851113 MSHR_MERGE:       1933
cpu0->cpu0_L2C RFO          ACCESS:     176360 HIT:      74407 MISS:     101953 MSHR_MERGE:         12
cpu0->cpu0_L2C PREFETCH     ACCESS:      61131 HIT:      31221 MISS:      29910 MSHR_MERGE:       4787
cpu0->cpu0_L2C WRITE        ACCESS:     517139 HIT:     513578 MISS:       3561 MSHR_MERGE:          0
cpu0->cpu0_L2C TRANSLATION  ACCESS:     192688 HIT:      69524 MISS:     123164 MSHR_MERGE:          0
cpu0->cpu0_L2C PREFETCH REQUESTED:      78717 ISSUED:      50388 USEFUL:       9816 USELESS:       9500 LATE:        510 TOO_EARLY:        622
cpu0->cpu0_L2C AVERAGE MISS LATENCY: 26.59 cycles
cpu0->cpu0_L1I TOTAL        ACCESS:   15333579 HIT:   11214194 MISS:    4119385 MSHR_MERGE:    1518474
cpu0->cpu0_L1I LOAD         ACCESS:   15333579 HIT:   11214194 MISS:    4119385 MSHR_MERGE:    1518474
cpu0->cpu0_L1I RFO          ACCESS:          0 HIT:          0 MISS:          0 MSHR_MERGE:          0
cpu0->cpu0_L1I PREFETCH     ACCESS:          0 HIT:          0 MISS:          0 MSHR_MERGE:          0
cpu0->cpu0_L1I WRITE        ACCESS:          0 HIT:          0 MISS:          0 MSHR_MERGE:          0
cpu0->cpu0_L1I TRANSLATION  ACCESS:          0 HIT:          0 MISS:          0 MSHR_MERGE:          0
cpu0->cpu0_L1I PREFETCH REQUESTED:          0 ISSUED:          0 USEFUL:          0 USELESS:          0 LATE:          0 TOO_EARLY:          0
cpu0->cpu0_L1I AVERAGE MISS LATENCY: 15.29 cycles
cpu0->cpu0_L1D TOTAL        ACCESS:   23844813 HIT:   21643930 MISS:    2200883 MSHR_MERGE:     699310
cpu0->cpu0_L1D LOAD         ACCESS:   13289309 HIT:   11785549 MISS:    1503760 MSHR_MERGE:     383264
cpu0->cpu0_L1D RFO          ACCESS:          0 HIT:          0 MISS:          0 MSHR_MERGE:          0
cpu0->cpu0_L1D PREFETCH     ACCESS:      82988 HIT:      67428 MISS:      15560 MSHR_MERGE:       3540
cpu0->cpu0_L1D WRITE        ACCESS:    9965565 HIT:    9480392 MISS:     485173 MSHR_MERGE:     308804
cpu0->cpu0_L1D TRANSLATION  ACCESS:     506951 HIT:     310561 MISS:     196390 MSHR_MERGE:       3702
cpu0->cpu0_L1D PREFETCH REQUESTED:     241697 ISSUED:      82988 USEFUL:       2998 USELESS:       1161 LATE:       1087 TOO_EARLY:          3
cpu0->cpu0_L1D AVERAGE MISS LATENCY: 32.64 cycles
cpu0->cpu0_ITLB TOTAL        ACCESS:   13001522 HIT:   11988913 MISS:    1012609 MSHR_MERGE:     623310
cpu0->cpu0_ITLB LOAD         ACCESS:   13001522 HIT:   11988913 MISS:    1012609 MSHR_MERGE:     623310
cpu0->cpu0_ITLB RFO          ACCESS:          0 HIT:          0 MISS:          0 MSHR_MERGE:          0
cpu0->cpu0_ITLB PREFETCH     ACCESS:          0 HIT:          0 MISS:          0 MSHR_MERGE:          0
cpu0->cpu0_ITLB WRITE        ACCESS:          0 HIT:          0 MISS:          0 MSHR_MERGE:          0
cpu0->cpu0_ITLB TRANSLATION  ACCESS:          0 HIT:          0 MISS:          0 MSHR_MERGE:          0
cpu0->cpu0_ITLB PREFETCH REQUESTED:          0 ISSUED:          0 USEFUL:          0 USELESS:          0 LATE:          0 TOO_EARLY:          0
cpu0->cpu0_ITLB AVERAGE MISS LATENCY: 10.6 cycles
cpu0->cpu0_DTLB TOTAL        ACCESS:   21982854 HIT:   20307457 MISS:    1675397 MSHR_MERGE:     443121
cpu0->cpu0_DTLB LOAD         ACCESS:   21982854 HIT:   20307457 MISS:    1675397 MSHR_MERGE:     443121
cpu0->cpu0_DTLB RFO          ACCESS:          0 HIT:          0 MISS:          0 MSHR_MERGE:          0
cpu0->cpu0_DTLB PREFETCH     ACCESS:          0 HIT:          0 MISS:          0 MSHR_MERGE:          0
cpu0->cpu0_DTLB WRITE        ACCESS:          0 HIT:          0 MISS:          0 MSHR_MERGE:          0
cpu0->cpu0_DTLB TRANSLATION  ACCESS:          0 HIT:          0 MISS:          0 MSHR_MERGE:          0
cpu0->cpu0_DTLB PREFETCH REQUESTED:          0 ISSUED:          0 USEFUL:          0 USELESS:          0 LATE:          0 TOO_EARLY:          0
cpu0->cpu0_DTLB AVERAGE MISS LATENCY: 8.886 cycles
cpu0->LLC TOTAL        ACCESS:    2404827 HIT:    2263459 MISS:     141368 MSHR_MERGE:          0
cpu0->LLC LOAD         ACCESS:    1849180 HIT:    1742252 MISS:     106928 MSHR_MERGE:          0
cpu0->LLC RFO          ACCESS:     101941 HIT:      80697 MISS:      21244 MSHR_MERGE:          0
cpu0->LLC PREFETCH     ACCESS:      25123 HIT:      18276 MISS:       6847 MSHR_MERGE:          0
cpu0->LLC WRITE        ACCESS:     305419 HIT:     301368 MISS:       4051 MSHR_MERGE:          0
cpu0->LLC TRANSLATION  ACCESS:     123164 HIT:     120866 MISS:       2298 MSHR_MERGE:          0
cpu0->LLC PREFETCH REQUESTED:          0 ISSUED:          0 USEFUL:          0 USELESS:          0 LATE:          0 TOO_EARLY:          0
cpu0->LLC AVERAGE MISS LATENCY: 178.7 cycles

DRAM Statistics

Channel 0 RQ ROW_BUFFER_HIT:       3580
  ROW_BUFFER_MISS:     133734
  AVG DBUS CONGESTED CYCLE: 16.08
Channel 0 WQ ROW_BUFFER_HIT:      20500
  ROW_BUFFER_MISS:      84226
  FULL:          0
Channel 0 REFRESHES ISSUED:       5181

[ROI Statistics]
[System Configuration]
num_cpus 1
cpu_freq 4000
fetch_width 6
decode_width 6
dispatch_width 6
execute_width 6
lq_width 2
sq_width 2
retire_width 6
scheduler_size 128
branch_mispredict_penalty 15
rob_size 352
lq_size 128
sq_size 72
ifetch_buffer_size 64
decode_buffer_size 32
dispatch_buffer_size 32
register_file_size 288
decode_latency 1
dispatch_latency 1
schedule_latency 1
execute_latency 1
page_size 4096
block_size 64
core_0_itlb_set 16
core_0_itlb_way 4
core_0_itlb_rq_size 16
core_0_itlb_wq_size 16
core_0_itlb_pq_size 0
core_0_itlb_mshr_size 8
core_0_itlb_hit_latency 1
core_0_itlb_fill_latency 1
core_0_itlb_max_tag_check 2
core_0_itlb_max_fill 2
core_0_dtlb_set 16
core_0_dtlb_way 4
core_0_dtlb_rq_size 16
core_0_dtlb_wq_size 16
core_0_dtlb_pq_size 0
core_0_dtlb_mshr_size 8
core_0_dtlb_hit_latency 1
core_0_dtlb_fill_latency 1
core_0_dtlb_max_tag_check 2
core_0_dtlb_max_fill 2
core_0_stlb_set 128
core_0_stlb_way 12
core_0_stlb_rq_size 32
core_0_stlb_wq_size 32
core_0_stlb_pq_size 0
core_0_stlb_mshr_size 16
core_0_stlb_hit_latency 4
core_0_stlb_fill_latency 4
core_0_stlb_max_tag_check 1
core_0_stlb_max_fill 1
core_0_l1i_set 64
core_0_l1i_way 8
core_0_l1i_rq_size 64
core_0_l1i_wq_size 64
core_0_l1i_pq_size 32
core_0_l1i_mshr_size 8
core_0_l1i_hit_latency 2
core_0_l1i_fill_latency 2
core_0_l1i_max_tag_check 2
core_0_l1i_max_fill 2
core_0_l1d_set 64
core_0_l1d_way 12
core_0_l1d_rq_size 64
core_0_l1d_wq_size 64
core_0_l1d_pq_size 8
core_0_l1d_mshr_size 16
core_0_l1d_hit_latency 2
core_0_l1d_fill_latency 3
core_0_l1d_max_tag_check 2
core_0_l1d_max_fill 2
core_0_l2c_set 1024
core_0_l2c_way 8
core_0_l2c_rq_size 32
core_0_l2c_wq_size 32
core_0_l2c_pq_size 16
core_0_l2c_mshr_size 32
core_0_l2c_hit_latency 5
core_0_l2c_fill_latency 5
core_0_l2c_max_tag_check 1
core_0_l2c_max_fill 1
llc_set 2048
llc_way 16
llc_rq_size 32
llc_wq_size 32
llc_pq_size 32
llc_mshr_size 64
llc_hit_latency 10
llc_fill_latency 10
llc_max_tag_check 1
llc_max_fill 1
dram_channels 1
dram_ranks 1
dram_bankgroups 8
dram_banks 4
dram_rows 65536
dram_columns 1024
dram_channel_width 8
dram_rq_size 64
dram_wq_size 64
dram_size 17179869184
core_0_itlb_prefetcher no
core_0_dtlb_prefetcher no
core_0_stlb_prefetcher no
core_0_l1i_prefetcher next_line
core_0_l1d_prefetcher vberti
core_0_l2c_prefetcher ip_stride
llc_prefetcher no
llc_replacement drrip

Core_0_instructions 100000002
Core_0_cycles 62176456
Core_0_IPC 1.60833
Core_0_branch_prediction_accuracy 97.3641
Core_0_branch_MPKI 4.77009
Core_0_average_ROB_occupancy_at_mispredict 94.0055

Core_0_ITLB_total_access 13001522
Core_0_ITLB_total_hit 11988913
Core_0_ITLB_total_miss 1012609
Core_0_ITLB_total_MPKI 10.1261
Core_0_ITLB_total_miss_rate 0.0778839
Core_0_ITLB_demand_access 13001522
Core_0_ITLB_demand_hit 11988913
Core_0_ITLB_demand_miss 1012609
Core_0_ITLB_demand_MPKI 10.1261
Core_0_ITLB_demand_miss_rate 0.0778839
Core_0_ITLB_load_access 13001522
Core_0_ITLB_load_hit 11988913
Core_0_ITLB_load_miss 1012609
Core_0_ITLB_load_MPKI 10.1261
Core_0_ITLB_load_miss_rate 0.0778839
Core_0_ITLB_rfo_access 0
Core_0_ITLB_rfo_hit 0
Core_0_ITLB_rfo_miss 0
Core_0_ITLB_rfo_MPKI 0
Core_0_ITLB_rfo_miss_rate 0
Core_0_ITLB_prefetch_access 0
Core_0_ITLB_prefetch_hit 0
Core_0_ITLB_prefetch_miss 0
Core_0_ITLB_prefetch_MPKI 0
Core_0_ITLB_prefetch_miss_rate 0
Core_0_ITLB_writeback_access 0
Core_0_ITLB_writeback_hit 0
Core_0_ITLB_writeback_miss 0
Core_0_ITLB_writeback_MPKI 0
Core_0_ITLB_writeback_miss_rate 0
Core_0_ITLB_prefetch_requested 0
Core_0_ITLB_prefetch_issued 0
Core_0_ITLB_prefetch_useful 0
Core_0_ITLB_prefetch_useless 0
Core_0_ITLB_prefetch_late 0
Core_0_ITLB_prefetch_fill 0
Core_0_ITLB_prefetch_too_early 0
Core_0_ITLB_prefetch_too_early_among_fill 0
Core_0_ITLB_prefetch_too_early_among_useless 0
Core_0_ITLB_prefetch_pollution_evict 0
Core_0_ITLB_prefetch_pollution_demand 0
Core_0_ITLB_prefetch_pollution_among_prefetch_fill 0
Core_0_ITLB_prefetch_accuracy 0
Core_0_ITLB_prefetch_coverage 0

Core_0_DTLB_total_access 21982854
Core_0_DTLB_total_hit 20307457
Core_0_DTLB_total_miss 1675397
Core_0_DTLB_total_MPKI 16.754
Core_0_DTLB_total_miss_rate 0.0762138
Core_0_DTLB_demand_access 21982854
Core_0_DTLB_demand_hit 20307457
Core_0_DTLB_demand_miss 1675397
Core_0_DTLB_demand_MPKI 16.754
Core_0_DTLB_demand_miss_rate 0.0762138
Core_0_DTLB_load_access 21982854
Core_0_DTLB_load_hit 20307457
Core_0_DTLB_load_miss 1675397
Core_0_DTLB_load_MPKI 16.754
Core_0_DTLB_load_miss_rate 0.0762138
Core_0_DTLB_rfo_access 0
Core_0_DTLB_rfo_hit 0
Core_0_DTLB_rfo_miss 0
Core_0_DTLB_rfo_MPKI 0
Core_0_DTLB_rfo_miss_rate 0
Core_0_DTLB_prefetch_access 0
Core_0_DTLB_prefetch_hit 0
Core_0_DTLB_prefetch_miss 0
Core_0_DTLB_prefetch_MPKI 0
Core_0_DTLB_prefetch_miss_rate 0
Core_0_DTLB_writeback_access 0
Core_0_DTLB_writeback_hit 0
Core_0_DTLB_writeback_miss 0
Core_0_DTLB_writeback_MPKI 0
Core_0_DTLB_writeback_miss_rate 0
Core_0_DTLB_prefetch_requested 0
Core_0_DTLB_prefetch_issued 0
Core_0_DTLB_prefetch_useful 0
Core_0_DTLB_prefetch_useless 0
Core_0_DTLB_prefetch_late 0
Core_0_DTLB_prefetch_fill 0
Core_0_DTLB_prefetch_too_early 0
Core_0_DTLB_prefetch_too_early_among_fill 0
Core_0_DTLB_prefetch_too_early_among_useless 0
Core_0_DTLB_prefetch_pollution_evict 0
Core_0_DTLB_prefetch_pollution_demand 0
Core_0_DTLB_prefetch_pollution_among_prefetch_fill 0
Core_0_DTLB_prefetch_accuracy 0
Core_0_DTLB_prefetch_coverage 0

Core_0_STLB_total_access 1621575
Core_0_STLB_total_hit 1392650
Core_0_STLB_total_miss 228925
Core_0_STLB_total_MPKI 2.28925
Core_0_STLB_total_miss_rate 0.141174
Core_0_STLB_demand_access 1621575
Core_0_STLB_demand_hit 1392650
Core_0_STLB_demand_miss 228925
Core_0_STLB_demand_MPKI 2.28925
Core_0_STLB_demand_miss_rate 0.141174
Core_0_STLB_load_access 1621575
Core_0_STLB_load_hit 1392650
Core_0_STLB_load_miss 228925
Core_0_STLB_load_MPKI 2.28925
Core_0_STLB_load_miss_rate 0.141174
Core_0_STLB_rfo_access 0
Core_0_STLB_rfo_hit 0
Core_0_STLB_rfo_miss 0
Core_0_STLB_rfo_MPKI 0
Core_0_STLB_rfo_miss_rate 0
Core_0_STLB_prefetch_access 0
Core_0_STLB_prefetch_hit 0
Core_0_STLB_prefetch_miss 0
Core_0_STLB_prefetch_MPKI 0
Core_0_STLB_prefetch_miss_rate 0
Core_0_STLB_writeback_access 0
Core_0_STLB_writeback_hit 0
Core_0_STLB_writeback_miss 0
Core_0_STLB_writeback_MPKI 0
Core_0_STLB_writeback_miss_rate 0
Core_0_STLB_prefetch_requested 0
Core_0_STLB_prefetch_issued 0
Core_0_STLB_prefetch_useful 0
Core_0_STLB_prefetch_useless 0
Core_0_STLB_prefetch_late 0
Core_0_STLB_prefetch_fill 0
Core_0_STLB_prefetch_too_early 0
Core_0_STLB_prefetch_too_early_among_fill 0
Core_0_STLB_prefetch_too_early_among_useless 0
Core_0_STLB_prefetch_pollution_evict 0
Core_0_STLB_prefetch_pollution_demand 0
Core_0_STLB_prefetch_pollution_among_prefetch_fill 0
Core_0_STLB_prefetch_accuracy 0
Core_0_STLB_prefetch_coverage 0

Core_0_L1I_total_access 15333579
Core_0_L1I_total_hit 11214194
Core_0_L1I_total_miss 4119385
Core_0_L1I_total_MPKI 41.1938
Core_0_L1I_total_miss_rate 0.268651
Core_0_L1I_demand_access 15333579
Core_0_L1I_demand_hit 11214194
Core_0_L1I_demand_miss 4119385
Core_0_L1I_demand_MPKI 41.1938
Core_0_L1I_demand_miss_rate 0.268651
Core_0_L1I_load_access 15333579
Core_0_L1I_load_hit 11214194
Core_0_L1I_load_miss 4119385
Core_0_L1I_load_MPKI 41.1938
Core_0_L1I_load_miss_rate 0.268651
Core_0_L1I_rfo_access 0
Core_0_L1I_rfo_hit 0
Core_0_L1I_rfo_miss 0
Core_0_L1I_rfo_MPKI 0
Core_0_L1I_rfo_miss_rate 0
Core_0_L1I_prefetch_access 0
Core_0_L1I_prefetch_hit 0
Core_0_L1I_prefetch_miss 0
Core_0_L1I_prefetch_MPKI 0
Core_0_L1I_prefetch_miss_rate 0
Core_0_L1I_writeback_access 0
Core_0_L1I_writeback_hit 0
Core_0_L1I_writeback_miss 0
Core_0_L1I_writeback_MPKI 0
Core_0_L1I_writeback_miss_rate 0
Core_0_L1I_prefetch_requested 0
Core_0_L1I_prefetch_issued 0
Core_0_L1I_prefetch_useful 0
Core_0_L1I_prefetch_useless 0
Core_0_L1I_prefetch_late 0
Core_0_L1I_prefetch_fill 0
Core_0_L1I_prefetch_too_early 0
Core_0_L1I_prefetch_too_early_among_fill 0
Core_0_L1I_prefetch_too_early_among_useless 0
Core_0_L1I_prefetch_pollution_evict 0
Core_0_L1I_prefetch_pollution_demand 0
Core_0_L1I_prefetch_pollution_among_prefetch_fill 0
Core_0_L1I_prefetch_accuracy 0
Core_0_L1I_prefetch_coverage 0

Core_0_L1D_total_access 23337862
Core_0_L1D_total_hit 21333369
Core_0_L1D_total_miss 2004493
Core_0_L1D_total_MPKI 20.0449
Core_0_L1D_total_miss_rate 0.0858902
Core_0_L1D_demand_access 13289309
Core_0_L1D_demand_hit 11785549
Core_0_L1D_demand_miss 1503760
Core_0_L1D_demand_MPKI 15.0376
Core_0_L1D_demand_miss_rate 0.113156
Core_0_L1D_load_access 13289309
Core_0_L1D_load_hit 11785549
Core_0_L1D_load_miss 1503760
Core_0_L1D_load_MPKI 15.0376
Core_0_L1D_load_miss_rate 0.113156
Core_0_L1D_rfo_access 0
Core_0_L1D_rfo_hit 0
Core_0_L1D_rfo_miss 0
Core_0_L1D_rfo_MPKI 0
Core_0_L1D_rfo_miss_rate 0
Core_0_L1D_prefetch_access 82988
Core_0_L1D_prefetch_hit 67428
Core_0_L1D_prefetch_miss 15560
Core_0_L1D_prefetch_MPKI 0.1556
Core_0_L1D_prefetch_miss_rate 0.187497
Core_0_L1D_writeback_access 9965565
Core_0_L1D_writeback_hit 9480392
Core_0_L1D_writeback_miss 485173
Core_0_L1D_writeback_MPKI 4.85173
Core_0_L1D_writeback_miss_rate 0.0486849
Core_0_L1D_prefetch_requested 241697
Core_0_L1D_prefetch_issued 82988
Core_0_L1D_prefetch_useful 2998
Core_0_L1D_prefetch_useless 1161
Core_0_L1D_prefetch_late 1087
Core_0_L1D_prefetch_fill 3072
Core_0_L1D_prefetch_too_early 3
Core_0_L1D_prefetch_too_early_among_fill 0.000976562
Core_0_L1D_prefetch_too_early_among_useless 0.00258398
Core_0_L1D_prefetch_pollution_evict 2073
Core_0_L1D_prefetch_pollution_demand 2073
Core_0_L1D_prefetch_pollution_among_prefetch_fill 0.674805
Core_0_L1D_prefetch_accuracy 0.0361257
Core_0_L1D_prefetch_coverage 0.0019897

Core_0_L2C_total_access 4476029
Core_0_L2C_total_hit 2489492
Core_0_L2C_total_miss 1986537
Core_0_L2C_total_MPKI 19.8654
Core_0_L2C_total_miss_rate 0.443817
Core_0_L2C_demand_access 3897759
Core_0_L2C_demand_hit 1944693
Core_0_L2C_demand_miss 1953066
Core_0_L2C_demand_MPKI 19.5307
Core_0_L2C_demand_miss_rate 0.501074
Core_0_L2C_load_access 3721399
Core_0_L2C_load_hit 1870286
Core_0_L2C_load_miss 1851113
Core_0_L2C_load_MPKI 18.5111
Core_0_L2C_load_miss_rate 0.497424
Core_0_L2C_rfo_access 176360
Core_0_L2C_rfo_hit 74407
Core_0_L2C_rfo_miss 101953
Core_0_L2C_rfo_MPKI 1.01953
Core_0_L2C_rfo_miss_rate 0.578096
Core_0_L2C_prefetch_access 61131
Core_0_L2C_prefetch_hit 31221
Core_0_L2C_prefetch_miss 29910
Core_0_L2C_prefetch_MPKI 0.2991
Core_0_L2C_prefetch_miss_rate 0.489277
Core_0_L2C_writeback_access 517139
Core_0_L2C_writeback_hit 513578
Core_0_L2C_writeback_miss 3561
Core_0_L2C_writeback_MPKI 0.03561
Core_0_L2C_writeback_miss_rate 0.00688596
Core_0_L2C_prefetch_requested 78717
Core_0_L2C_prefetch_issued 50388
Core_0_L2C_prefetch_useful 9816
Core_0_L2C_prefetch_useless 9500
Core_0_L2C_prefetch_late 510
Core_0_L2C_prefetch_fill 23178
Core_0_L2C_prefetch_too_early 622
Core_0_L2C_prefetch_too_early_among_fill 0.0268358
Core_0_L2C_prefetch_too_early_among_useless 0.0654737
Core_0_L2C_prefetch_pollution_evict 21142
Core_0_L2C_prefetch_pollution_demand 21134
Core_0_L2C_prefetch_pollution_among_prefetch_fill 0.912158
Core_0_L2C_prefetch_accuracy 0.194808
Core_0_L2C_prefetch_coverage 0.00500081

Core_0_LLC_total_access 2281663
Core_0_LLC_total_hit 2142593
Core_0_LLC_total_miss 139070
Core_0_LLC_total_MPKI 1.3907
Core_0_LLC_total_miss_rate 0.0609512
Core_0_LLC_demand_access 1951121
Core_0_LLC_demand_hit 1822949
Core_0_LLC_demand_miss 128172
Core_0_LLC_demand_MPKI 1.28172
Core_0_LLC_demand_miss_rate 0.0656915
Core_0_LLC_load_access 1849180
Core_0_LLC_load_hit 1742252
Core_0_LLC_load_miss 106928
Core_0_LLC_load_MPKI 1.06928
Core_0_LLC_load_miss_rate 0.0578245
Core_0_LLC_rfo_access 101941
Core_0_LLC_rfo_hit 80697
Core_0_LLC_rfo_miss 21244
Core_0_LLC_rfo_MPKI 0.21244
Core_0_LLC_rfo_miss_rate 0.208395
Core_0_LLC_prefetch_access 25123
Core_0_LLC_prefetch_hit 18276
Core_0_LLC_prefetch_miss 6847
Core_0_LLC_prefetch_MPKI 0.06847
Core_0_LLC_prefetch_miss_rate 0.272539
Core_0_LLC_writeback_access 305419
Core_0_LLC_writeback_hit 301368
Core_0_LLC_writeback_miss 4051
Core_0_LLC_writeback_MPKI 0.04051
Core_0_LLC_writeback_miss_rate 0.0132637
Core_0_LLC_prefetch_requested 0
Core_0_LLC_prefetch_issued 0
Core_0_LLC_prefetch_useful 0
Core_0_LLC_prefetch_useless 0
Core_0_LLC_prefetch_late 0
Core_0_LLC_prefetch_fill 6847
Core_0_LLC_prefetch_too_early 0
Core_0_LLC_prefetch_too_early_among_fill 0
Core_0_LLC_prefetch_too_early_among_useless 0
Core_0_LLC_prefetch_pollution_evict 5065
Core_0_LLC_prefetch_pollution_demand 5065
Core_0_LLC_prefetch_pollution_among_prefetch_fill 0.73974
Core_0_LLC_prefetch_accuracy 0
Core_0_LLC_prefetch_coverage 0

[DRAM Statistics]
Channel_0_RQ_row_buffer_hit 3580
Channel_0_RQ_row_buffer_miss 133734
Channel_0_WQ_row_buffer_hit 20500
Channel_0_WQ_row_buffer_miss 84226
Channel_0_WQ_full 0
Channel_0_dbus_congested 724078
DRAM_total_RQ_row_buffer_hit 3580
DRAM_total_RQ_row_buffer_miss 133734
DRAM_total_WQ_row_buffer_hit 20500
DRAM_total_WQ_row_buffer_miss 84226
DRAM_total_WQ_full 0
DRAM_total_dbus_congested 724078
DRAM_avg_congested_cycle 16.0829

====== DRAM_RQ_TRAFFIC ========
DRAM_RQ_READ_TRAFFIC_BREAKDOWN:
data_demand_read.count = 120791
data_demand_read.share = 87.97%

inst_demand_read.count = 7381
inst_demand_read.share = 5.38%

cache_inst_prefetch.count = 0
cache_inst_prefetch.share = 0.00%

cache_data_prefetch.count = 6847
cache_data_prefetch.share = 4.99%

stlb_data_demand.count = 2090
stlb_data_demand.share = 1.52%

stlb_inst_demand.count = 197
stlb_inst_demand.share = 0.14%

stlb_l1i_pref.count = 0
stlb_l1i_pref.share = 0.00%

stlb_l1d_pref.count = 11
stlb_l1d_pref.share = 0.01%

DRAM_RQ_READ_TRAFFIC_SUMMARY:
cache_demand.count = 128172
cache_demand.share = 93.34%

cache_prefetch.count = 6847
cache_prefetch.share = 4.99%

stlb_demand.count = 2287
stlb_demand.share = 1.67%

stlb_prefetch.count = 11
stlb_prefetch.share = 0.01%

DRAM_RQ_READ_TRAFFIC_DEBUG:
total_classified_read.count = 137317
unclassified_read.count = 0
total_read_with_other.count = 137317

classified_plus_unclassified_check.count = 137317
dram_rq_read_total_observed.count = 137317
dram_rq_read_total_observed.per_1K_instructions = 1.37317

STLB_MISS_PTW_DRAM_TOUCH_BREAKDOWN:
stlb_miss_total.count = 228870

stlb_miss_touch_dram.count = 2208
stlb_miss_touch_dram.share = 0.96%

stlb_miss_no_dram_touch.count = 226662
stlb_miss_no_dram_touch.share = 99.04%

STLB_MISS_PTW_DRAM_TOUCH_DEBUG:
stlb_miss_touch_plus_no_touch.count = 228870
stlb_miss_total_check.count = 228870

======STLB miss causes ========
Core_0_STLB_miss_cause_breakdown
Core_0_STLB_cause_Demand_Data_miss 141708
Core_0_STLB_cause_Demand_Data_miss_rate 0.0873891
Core_0_STLB_cause_Demand_Instruction_miss 87075
Core_0_STLB_cause_Demand_Instruction_miss_rate 0.0536978
Core_0_STLB_cause_L1D_Prefetch_miss 142
Core_0_STLB_cause_L1D_Prefetch_miss_rate 8.75692e-05
Core_0_STLB_cause_L1D_Prefetch_Same_Page_miss 0
Core_0_STLB_cause_L1D_Prefetch_Same_Page_miss_rate 0
Core_0_STLB_cause_L1D_Prefetch_Cross_Page_miss 142
Core_0_STLB_cause_L1D_Prefetch_Cross_Page_miss_rate 8.75692e-05
Core_0_STLB_cause_L1I_Prefetch_miss 0
Core_0_STLB_cause_L1I_Prefetch_miss_rate 0
Core_0_STLB_cause_Other_miss 0
Core_0_STLB_cause_Other_miss_rate 0
Core_0_STLB_Demand_miss 228783
Core_0_STLB_Demand_miss_rate 0.141087
Core_0_STLB_L1D_Prefetch_miss 142
Core_0_STLB_L1D_Prefetch_miss_rate 8.75692e-05
Core_0_STLB_Other_miss 0
Core_0_STLB_Other_miss_rate 0

========== vBerti-TLB Cross-page Flow Stats ==========

Core_0_vBerti_Requested 241697
Core_0_vBerti_Cross_page_prefetch_in_Requested 30614
Core_0_vBerti_Same_page_prefetch_in_Requested 211083
Core_0_vBerti_Cross_page_prefetch_of_Requested 0.126663
Core_0_vBerti_Issued 82988
Core_0_vBerti_PQ_Drop_Rate 0.656644
Core_0_vBerti_InPQ_Cross_page_prefetch_of_Requested 0.0554041
Core_0_vBerti_Cross_page_PQ_Drop_rate 0.562586
Core_0_vBerti_Cross_page_prefetch_of_Issued 0.161361

========= DTLB_vBerti Prefetch Stats =========
Core_0_DTLB_demand_access 21925586
Core_0_DTLB_demand_hit 20250782
Core_0_DTLB_demand_miss 1674804
Core_0_DTLB_demand_mshr_merge 442718
Core_0_DTLB_demand_fill 1232165
Core_0_DTLB_demand_miss_rate 0.0763858
Core_0_DTLB_demand_mpki 16.748
Core_0_DTLB_vberti_prefetch_access 57268
Core_0_DTLB_vberti_prefetch_hit 56675
Core_0_DTLB_vberti_prefetch_miss 593
Core_0_DTLB_vberti_prefetch_mshr_merge 403
Core_0_DTLB_vberti_prefetch_fill 111
Core_0_DTLB_vberti_prefetch_miss_rate 0.0103548
Core_0_DTLB_vberti_prefetch_mpki 0.00593

=== DTLB_vBerti Same/Cross-page Prefetch Stats ===
Core_0_DTLB_vberti_same_page_prefetch 47736
Core_0_DTLB_vberti_same_page_prefetch_hit 47736
Core_0_DTLB_vberti_same_page_prefetch_miss 0
Core_0_DTLB_vberti_same_page_prefetch_mshr_merge 0
Core_0_DTLB_vberti_same_page_prefetch_fill 0
Core_0_DTLB_vberti_same_page_prefetch_miss_rate 0
Core_0_DTLB_vberti_same_page_prefetch_mpki 0
Core_0_DTLB_vberti_cross_page_prefetch 9532
Core_0_DTLB_vberti_cross_page_prefetch_hit 8939
Core_0_DTLB_vberti_cross_page_prefetch_miss 593
Core_0_DTLB_vberti_cross_page_prefetch_mshr_merge 403
Core_0_DTLB_vberti_cross_page_prefetch_fill 111
Core_0_DTLB_vberti_cross_page_prefetch_miss_rate 0.0622115
Core_0_DTLB_vberti_cross_page_prefetch_mpki 0.00593
Core_0_DTLB_same_page_prefetch_miss_rate 0
Core_0_DTLB_same_page_prefetch_mpki 0
Core_0_DTLB_cross_page_prefetch_miss_rate 0.0622115
Core_0_DTLB_cross_page_prefetch_mpki 0.00593
Core_0_DTLB_cross_page_prefetch_issued 9532
Core_0_DTLB_cross_page_prefetch_lookups 9532
Core_0_DTLB_cross_page_prefetch_useful 122
Core_0_DTLB_cross_page_prefetch_useless 68
Core_0_DTLB_cross_page_prefetch_late 79
Core_0_DTLB_cross_page_prefetch_too_early 20
Core_0_DTLB_cross_page_prefetch_too_early_among_fill 0.18018
Core_0_DTLB_cross_page_prefetch_too_early_among_useless 0.294118
Core_0_DTLB_cross_page_prefetch_pollution_evict 110
Core_0_DTLB_cross_page_prefetch_pollution_demand 110
Core_0_DTLB_cross_page_prefetch_pollution_among_prefetch_fill 0.990991
Core_0_DTLB_cross_page_prefetch_accuracy 0.012799
Core_0_DTLB_cross_page_prefetch_coverage 7.2839e-05

========= STLB_vBerti Prefetch Stats =========
Core_0_STLB_demand_access 1621385
Core_0_STLB_demand_hit 1392602
Core_0_STLB_demand_miss 228783
Core_0_STLB_demand_mshr_merge 0
Core_0_STLB_demand_fill 228783
Core_0_STLB_demand_miss_rate 0.141103
Core_0_STLB_demand_mpki 2.28783
Core_0_STLB_vberti_prefetch_access 190
Core_0_STLB_vberti_prefetch_hit 48
Core_0_STLB_vberti_prefetch_miss 142
Core_0_STLB_vberti_prefetch_mshr_merge 0
Core_0_STLB_vberti_prefetch_fill 0
Core_0_STLB_vberti_prefetch_miss_rate 0.747368
Core_0_STLB_vberti_prefetch_mpki 0.00142

=== STLB_vBerti Same/Cross-page Prefetch Stats ===
Core_0_STLB_vberti_same_page_prefetch 0
Core_0_STLB_vberti_same_page_prefetch_hit 0
Core_0_STLB_vberti_same_page_prefetch_miss 0
Core_0_STLB_vberti_same_page_prefetch_mshr_merge 0
Core_0_STLB_vberti_same_page_prefetch_fill 0
Core_0_STLB_vberti_same_page_prefetch_miss_rate 0
Core_0_STLB_vberti_same_page_prefetch_mpki 0
Core_0_STLB_vberti_cross_page_prefetch 190
Core_0_STLB_vberti_cross_page_prefetch_hit 48
Core_0_STLB_vberti_cross_page_prefetch_miss 142
Core_0_STLB_vberti_cross_page_prefetch_mshr_merge 0
Core_0_STLB_vberti_cross_page_prefetch_fill 0
Core_0_STLB_vberti_cross_page_prefetch_miss_rate 0.747368
Core_0_STLB_vberti_cross_page_prefetch_mpki 0.00142
Core_0_STLB_same_page_prefetch_miss_rate 0
Core_0_STLB_same_page_prefetch_mpki 0
Core_0_STLB_cross_page_prefetch_miss_rate 0.747368
Core_0_STLB_cross_page_prefetch_mpki 0.00142
Core_0_STLB_cross_page_prefetch_issued 190
Core_0_STLB_cross_page_prefetch_lookups 190
Core_0_STLB_cross_page_prefetch_useful 55
Core_0_STLB_cross_page_prefetch_useless 48
Core_0_STLB_cross_page_prefetch_late 55
Core_0_STLB_cross_page_prefetch_too_early 0
Core_0_STLB_cross_page_prefetch_too_early_among_fill 0
Core_0_STLB_cross_page_prefetch_too_early_among_useless 0
Core_0_STLB_cross_page_prefetch_pollution_evict 0
Core_0_STLB_cross_page_prefetch_pollution_demand 0
Core_0_STLB_cross_page_prefetch_pollution_among_prefetch_fill 0
Core_0_STLB_cross_page_prefetch_accuracy 0.289474
Core_0_STLB_cross_page_prefetch_coverage 0.000240345

========= STLB Cross-page Prefetch Buffer Stats =========
Core_0_STLB_raw_demand_miss 141708
Core_0_CP_PB_insert 142
Core_0_CP_PB_demand_hit 55
Core_0_STLB_PB_demand_miss 141653
Core_0_CP_PB_coverage 0.000388122
Core_0_STLB_raw_demand_mpki 1.41708
Core_0_STLB_PB_demand_mpki 1.41653
Core_0_CP_PB_demand_hit_mpki 0.00055

Core_0_TLB_demand_miss_rate 0.0104345
Core_0_TLB_demand_mpki 2.28783
Core_0_TLB_same_page_prefetch_miss_rate 0
Core_0_TLB_same_page_prefetch_mpki 0
Core_0_TLB_cross_page_prefetch_miss_rate 0.0148972
Core_0_TLB_cross_page_prefetch_mpki 0.00142
Core_0_TLB_cross_page_prefetch_issued 9532
Core_0_TLB_cross_page_prefetch_lookups 9532
Core_0_TLB_cross_page_prefetch_useful 3
Core_0_TLB_cross_page_prefetch_useless 68
Core_0_TLB_cross_page_prefetch_late 0
Core_0_TLB_cross_page_prefetch_too_early 20
Core_0_TLB_cross_page_prefetch_too_early_among_fill 0.18018
Core_0_TLB_cross_page_prefetch_too_early_among_useless 0.294118
Core_0_TLB_cross_page_prefetch_accuracy 0.000314729
Core_0_TLB_cross_page_prefetch_coverage 1.31127e-05
BERTI TO_L1: 372477 TO_L2: 268556 TO_L2_BC_MSHR: 19400
BERTI AVG_LAT: 24.986 NUM_TRACK_LATENCY: 1950486 NUM_CANT_TRACK_LATENCY: 0
BERTI CROSS_PAGE 78082 NO_CROSS_PAGE: 562951
BERTI FOUND_BERTI: 1125690 NO_FOUND_BERTI: 31911725
BERTI AVERAGE_ISSUED: 3.24984
