[VMEM] WARNING: physical memory size is smaller than virtual memory size.

*** ChampSim Multicore Out-of-Order Simulator ***
Warmup Instructions: 50000000
Simulation Instructions: 100000000
Number of CPUs: 1
Page size: 4096
Core 0: /data2/zcq/champsim_traces_gap/sssp.urand-4669B.champsimtrace.xz
VBerti Prefetcher
BERTI HASH ENTANGLING
BERTI IP MASK ffff
Off-chip DRAM Size: 16 GiB Channels: 1 Width: 64-bit Data Rate: 3205 MT/s
Warmup halting CPU 0 at instruction 50000003 cycle 41902949 for remainder of phase
Warmup finished CPU 0 instructions: 50000003 cycles: 41902949 cumulative IPC: 1.193 (Simulation time: 00 hr 08 min 21 sec)
Warmup complete CPU 0 instructions: 50000003 cycles: 41902949 cumulative IPC: 1.193 (Simulation time: 00 hr 08 min 21 sec)
Simulation finished CPU 0 instructions: 100000005 cycles: 587017990 cumulative IPC: 0.1704 (Simulation time: 01 hr 04 min 35 sec)
Simulation complete CPU 0 instructions: 100000005 cycles: 587017990 cumulative IPC: 0.1704 (Simulation time: 01 hr 04 min 35 sec)

ChampSim completed all CPUs

=== Simulation ===
CPU 0 runs /data2/zcq/champsim_traces_gap/sssp.urand-4669B.champsimtrace.xz

Region of Interest Statistics

CPU 0 cumulative IPC: 0.1704 instructions: 100000005 cycles: 587017990
CPU 0 Branch Prediction Accuracy: 97.09% MPKI: 4.418 Average ROB Occupancy at Mispredict: 176.7
Branch type MPKI
BRANCH_DIRECT_JUMP: 0
BRANCH_INDIRECT: 0
BRANCH_CONDITIONAL: 4.418
BRANCH_DIRECT_CALL: 0
BRANCH_INDIRECT_CALL: 0
BRANCH_RETURN: 0

cpu0->cpu0_STLB TOTAL        ACCESS:    7693771 HIT:     321765 MISS:    7372006 MSHR_MERGE:          0
cpu0->cpu0_STLB LOAD         ACCESS:    7693771 HIT:     321765 MISS:    7372006 MSHR_MERGE:          0
cpu0->cpu0_STLB RFO          ACCESS:          0 HIT:          0 MISS:          0 MSHR_MERGE:          0
cpu0->cpu0_STLB PREFETCH     ACCESS:          0 HIT:          0 MISS:          0 MSHR_MERGE:          0
cpu0->cpu0_STLB WRITE        ACCESS:          0 HIT:          0 MISS:          0 MSHR_MERGE:          0
cpu0->cpu0_STLB TRANSLATION  ACCESS:          0 HIT:          0 MISS:          0 MSHR_MERGE:          0
cpu0->cpu0_STLB PREFETCH REQUESTED:          0 ISSUED:          0 USEFUL:          0 USELESS:          0 LATE:          0 TOO_EARLY:          0
cpu0->cpu0_STLB AVERAGE MISS LATENCY: 67.72 cycles
cpu0->cpu0_L2C TOTAL        ACCESS:   24605484 HIT:    6789742 MISS:   17815742 MSHR_MERGE:    2223377
cpu0->cpu0_L2C LOAD         ACCESS:    8052366 HIT:     328937 MISS:    7723429 MSHR_MERGE:       4474
cpu0->cpu0_L2C RFO          ACCESS:     142833 HIT:     111791 MISS:      31042 MSHR_MERGE:          0
cpu0->cpu0_L2C PREFETCH     ACCESS:    8267542 HIT:    4563208 MISS:    3704334 MSHR_MERGE:    2218903
cpu0->cpu0_L2C WRITE        ACCESS:     394497 HIT:     392053 MISS:       2444 MSHR_MERGE:          0
cpu0->cpu0_L2C TRANSLATION  ACCESS:    7748246 HIT:    1393753 MISS:    6354493 MSHR_MERGE:          0
cpu0->cpu0_L2C PREFETCH REQUESTED:    3080985 ISSUED:    3080917 USEFUL:     482776 USELESS:     453474 LATE:       1549 TOO_EARLY:        199
cpu0->cpu0_L2C AVERAGE MISS LATENCY: 160.6 cycles
cpu0->cpu0_L1I TOTAL        ACCESS:     710488 HIT:     710488 MISS:          0 MSHR_MERGE:          0
cpu0->cpu0_L1I LOAD         ACCESS:     710488 HIT:     710488 MISS:          0 MSHR_MERGE:          0
cpu0->cpu0_L1I RFO          ACCESS:          0 HIT:          0 MISS:          0 MSHR_MERGE:          0
cpu0->cpu0_L1I PREFETCH     ACCESS:          0 HIT:          0 MISS:          0 MSHR_MERGE:          0
cpu0->cpu0_L1I WRITE        ACCESS:          0 HIT:          0 MISS:          0 MSHR_MERGE:          0
cpu0->cpu0_L1I TRANSLATION  ACCESS:          0 HIT:          0 MISS:          0 MSHR_MERGE:          0
cpu0->cpu0_L1I PREFETCH REQUESTED:          0 ISSUED:          0 USEFUL:          0 USELESS:          0 LATE:          0 TOO_EARLY:          0
cpu0->cpu0_L1I AVERAGE MISS LATENCY: - cycles
cpu0->cpu0_L1D TOTAL        ACCESS:   61359472 HIT:   35546986 MISS:   25812486 MSHR_MERGE:    4455124
cpu0->cpu0_L1D LOAD         ACCESS:   30560116 HIT:   18901209 MISS:   11658907 MSHR_MERGE:    3606542
cpu0->cpu0_L1D RFO          ACCESS:          0 HIT:          0 MISS:          0 MSHR_MERGE:          0
cpu0->cpu0_L1D PREFETCH     ACCESS:    9452248 HIT:    3201955 MISS:    6250293 MSHR_MERGE:     836376
cpu0->cpu0_L1D WRITE        ACCESS:    1247811 HIT:    1104962 MISS:     142849 MSHR_MERGE:         15
cpu0->cpu0_L1D TRANSLATION  ACCESS:   20099297 HIT:   12338860 MISS:    7760437 MSHR_MERGE:      12191
cpu0->cpu0_L1D PREFETCH REQUESTED:   15057791 ISSUED:    9452240 USEFUL:     221751 USELESS:     238405 LATE:       5876 TOO_EARLY:       7488
cpu0->cpu0_L1D AVERAGE MISS LATENCY: 151.1 cycles
cpu0->cpu0_ITLB TOTAL        ACCESS:     708576 HIT:     708576 MISS:          0 MSHR_MERGE:          0
cpu0->cpu0_ITLB LOAD         ACCESS:     708576 HIT:     708576 MISS:          0 MSHR_MERGE:          0
cpu0->cpu0_ITLB RFO          ACCESS:          0 HIT:          0 MISS:          0 MSHR_MERGE:          0
cpu0->cpu0_ITLB PREFETCH     ACCESS:          0 HIT:          0 MISS:          0 MSHR_MERGE:          0
cpu0->cpu0_ITLB WRITE        ACCESS:          0 HIT:          0 MISS:          0 MSHR_MERGE:          0
cpu0->cpu0_ITLB TRANSLATION  ACCESS:          0 HIT:          0 MISS:          0 MSHR_MERGE:          0
cpu0->cpu0_ITLB PREFETCH REQUESTED:          0 ISSUED:          0 USEFUL:          0 USELESS:          0 LATE:          0 TOO_EARLY:          0
cpu0->cpu0_ITLB AVERAGE MISS LATENCY: - cycles
cpu0->cpu0_DTLB TOTAL        ACCESS:   37457449 HIT:   26046635 MISS:   11410814 MSHR_MERGE:    3717043
cpu0->cpu0_DTLB LOAD         ACCESS:   37457449 HIT:   26046635 MISS:   11410814 MSHR_MERGE:    3717043
cpu0->cpu0_DTLB RFO          ACCESS:          0 HIT:          0 MISS:          0 MSHR_MERGE:          0
cpu0->cpu0_DTLB PREFETCH     ACCESS:          0 HIT:          0 MISS:          0 MSHR_MERGE:          0
cpu0->cpu0_DTLB WRITE        ACCESS:          0 HIT:          0 MISS:          0 MSHR_MERGE:          0
cpu0->cpu0_DTLB TRANSLATION  ACCESS:          0 HIT:          0 MISS:          0 MSHR_MERGE:          0
cpu0->cpu0_DTLB PREFETCH REQUESTED:          0 ISSUED:          0 USEFUL:          0 USELESS:          0 LATE:          0 TOO_EARLY:          0
cpu0->cpu0_DTLB AVERAGE MISS LATENCY: 70.88 cycles
cpu0->LLC TOTAL        ACCESS:   15828607 HIT:    5803665 MISS:   10024942 MSHR_MERGE:      28256
cpu0->LLC LOAD         ACCESS:    7718955 HIT:      10543 MISS:    7708412 MSHR_MERGE:          0
cpu0->LLC RFO          ACCESS:      31042 HIT:      17488 MISS:      13554 MSHR_MERGE:          0
cpu0->LLC PREFETCH     ACCESS:    1485431 HIT:      12286 MISS:    1473145 MSHR_MERGE:      28256
cpu0->LLC WRITE        ACCESS:     238686 HIT:      65601 MISS:     173085 MSHR_MERGE:          0
cpu0->LLC TRANSLATION  ACCESS:    6354493 HIT:    5697747 MISS:     656746 MSHR_MERGE:          0
cpu0->LLC PREFETCH REQUESTED:          0 ISSUED:          0 USEFUL:          0 USELESS:          0 LATE:          0 TOO_EARLY:          0
cpu0->LLC AVERAGE MISS LATENCY: 239.4 cycles

DRAM Statistics

Channel 0 RQ ROW_BUFFER_HIT:        148
  ROW_BUFFER_MISS:    9823445
  AVG DBUS CONGESTED CYCLE: 6.613
Channel 0 WQ ROW_BUFFER_HIT:      58935
  ROW_BUFFER_MISS:     157125
  FULL:          0
Channel 0 REFRESHES ISSUED:      48919

[ROI Statistics]
[System Configuration]
num_cpus 1
cpu_freq 4000
fetch_width 6
decode_width 6
dispatch_width 6
execute_width 6
lq_width 2
sq_width 2
retire_width 6
scheduler_size 128
branch_mispredict_penalty 15
rob_size 352
lq_size 128
sq_size 72
ifetch_buffer_size 64
decode_buffer_size 32
dispatch_buffer_size 32
register_file_size 288
decode_latency 1
dispatch_latency 1
schedule_latency 1
execute_latency 1
page_size 4096
block_size 64
core_0_itlb_set 16
core_0_itlb_way 4
core_0_itlb_rq_size 16
core_0_itlb_wq_size 16
core_0_itlb_pq_size 0
core_0_itlb_mshr_size 8
core_0_itlb_hit_latency 1
core_0_itlb_fill_latency 1
core_0_itlb_max_tag_check 2
core_0_itlb_max_fill 2
core_0_dtlb_set 16
core_0_dtlb_way 4
core_0_dtlb_rq_size 16
core_0_dtlb_wq_size 16
core_0_dtlb_pq_size 0
core_0_dtlb_mshr_size 8
core_0_dtlb_hit_latency 1
core_0_dtlb_fill_latency 1
core_0_dtlb_max_tag_check 2
core_0_dtlb_max_fill 2
core_0_stlb_set 128
core_0_stlb_way 12
core_0_stlb_rq_size 32
core_0_stlb_wq_size 32
core_0_stlb_pq_size 0
core_0_stlb_mshr_size 16
core_0_stlb_hit_latency 4
core_0_stlb_fill_latency 4
core_0_stlb_max_tag_check 1
core_0_stlb_max_fill 1
core_0_l1i_set 64
core_0_l1i_way 8
core_0_l1i_rq_size 64
core_0_l1i_wq_size 64
core_0_l1i_pq_size 32
core_0_l1i_mshr_size 8
core_0_l1i_hit_latency 2
core_0_l1i_fill_latency 2
core_0_l1i_max_tag_check 2
core_0_l1i_max_fill 2
core_0_l1d_set 64
core_0_l1d_way 12
core_0_l1d_rq_size 64
core_0_l1d_wq_size 64
core_0_l1d_pq_size 8
core_0_l1d_mshr_size 16
core_0_l1d_hit_latency 2
core_0_l1d_fill_latency 3
core_0_l1d_max_tag_check 2
core_0_l1d_max_fill 2
core_0_l2c_set 1024
core_0_l2c_way 8
core_0_l2c_rq_size 32
core_0_l2c_wq_size 32
core_0_l2c_pq_size 16
core_0_l2c_mshr_size 32
core_0_l2c_hit_latency 5
core_0_l2c_fill_latency 5
core_0_l2c_max_tag_check 1
core_0_l2c_max_fill 1
llc_set 2048
llc_way 16
llc_rq_size 32
llc_wq_size 32
llc_pq_size 32
llc_mshr_size 64
llc_hit_latency 10
llc_fill_latency 10
llc_max_tag_check 1
llc_max_fill 1
dram_channels 1
dram_ranks 1
dram_bankgroups 8
dram_banks 4
dram_rows 65536
dram_columns 1024
dram_channel_width 8
dram_rq_size 64
dram_wq_size 64
dram_size 17179869184
core_0_itlb_prefetcher no
core_0_dtlb_prefetcher no
core_0_stlb_prefetcher no
core_0_l1i_prefetcher next_line
core_0_l1d_prefetcher vberti
core_0_l2c_prefetcher ip_stride
llc_prefetcher no
llc_replacement drrip

Core_0_instructions 100000005
Core_0_cycles 587017990
Core_0_IPC 0.170353
Core_0_branch_prediction_accuracy 97.0856
Core_0_branch_MPKI 4.41785
Core_0_average_ROB_occupancy_at_mispredict 176.727

Core_0_ITLB_total_access 708576
Core_0_ITLB_total_hit 708576
Core_0_ITLB_total_miss 0
Core_0_ITLB_total_MPKI 0
Core_0_ITLB_total_miss_rate 0
Core_0_ITLB_demand_access 708576
Core_0_ITLB_demand_hit 708576
Core_0_ITLB_demand_miss 0
Core_0_ITLB_demand_MPKI 0
Core_0_ITLB_demand_miss_rate 0
Core_0_ITLB_load_access 708576
Core_0_ITLB_load_hit 708576
Core_0_ITLB_load_miss 0
Core_0_ITLB_load_MPKI 0
Core_0_ITLB_load_miss_rate 0
Core_0_ITLB_rfo_access 0
Core_0_ITLB_rfo_hit 0
Core_0_ITLB_rfo_miss 0
Core_0_ITLB_rfo_MPKI 0
Core_0_ITLB_rfo_miss_rate 0
Core_0_ITLB_prefetch_access 0
Core_0_ITLB_prefetch_hit 0
Core_0_ITLB_prefetch_miss 0
Core_0_ITLB_prefetch_MPKI 0
Core_0_ITLB_prefetch_miss_rate 0
Core_0_ITLB_writeback_access 0
Core_0_ITLB_writeback_hit 0
Core_0_ITLB_writeback_miss 0
Core_0_ITLB_writeback_MPKI 0
Core_0_ITLB_writeback_miss_rate 0
Core_0_ITLB_prefetch_requested 0
Core_0_ITLB_prefetch_issued 0
Core_0_ITLB_prefetch_useful 0
Core_0_ITLB_prefetch_useless 0
Core_0_ITLB_prefetch_late 0
Core_0_ITLB_prefetch_fill 0
Core_0_ITLB_prefetch_too_early 0
Core_0_ITLB_prefetch_too_early_among_fill 0
Core_0_ITLB_prefetch_too_early_among_useless 0
Core_0_ITLB_prefetch_pollution_evict 0
Core_0_ITLB_prefetch_pollution_demand 0
Core_0_ITLB_prefetch_pollution_among_prefetch_fill 0
Core_0_ITLB_prefetch_accuracy 0
Core_0_ITLB_prefetch_coverage 0

Core_0_DTLB_total_access 37457449
Core_0_DTLB_total_hit 26046635
Core_0_DTLB_total_miss 11410814
Core_0_DTLB_total_MPKI 114.108
Core_0_DTLB_total_miss_rate 0.304634
Core_0_DTLB_demand_access 37457449
Core_0_DTLB_demand_hit 26046635
Core_0_DTLB_demand_miss 11410814
Core_0_DTLB_demand_MPKI 114.108
Core_0_DTLB_demand_miss_rate 0.304634
Core_0_DTLB_load_access 37457449
Core_0_DTLB_load_hit 26046635
Core_0_DTLB_load_miss 11410814
Core_0_DTLB_load_MPKI 114.108
Core_0_DTLB_load_miss_rate 0.304634
Core_0_DTLB_rfo_access 0
Core_0_DTLB_rfo_hit 0
Core_0_DTLB_rfo_miss 0
Core_0_DTLB_rfo_MPKI 0
Core_0_DTLB_rfo_miss_rate 0
Core_0_DTLB_prefetch_access 0
Core_0_DTLB_prefetch_hit 0
Core_0_DTLB_prefetch_miss 0
Core_0_DTLB_prefetch_MPKI 0
Core_0_DTLB_prefetch_miss_rate 0
Core_0_DTLB_writeback_access 0
Core_0_DTLB_writeback_hit 0
Core_0_DTLB_writeback_miss 0
Core_0_DTLB_writeback_MPKI 0
Core_0_DTLB_writeback_miss_rate 0
Core_0_DTLB_prefetch_requested 0
Core_0_DTLB_prefetch_issued 0
Core_0_DTLB_prefetch_useful 0
Core_0_DTLB_prefetch_useless 0
Core_0_DTLB_prefetch_late 0
Core_0_DTLB_prefetch_fill 0
Core_0_DTLB_prefetch_too_early 0
Core_0_DTLB_prefetch_too_early_among_fill 0
Core_0_DTLB_prefetch_too_early_among_useless 0
Core_0_DTLB_prefetch_pollution_evict 0
Core_0_DTLB_prefetch_pollution_demand 0
Core_0_DTLB_prefetch_pollution_among_prefetch_fill 0
Core_0_DTLB_prefetch_accuracy 0
Core_0_DTLB_prefetch_coverage 0

Core_0_STLB_total_access 7693771
Core_0_STLB_total_hit 321765
Core_0_STLB_total_miss 7372006
Core_0_STLB_total_MPKI 73.7201
Core_0_STLB_total_miss_rate 0.958179
Core_0_STLB_demand_access 7693771
Core_0_STLB_demand_hit 321765
Core_0_STLB_demand_miss 7372006
Core_0_STLB_demand_MPKI 73.7201
Core_0_STLB_demand_miss_rate 0.958179
Core_0_STLB_load_access 7693771
Core_0_STLB_load_hit 321765
Core_0_STLB_load_miss 7372006
Core_0_STLB_load_MPKI 73.7201
Core_0_STLB_load_miss_rate 0.958179
Core_0_STLB_rfo_access 0
Core_0_STLB_rfo_hit 0
Core_0_STLB_rfo_miss 0
Core_0_STLB_rfo_MPKI 0
Core_0_STLB_rfo_miss_rate 0
Core_0_STLB_prefetch_access 0
Core_0_STLB_prefetch_hit 0
Core_0_STLB_prefetch_miss 0
Core_0_STLB_prefetch_MPKI 0
Core_0_STLB_prefetch_miss_rate 0
Core_0_STLB_writeback_access 0
Core_0_STLB_writeback_hit 0
Core_0_STLB_writeback_miss 0
Core_0_STLB_writeback_MPKI 0
Core_0_STLB_writeback_miss_rate 0
Core_0_STLB_prefetch_requested 0
Core_0_STLB_prefetch_issued 0
Core_0_STLB_prefetch_useful 0
Core_0_STLB_prefetch_useless 0
Core_0_STLB_prefetch_late 0
Core_0_STLB_prefetch_fill 0
Core_0_STLB_prefetch_too_early 0
Core_0_STLB_prefetch_too_early_among_fill 0
Core_0_STLB_prefetch_too_early_among_useless 0
Core_0_STLB_prefetch_pollution_evict 0
Core_0_STLB_prefetch_pollution_demand 0
Core_0_STLB_prefetch_pollution_among_prefetch_fill 0
Core_0_STLB_prefetch_accuracy 0
Core_0_STLB_prefetch_coverage 0

Core_0_L1I_total_access 710488
Core_0_L1I_total_hit 710488
Core_0_L1I_total_miss 0
Core_0_L1I_total_MPKI 0
Core_0_L1I_total_miss_rate 0
Core_0_L1I_demand_access 710488
Core_0_L1I_demand_hit 710488
Core_0_L1I_demand_miss 0
Core_0_L1I_demand_MPKI 0
Core_0_L1I_demand_miss_rate 0
Core_0_L1I_load_access 710488
Core_0_L1I_load_hit 710488
Core_0_L1I_load_miss 0
Core_0_L1I_load_MPKI 0
Core_0_L1I_load_miss_rate 0
Core_0_L1I_rfo_access 0
Core_0_L1I_rfo_hit 0
Core_0_L1I_rfo_miss 0
Core_0_L1I_rfo_MPKI 0
Core_0_L1I_rfo_miss_rate 0
Core_0_L1I_prefetch_access 0
Core_0_L1I_prefetch_hit 0
Core_0_L1I_prefetch_miss 0
Core_0_L1I_prefetch_MPKI 0
Core_0_L1I_prefetch_miss_rate 0
Core_0_L1I_writeback_access 0
Core_0_L1I_writeback_hit 0
Core_0_L1I_writeback_miss 0
Core_0_L1I_writeback_MPKI 0
Core_0_L1I_writeback_miss_rate 0
Core_0_L1I_prefetch_requested 0
Core_0_L1I_prefetch_issued 0
Core_0_L1I_prefetch_useful 0
Core_0_L1I_prefetch_useless 0
Core_0_L1I_prefetch_late 0
Core_0_L1I_prefetch_fill 0
Core_0_L1I_prefetch_too_early 0
Core_0_L1I_prefetch_too_early_among_fill 0
Core_0_L1I_prefetch_too_early_among_useless 0
Core_0_L1I_prefetch_pollution_evict 0
Core_0_L1I_prefetch_pollution_demand 0
Core_0_L1I_prefetch_pollution_among_prefetch_fill 0
Core_0_L1I_prefetch_accuracy 0
Core_0_L1I_prefetch_coverage 0

Core_0_L1D_total_access 41260175
Core_0_L1D_total_hit 23208126
Core_0_L1D_total_miss 18052049
Core_0_L1D_total_MPKI 180.52
Core_0_L1D_total_miss_rate 0.437518
Core_0_L1D_demand_access 30560116
Core_0_L1D_demand_hit 18901209
Core_0_L1D_demand_miss 11658907
Core_0_L1D_demand_MPKI 116.589
Core_0_L1D_demand_miss_rate 0.381507
Core_0_L1D_load_access 30560116
Core_0_L1D_load_hit 18901209
Core_0_L1D_load_miss 11658907
Core_0_L1D_load_MPKI 116.589
Core_0_L1D_load_miss_rate 0.381507
Core_0_L1D_rfo_access 0
Core_0_L1D_rfo_hit 0
Core_0_L1D_rfo_miss 0
Core_0_L1D_rfo_MPKI 0
Core_0_L1D_rfo_miss_rate 0
Core_0_L1D_prefetch_access 9452248
Core_0_L1D_prefetch_hit 3201955
Core_0_L1D_prefetch_miss 6250293
Core_0_L1D_prefetch_MPKI 62.5029
Core_0_L1D_prefetch_miss_rate 0.661249
Core_0_L1D_writeback_access 1247811
Core_0_L1D_writeback_hit 1104962
Core_0_L1D_writeback_miss 142849
Core_0_L1D_writeback_MPKI 1.42849
Core_0_L1D_writeback_miss_rate 0.11448
Core_0_L1D_prefetch_requested 15057791
Core_0_L1D_prefetch_issued 9452240
Core_0_L1D_prefetch_useful 221751
Core_0_L1D_prefetch_useless 238405
Core_0_L1D_prefetch_late 5876
Core_0_L1D_prefetch_fill 454298
Core_0_L1D_prefetch_too_early 7488
Core_0_L1D_prefetch_too_early_among_fill 0.0164826
Core_0_L1D_prefetch_too_early_among_useless 0.0314087
Core_0_L1D_prefetch_pollution_evict 2023
Core_0_L1D_prefetch_pollution_demand 1826
Core_0_L1D_prefetch_pollution_among_prefetch_fill 0.00445302
Core_0_L1D_prefetch_accuracy 0.0234602
Core_0_L1D_prefetch_coverage 0.0186649

Core_0_L2C_total_access 16857238
Core_0_L2C_total_hit 5395989
Core_0_L2C_total_miss 11461249
Core_0_L2C_total_MPKI 114.612
Core_0_L2C_total_miss_rate 0.679901
Core_0_L2C_demand_access 8195199
Core_0_L2C_demand_hit 440728
Core_0_L2C_demand_miss 7754471
Core_0_L2C_demand_MPKI 77.5447
Core_0_L2C_demand_miss_rate 0.946221
Core_0_L2C_load_access 8052366
Core_0_L2C_load_hit 328937
Core_0_L2C_load_miss 7723429
Core_0_L2C_load_MPKI 77.2343
Core_0_L2C_load_miss_rate 0.95915
Core_0_L2C_rfo_access 142833
Core_0_L2C_rfo_hit 111791
Core_0_L2C_rfo_miss 31042
Core_0_L2C_rfo_MPKI 0.31042
Core_0_L2C_rfo_miss_rate 0.217331
Core_0_L2C_prefetch_access 8267542
Core_0_L2C_prefetch_hit 4563208
Core_0_L2C_prefetch_miss 3704334
Core_0_L2C_prefetch_MPKI 37.0433
Core_0_L2C_prefetch_miss_rate 0.448057
Core_0_L2C_writeback_access 394497
Core_0_L2C_writeback_hit 392053
Core_0_L2C_writeback_miss 2444
Core_0_L2C_writeback_MPKI 0.02444
Core_0_L2C_writeback_miss_rate 0.00619523
Core_0_L2C_prefetch_requested 3080985
Core_0_L2C_prefetch_issued 3080917
Core_0_L2C_prefetch_useful 482776
Core_0_L2C_prefetch_useless 453474
Core_0_L2C_prefetch_late 1549
Core_0_L2C_prefetch_fill 1438359
Core_0_L2C_prefetch_too_early 199
Core_0_L2C_prefetch_too_early_among_fill 0.000138352
Core_0_L2C_prefetch_too_early_among_useless 0.000438834
Core_0_L2C_prefetch_pollution_evict 4844
Core_0_L2C_prefetch_pollution_demand 4829
Core_0_L2C_prefetch_pollution_among_prefetch_fill 0.00336773
Core_0_L2C_prefetch_accuracy 0.156699
Core_0_L2C_prefetch_coverage 0.0586089

Core_0_LLC_total_access 9474114
Core_0_LLC_total_hit 105918
Core_0_LLC_total_miss 9368196
Core_0_LLC_total_MPKI 93.682
Core_0_LLC_total_miss_rate 0.98882
Core_0_LLC_demand_access 7749997
Core_0_LLC_demand_hit 28031
Core_0_LLC_demand_miss 7721966
Core_0_LLC_demand_MPKI 77.2197
Core_0_LLC_demand_miss_rate 0.996383
Core_0_LLC_load_access 7718955
Core_0_LLC_load_hit 10543
Core_0_LLC_load_miss 7708412
Core_0_LLC_load_MPKI 77.0841
Core_0_LLC_load_miss_rate 0.998634
Core_0_LLC_rfo_access 31042
Core_0_LLC_rfo_hit 17488
Core_0_LLC_rfo_miss 13554
Core_0_LLC_rfo_MPKI 0.13554
Core_0_LLC_rfo_miss_rate 0.436634
Core_0_LLC_prefetch_access 1485431
Core_0_LLC_prefetch_hit 12286
Core_0_LLC_prefetch_miss 1473145
Core_0_LLC_prefetch_MPKI 14.7314
Core_0_LLC_prefetch_miss_rate 0.991729
Core_0_LLC_writeback_access 238686
Core_0_LLC_writeback_hit 65601
Core_0_LLC_writeback_miss 173085
Core_0_LLC_writeback_MPKI 1.73085
Core_0_LLC_writeback_miss_rate 0.725158
Core_0_LLC_prefetch_requested 0
Core_0_LLC_prefetch_issued 0
Core_0_LLC_prefetch_useful 0
Core_0_LLC_prefetch_useless 0
Core_0_LLC_prefetch_late 0
Core_0_LLC_prefetch_fill 1444889
Core_0_LLC_prefetch_too_early 0
Core_0_LLC_prefetch_too_early_among_fill 0
Core_0_LLC_prefetch_too_early_among_useless 0
Core_0_LLC_prefetch_pollution_evict 18367
Core_0_LLC_prefetch_pollution_demand 18367
Core_0_LLC_prefetch_pollution_among_prefetch_fill 0.0127117
Core_0_LLC_prefetch_accuracy 0
Core_0_LLC_prefetch_coverage 0

[DRAM Statistics]
Channel_0_RQ_row_buffer_hit 148
Channel_0_RQ_row_buffer_miss 9823445
Channel_0_WQ_row_buffer_hit 58935
Channel_0_WQ_row_buffer_miss 157125
Channel_0_WQ_full 0
Channel_0_dbus_congested 18737213
DRAM_total_RQ_row_buffer_hit 148
DRAM_total_RQ_row_buffer_miss 9823445
DRAM_total_WQ_row_buffer_hit 58935
DRAM_total_WQ_row_buffer_miss 157125
DRAM_total_WQ_full 0
DRAM_total_dbus_congested 18737213
DRAM_avg_congested_cycle 6.6133

====== DRAM_RQ_TRAFFIC ========
DRAM_RQ_READ_TRAFFIC_BREAKDOWN:
data_demand_read.count = 7721967
data_demand_read.share = 78.61%

inst_demand_read.count = 0
inst_demand_read.share = 0.00%

cache_inst_prefetch.count = 0
cache_inst_prefetch.share = 0.00%

cache_data_prefetch.count = 1444889
cache_data_prefetch.share = 14.71%

stlb_data_demand.count = 654259
stlb_data_demand.share = 6.66%

stlb_inst_demand.count = 0
stlb_inst_demand.share = 0.00%

stlb_l1i_pref.count = 0
stlb_l1i_pref.share = 0.00%

stlb_l1d_pref.count = 2487
stlb_l1d_pref.share = 0.03%

DRAM_RQ_READ_TRAFFIC_SUMMARY:
cache_demand.count = 7721967
cache_demand.share = 78.61%

cache_prefetch.count = 1444889
cache_prefetch.share = 14.71%

stlb_demand.count = 654259
stlb_demand.share = 6.66%

stlb_prefetch.count = 2487
stlb_prefetch.share = 0.03%

DRAM_RQ_READ_TRAFFIC_DEBUG:
total_classified_read.count = 9823602
unclassified_read.count = 0
total_read_with_other.count = 9823602

classified_plus_unclassified_check.count = 9823602
dram_rq_read_total_observed.count = 9823602
dram_rq_read_total_observed.per_1K_instructions = 98.236

STLB_MISS_PTW_DRAM_TOUCH_BREAKDOWN:
stlb_miss_total.count = 7369723

stlb_miss_touch_dram.count = 598002
stlb_miss_touch_dram.share = 8.11%

stlb_miss_no_dram_touch.count = 6771721
stlb_miss_no_dram_touch.share = 91.89%

STLB_MISS_PTW_DRAM_TOUCH_DEBUG:
stlb_miss_touch_plus_no_touch.count = 7369723
stlb_miss_total_check.count = 7369723

======STLB miss causes ========
Core_0_STLB_miss_cause_breakdown
Core_0_STLB_cause_Demand_Data_miss 7341896
Core_0_STLB_cause_Demand_Data_miss_rate 0.954265
Core_0_STLB_cause_Demand_Instruction_miss 0
Core_0_STLB_cause_Demand_Instruction_miss_rate 0
Core_0_STLB_cause_L1D_Prefetch_miss 30110
Core_0_STLB_cause_L1D_Prefetch_miss_rate 0.00391356
Core_0_STLB_cause_L1D_Prefetch_Same_Page_miss 0
Core_0_STLB_cause_L1D_Prefetch_Same_Page_miss_rate 0
Core_0_STLB_cause_L1D_Prefetch_Cross_Page_miss 30110
Core_0_STLB_cause_L1D_Prefetch_Cross_Page_miss_rate 0.00391356
Core_0_STLB_cause_L1I_Prefetch_miss 0
Core_0_STLB_cause_L1I_Prefetch_miss_rate 0
Core_0_STLB_cause_Other_miss 0
Core_0_STLB_cause_Other_miss_rate 0
Core_0_STLB_Demand_miss 7341896
Core_0_STLB_Demand_miss_rate 0.954265
Core_0_STLB_L1D_Prefetch_miss 30110
Core_0_STLB_L1D_Prefetch_miss_rate 0.00391356
Core_0_STLB_Other_miss 0
Core_0_STLB_Other_miss_rate 0

========== vBerti-TLB Cross-page Flow Stats ==========

Core_0_vBerti_Requested 15057791
Core_0_vBerti_Cross_page_prefetch_in_Requested 594424
Core_0_vBerti_Same_page_prefetch_in_Requested 14463367
Core_0_vBerti_Cross_page_prefetch_of_Requested 0.0394762
Core_0_vBerti_Issued 9452240
Core_0_vBerti_PQ_Drop_Rate 0.372269
Core_0_vBerti_InPQ_Cross_page_prefetch_of_Requested 0.0248753
Core_0_vBerti_Cross_page_PQ_Drop_rate 0.369866
Core_0_vBerti_Cross_page_prefetch_of_Issued 0.0396273

========= DTLB_vBerti Prefetch Stats =========
Core_0_DTLB_demand_access 30687756
Core_0_DTLB_demand_hit 19370008
Core_0_DTLB_demand_miss 11317748
Core_0_DTLB_demand_mshr_merge 3654265
Core_0_DTLB_demand_fill 7663717
Core_0_DTLB_demand_miss_rate 0.368803
Core_0_DTLB_demand_mpki 113.177
Core_0_DTLB_vberti_prefetch_access 6769693
Core_0_DTLB_vberti_prefetch_hit 6676627
Core_0_DTLB_vberti_prefetch_miss 93066
Core_0_DTLB_vberti_prefetch_mshr_merge 62778
Core_0_DTLB_vberti_prefetch_fill 30062
Core_0_DTLB_vberti_prefetch_miss_rate 0.0137474
Core_0_DTLB_vberti_prefetch_mpki 0.93066

=== DTLB_vBerti Same/Cross-page Prefetch Stats ===
Core_0_DTLB_vberti_same_page_prefetch 6462473
Core_0_DTLB_vberti_same_page_prefetch_hit 6462252
Core_0_DTLB_vberti_same_page_prefetch_miss 221
Core_0_DTLB_vberti_same_page_prefetch_mshr_merge 64
Core_0_DTLB_vberti_same_page_prefetch_fill 156
Core_0_DTLB_vberti_same_page_prefetch_miss_rate 3.41974e-05
Core_0_DTLB_vberti_same_page_prefetch_mpki 0.00221
Core_0_DTLB_vberti_cross_page_prefetch 307220
Core_0_DTLB_vberti_cross_page_prefetch_hit 214375
Core_0_DTLB_vberti_cross_page_prefetch_miss 92845
Core_0_DTLB_vberti_cross_page_prefetch_mshr_merge 62714
Core_0_DTLB_vberti_cross_page_prefetch_fill 29906
Core_0_DTLB_vberti_cross_page_prefetch_miss_rate 0.30221
Core_0_DTLB_vberti_cross_page_prefetch_mpki 0.92845
Core_0_DTLB_same_page_prefetch_miss_rate 3.41974e-05
Core_0_DTLB_same_page_prefetch_mpki 0.00221
Core_0_DTLB_cross_page_prefetch_miss_rate 0.30221
Core_0_DTLB_cross_page_prefetch_mpki 0.92845
Core_0_DTLB_cross_page_prefetch_issued 307220
Core_0_DTLB_cross_page_prefetch_lookups 307220
Core_0_DTLB_cross_page_prefetch_useful 7761
Core_0_DTLB_cross_page_prefetch_useless 22370
Core_0_DTLB_cross_page_prefetch_late 225
Core_0_DTLB_cross_page_prefetch_too_early 222
Core_0_DTLB_cross_page_prefetch_too_early_among_fill 0.00742326
Core_0_DTLB_cross_page_prefetch_too_early_among_useless 0.00992401
Core_0_DTLB_cross_page_prefetch_pollution_evict 3879
Core_0_DTLB_cross_page_prefetch_pollution_demand 3854
Core_0_DTLB_cross_page_prefetch_pollution_among_prefetch_fill 0.129706
Core_0_DTLB_cross_page_prefetch_accuracy 0.025262
Core_0_DTLB_cross_page_prefetch_coverage 0.000685267

========= STLB_vBerti Prefetch Stats =========
Core_0_STLB_demand_access 7663483
Core_0_STLB_demand_hit 321587
Core_0_STLB_demand_miss 7341896
Core_0_STLB_demand_mshr_merge 0
Core_0_STLB_demand_fill 7341904
Core_0_STLB_demand_miss_rate 0.958036
Core_0_STLB_demand_mpki 73.419
Core_0_STLB_vberti_prefetch_access 30288
Core_0_STLB_vberti_prefetch_hit 178
Core_0_STLB_vberti_prefetch_miss 30110
Core_0_STLB_vberti_prefetch_mshr_merge 0
Core_0_STLB_vberti_prefetch_fill 0
Core_0_STLB_vberti_prefetch_miss_rate 0.994123
Core_0_STLB_vberti_prefetch_mpki 0.3011

=== STLB_vBerti Same/Cross-page Prefetch Stats ===
Core_0_STLB_vberti_same_page_prefetch 157
Core_0_STLB_vberti_same_page_prefetch_hit 157
Core_0_STLB_vberti_same_page_prefetch_miss 0
Core_0_STLB_vberti_same_page_prefetch_mshr_merge 0
Core_0_STLB_vberti_same_page_prefetch_fill 0
Core_0_STLB_vberti_same_page_prefetch_miss_rate 0
Core_0_STLB_vberti_same_page_prefetch_mpki 0
Core_0_STLB_vberti_cross_page_prefetch 30131
Core_0_STLB_vberti_cross_page_prefetch_hit 21
Core_0_STLB_vberti_cross_page_prefetch_miss 30110
Core_0_STLB_vberti_cross_page_prefetch_mshr_merge 0
Core_0_STLB_vberti_cross_page_prefetch_fill 0
Core_0_STLB_vberti_cross_page_prefetch_miss_rate 0.999303
Core_0_STLB_vberti_cross_page_prefetch_mpki 0.3011
Core_0_STLB_same_page_prefetch_miss_rate 0
Core_0_STLB_same_page_prefetch_mpki 0
Core_0_STLB_cross_page_prefetch_miss_rate 0.999303
Core_0_STLB_cross_page_prefetch_mpki 0.3011
Core_0_STLB_cross_page_prefetch_issued 30131
Core_0_STLB_cross_page_prefetch_lookups 30131
Core_0_STLB_cross_page_prefetch_useful 2283
Core_0_STLB_cross_page_prefetch_useless 21079
Core_0_STLB_cross_page_prefetch_late 2283
Core_0_STLB_cross_page_prefetch_too_early 0
Core_0_STLB_cross_page_prefetch_too_early_among_fill 0
Core_0_STLB_cross_page_prefetch_too_early_among_useless 0
Core_0_STLB_cross_page_prefetch_pollution_evict 0
Core_0_STLB_cross_page_prefetch_pollution_demand 0
Core_0_STLB_cross_page_prefetch_pollution_among_prefetch_fill 0
Core_0_STLB_cross_page_prefetch_accuracy 0.0757691
Core_0_STLB_cross_page_prefetch_coverage 0.000310858

========= STLB Cross-page Prefetch Buffer Stats =========
Core_0_STLB_raw_demand_miss 7341896
Core_0_CP_PB_insert 30110
Core_0_CP_PB_demand_hit 2283
Core_0_STLB_PB_demand_miss 7339613
Core_0_CP_PB_coverage 0.000310955
Core_0_STLB_raw_demand_mpki 73.419
Core_0_STLB_PB_demand_mpki 73.3961
Core_0_CP_PB_demand_hit_mpki 0.02283

Core_0_TLB_demand_miss_rate 0.239245
Core_0_TLB_demand_mpki 73.419
Core_0_TLB_same_page_prefetch_miss_rate 0
Core_0_TLB_same_page_prefetch_mpki 0
Core_0_TLB_cross_page_prefetch_miss_rate 0.0980079
Core_0_TLB_cross_page_prefetch_mpki 0.3011
Core_0_TLB_cross_page_prefetch_issued 307220
Core_0_TLB_cross_page_prefetch_lookups 307220
Core_0_TLB_cross_page_prefetch_useful 7760
Core_0_TLB_cross_page_prefetch_useless 22369
Core_0_TLB_cross_page_prefetch_late 225
Core_0_TLB_cross_page_prefetch_too_early 222
Core_0_TLB_cross_page_prefetch_too_early_among_fill 0.00742326
Core_0_TLB_cross_page_prefetch_too_early_among_useless 0.00992445
Core_0_TLB_cross_page_prefetch_accuracy 0.0252588
Core_0_TLB_cross_page_prefetch_coverage 0.00105583
BERTI TO_L1: 3443296 TO_L2: 14327676 TO_L2_BC_MSHR: 493589
BERTI AVG_LAT: 171.975 NUM_TRACK_LATENCY: 12840062 NUM_CANT_TRACK_LATENCY: 2995
BERTI CROSS_PAGE 670311 NO_CROSS_PAGE: 17100661
BERTI FOUND_BERTI: 69287557 NO_FOUND_BERTI: 18435951
BERTI AVERAGE_ISSUED: 2.62726
