[VMEM] WARNING: physical memory size is smaller than virtual memory size.

*** ChampSim Multicore Out-of-Order Simulator ***
Warmup Instructions: 50000000
Simulation Instructions: 100000000
Number of CPUs: 1
Page size: 4096
Core 0: /data2/zcq/champsim_traces_xsbench/xs.XL100hash-28B.champsimtrace.xz
VBerti Prefetcher
BERTI HASH ENTANGLING
BERTI IP MASK ffff
Off-chip DRAM Size: 16 GiB Channels: 1 Width: 64-bit Data Rate: 3205 MT/s
Warmup halting CPU 0 at instruction 50000002 cycle 12414972 for remainder of phase
Warmup finished CPU 0 instructions: 50000002 cycles: 12414972 cumulative IPC: 4.027 (Simulation time: 00 hr 02 min 39 sec)
Warmup complete CPU 0 instructions: 50000002 cycles: 12414972 cumulative IPC: 4.027 (Simulation time: 00 hr 02 min 39 sec)
Simulation finished CPU 0 instructions: 100000004 cycles: 194065539 cumulative IPC: 0.5153 (Simulation time: 00 hr 18 min 34 sec)
Simulation complete CPU 0 instructions: 100000004 cycles: 194065539 cumulative IPC: 0.5153 (Simulation time: 00 hr 18 min 34 sec)

ChampSim completed all CPUs

=== Simulation ===
CPU 0 runs /data2/zcq/champsim_traces_xsbench/xs.XL100hash-28B.champsimtrace.xz

Region of Interest Statistics

CPU 0 cumulative IPC: 0.5153 instructions: 100000004 cycles: 194065539
CPU 0 Branch Prediction Accuracy: 92.6% MPKI: 18.1 Average ROB Occupancy at Mispredict: 28.87
Branch type MPKI
BRANCH_DIRECT_JUMP: 0
BRANCH_INDIRECT: 0
BRANCH_CONDITIONAL: 18.1
BRANCH_DIRECT_CALL: 0
BRANCH_INDIRECT_CALL: 0
BRANCH_RETURN: 0.00051

cpu0->cpu0_STLB TOTAL        ACCESS:    1036315 HIT:     931087 MISS:     105228 MSHR_MERGE:          0
cpu0->cpu0_STLB LOAD         ACCESS:    1036315 HIT:     931087 MISS:     105228 MSHR_MERGE:          0
cpu0->cpu0_STLB RFO          ACCESS:          0 HIT:          0 MISS:          0 MSHR_MERGE:          0
cpu0->cpu0_STLB PREFETCH     ACCESS:          0 HIT:          0 MISS:          0 MSHR_MERGE:          0
cpu0->cpu0_STLB WRITE        ACCESS:          0 HIT:          0 MISS:          0 MSHR_MERGE:          0
cpu0->cpu0_STLB TRANSLATION  ACCESS:          0 HIT:          0 MISS:          0 MSHR_MERGE:          0
cpu0->cpu0_STLB PREFETCH REQUESTED:          0 ISSUED:          0 USEFUL:          0 USELESS:          0 LATE:          0 TOO_EARLY:          0
cpu0->cpu0_STLB AVERAGE MISS LATENCY: 23.88 cycles
cpu0->cpu0_L2C TOTAL        ACCESS:    8419866 HIT:    6548994 MISS:    1870872 MSHR_MERGE:     182424
cpu0->cpu0_L2C LOAD         ACCESS:    1909587 HIT:     796154 MISS:    1113433 MSHR_MERGE:      25694
cpu0->cpu0_L2C RFO          ACCESS:      70457 HIT:      58759 MISS:      11698 MSHR_MERGE:       1028
cpu0->cpu0_L2C PREFETCH     ACCESS:    5929536 HIT:    5185584 MISS:     743952 MSHR_MERGE:     155702
cpu0->cpu0_L2C WRITE        ACCESS:     451998 HIT:     451934 MISS:         64 MSHR_MERGE:          0
cpu0->cpu0_L2C TRANSLATION  ACCESS:      58288 HIT:      56563 MISS:       1725 MSHR_MERGE:          0
cpu0->cpu0_L2C PREFETCH REQUESTED:    1534642 ISSUED:    1491672 USEFUL:     183570 USELESS:       2486 LATE:      23567 TOO_EARLY:        614
cpu0->cpu0_L2C AVERAGE MISS LATENCY: 141.5 cycles
cpu0->cpu0_L1I TOTAL        ACCESS:    1364024 HIT:    1364024 MISS:          0 MSHR_MERGE:          0
cpu0->cpu0_L1I LOAD         ACCESS:    1364024 HIT:    1364024 MISS:          0 MSHR_MERGE:          0
cpu0->cpu0_L1I RFO          ACCESS:          0 HIT:          0 MISS:          0 MSHR_MERGE:          0
cpu0->cpu0_L1I PREFETCH     ACCESS:          0 HIT:          0 MISS:          0 MSHR_MERGE:          0
cpu0->cpu0_L1I WRITE        ACCESS:          0 HIT:          0 MISS:          0 MSHR_MERGE:          0
cpu0->cpu0_L1I TRANSLATION  ACCESS:          0 HIT:          0 MISS:          0 MSHR_MERGE:          0
cpu0->cpu0_L1I PREFETCH REQUESTED:          0 ISSUED:          0 USEFUL:          0 USELESS:          0 LATE:          0 TOO_EARLY:          0
cpu0->cpu0_L1I AVERAGE MISS LATENCY: - cycles
cpu0->cpu0_L1D TOTAL        ACCESS:   73561240 HIT:   66591292 MISS:    6969948 MSHR_MERGE:     478222
cpu0->cpu0_L1D LOAD         ACCESS:   23337500 HIT:   21108457 MISS:    2229043 MSHR_MERGE:     319456
cpu0->cpu0_L1D RFO          ACCESS:          0 HIT:          0 MISS:          0 MSHR_MERGE:          0
cpu0->cpu0_L1D PREFETCH     ACCESS:   37731158 HIT:   33260717 MISS:    4470441 MSHR_MERGE:      17047
cpu0->cpu0_L1D WRITE        ACCESS:   12287564 HIT:   12075423 MISS:     212141 MSHR_MERGE:     141684
cpu0->cpu0_L1D TRANSLATION  ACCESS:     205018 HIT:     146695 MISS:      58323 MSHR_MERGE:         35
cpu0->cpu0_L1D PREFETCH REQUESTED:  147974586 ISSUED:   37731158 USEFUL:     658306 USELESS:      12442 LATE:      10360 TOO_EARLY:       5179
cpu0->cpu0_L1D AVERAGE MISS LATENCY: 87.12 cycles
cpu0->cpu0_ITLB TOTAL        ACCESS:    1291473 HIT:    1291473 MISS:          0 MSHR_MERGE:          0
cpu0->cpu0_ITLB LOAD         ACCESS:    1291473 HIT:    1291473 MISS:          0 MSHR_MERGE:          0
cpu0->cpu0_ITLB RFO          ACCESS:          0 HIT:          0 MISS:          0 MSHR_MERGE:          0
cpu0->cpu0_ITLB PREFETCH     ACCESS:          0 HIT:          0 MISS:          0 MSHR_MERGE:          0
cpu0->cpu0_ITLB WRITE        ACCESS:          0 HIT:          0 MISS:          0 MSHR_MERGE:          0
cpu0->cpu0_ITLB TRANSLATION  ACCESS:          0 HIT:          0 MISS:          0 MSHR_MERGE:          0
cpu0->cpu0_ITLB PREFETCH REQUESTED:          0 ISSUED:          0 USEFUL:          0 USELESS:          0 LATE:          0 TOO_EARLY:          0
cpu0->cpu0_ITLB AVERAGE MISS LATENCY: - cycles
cpu0->cpu0_DTLB TOTAL        ACCESS:   59018068 HIT:   57931431 MISS:    1086637 MSHR_MERGE:      50322
cpu0->cpu0_DTLB LOAD         ACCESS:   59018068 HIT:   57931431 MISS:    1086637 MSHR_MERGE:      50322
cpu0->cpu0_DTLB RFO          ACCESS:          0 HIT:          0 MISS:          0 MSHR_MERGE:          0
cpu0->cpu0_DTLB PREFETCH     ACCESS:          0 HIT:          0 MISS:          0 MSHR_MERGE:          0
cpu0->cpu0_DTLB WRITE        ACCESS:          0 HIT:          0 MISS:          0 MSHR_MERGE:          0
cpu0->cpu0_DTLB TRANSLATION  ACCESS:          0 HIT:          0 MISS:          0 MSHR_MERGE:          0
cpu0->cpu0_DTLB PREFETCH REQUESTED:          0 ISSUED:          0 USEFUL:          0 USELESS:          0 LATE:          0 TOO_EARLY:          0
cpu0->cpu0_DTLB AVERAGE MISS LATENCY: 7.467 cycles
cpu0->LLC TOTAL        ACCESS:    1975534 HIT:     854700 MISS:    1120834 MSHR_MERGE:       7215
cpu0->LLC LOAD         ACCESS:    1087739 HIT:     415182 MISS:     672557 MSHR_MERGE:       1479
cpu0->LLC RFO          ACCESS:      10670 HIT:       6590 MISS:       4080 MSHR_MERGE:         25
cpu0->LLC PREFETCH     ACCESS:     588230 HIT:     214583 MISS:     373647 MSHR_MERGE:       5711
cpu0->LLC WRITE        ACCESS:     287170 HIT:     218199 MISS:      68971 MSHR_MERGE:          0
cpu0->LLC TRANSLATION  ACCESS:       1725 HIT:        146 MISS:       1579 MSHR_MERGE:          0
cpu0->LLC PREFETCH REQUESTED:          0 ISSUED:          0 USEFUL:          0 USELESS:          0 LATE:          0 TOO_EARLY:          0
cpu0->LLC AVERAGE MISS LATENCY: 185 cycles

DRAM Statistics

Channel 0 RQ ROW_BUFFER_HIT:      24749
  ROW_BUFFER_MISS:    1019147
  AVG DBUS CONGESTED CYCLE: 13.9
Channel 0 WQ ROW_BUFFER_HIT:      35873
  ROW_BUFFER_MISS:     110910
  FULL:        629
Channel 0 REFRESHES ISSUED:      16172

[ROI Statistics]
[System Configuration]
num_cpus 1
cpu_freq 4000
fetch_width 6
decode_width 6
dispatch_width 6
execute_width 6
lq_width 2
sq_width 2
retire_width 6
scheduler_size 128
branch_mispredict_penalty 15
rob_size 352
lq_size 128
sq_size 72
ifetch_buffer_size 64
decode_buffer_size 32
dispatch_buffer_size 32
register_file_size 288
decode_latency 1
dispatch_latency 1
schedule_latency 1
execute_latency 1
page_size 4096
block_size 64
core_0_itlb_set 16
core_0_itlb_way 4
core_0_itlb_rq_size 16
core_0_itlb_wq_size 16
core_0_itlb_pq_size 0
core_0_itlb_mshr_size 8
core_0_itlb_hit_latency 1
core_0_itlb_fill_latency 1
core_0_itlb_max_tag_check 2
core_0_itlb_max_fill 2
core_0_dtlb_set 16
core_0_dtlb_way 4
core_0_dtlb_rq_size 16
core_0_dtlb_wq_size 16
core_0_dtlb_pq_size 0
core_0_dtlb_mshr_size 8
core_0_dtlb_hit_latency 1
core_0_dtlb_fill_latency 1
core_0_dtlb_max_tag_check 2
core_0_dtlb_max_fill 2
core_0_stlb_set 128
core_0_stlb_way 12
core_0_stlb_rq_size 32
core_0_stlb_wq_size 32
core_0_stlb_pq_size 0
core_0_stlb_mshr_size 16
core_0_stlb_hit_latency 4
core_0_stlb_fill_latency 4
core_0_stlb_max_tag_check 1
core_0_stlb_max_fill 1
core_0_l1i_set 64
core_0_l1i_way 8
core_0_l1i_rq_size 64
core_0_l1i_wq_size 64
core_0_l1i_pq_size 32
core_0_l1i_mshr_size 8
core_0_l1i_hit_latency 2
core_0_l1i_fill_latency 2
core_0_l1i_max_tag_check 2
core_0_l1i_max_fill 2
core_0_l1d_set 64
core_0_l1d_way 12
core_0_l1d_rq_size 64
core_0_l1d_wq_size 64
core_0_l1d_pq_size 8
core_0_l1d_mshr_size 16
core_0_l1d_hit_latency 2
core_0_l1d_fill_latency 3
core_0_l1d_max_tag_check 2
core_0_l1d_max_fill 2
core_0_l2c_set 1024
core_0_l2c_way 8
core_0_l2c_rq_size 32
core_0_l2c_wq_size 32
core_0_l2c_pq_size 16
core_0_l2c_mshr_size 32
core_0_l2c_hit_latency 5
core_0_l2c_fill_latency 5
core_0_l2c_max_tag_check 1
core_0_l2c_max_fill 1
llc_set 2048
llc_way 16
llc_rq_size 32
llc_wq_size 32
llc_pq_size 32
llc_mshr_size 64
llc_hit_latency 10
llc_fill_latency 10
llc_max_tag_check 1
llc_max_fill 1
dram_channels 1
dram_ranks 1
dram_bankgroups 8
dram_banks 4
dram_rows 65536
dram_columns 1024
dram_channel_width 8
dram_rq_size 64
dram_wq_size 64
dram_size 17179869184
core_0_itlb_prefetcher no
core_0_dtlb_prefetcher no
core_0_stlb_prefetcher no
core_0_l1i_prefetcher next_line
core_0_l1d_prefetcher vberti
core_0_l2c_prefetcher ip_stride
llc_prefetcher no
llc_replacement drrip

Core_0_instructions 100000004
Core_0_cycles 194065539
Core_0_IPC 0.51529
Core_0_branch_prediction_accuracy 92.6022
Core_0_branch_MPKI 18.0956
Core_0_average_ROB_occupancy_at_mispredict 28.8675

Core_0_ITLB_total_access 1291473
Core_0_ITLB_total_hit 1291473
Core_0_ITLB_total_miss 0
Core_0_ITLB_total_MPKI 0
Core_0_ITLB_total_miss_rate 0
Core_0_ITLB_demand_access 1291473
Core_0_ITLB_demand_hit 1291473
Core_0_ITLB_demand_miss 0
Core_0_ITLB_demand_MPKI 0
Core_0_ITLB_demand_miss_rate 0
Core_0_ITLB_load_access 1291473
Core_0_ITLB_load_hit 1291473
Core_0_ITLB_load_miss 0
Core_0_ITLB_load_MPKI 0
Core_0_ITLB_load_miss_rate 0
Core_0_ITLB_rfo_access 0
Core_0_ITLB_rfo_hit 0
Core_0_ITLB_rfo_miss 0
Core_0_ITLB_rfo_MPKI 0
Core_0_ITLB_rfo_miss_rate 0
Core_0_ITLB_prefetch_access 0
Core_0_ITLB_prefetch_hit 0
Core_0_ITLB_prefetch_miss 0
Core_0_ITLB_prefetch_MPKI 0
Core_0_ITLB_prefetch_miss_rate 0
Core_0_ITLB_writeback_access 0
Core_0_ITLB_writeback_hit 0
Core_0_ITLB_writeback_miss 0
Core_0_ITLB_writeback_MPKI 0
Core_0_ITLB_writeback_miss_rate 0
Core_0_ITLB_prefetch_requested 0
Core_0_ITLB_prefetch_issued 0
Core_0_ITLB_prefetch_useful 0
Core_0_ITLB_prefetch_useless 0
Core_0_ITLB_prefetch_late 0
Core_0_ITLB_prefetch_fill 0
Core_0_ITLB_prefetch_too_early 0
Core_0_ITLB_prefetch_too_early_among_fill 0
Core_0_ITLB_prefetch_too_early_among_useless 0
Core_0_ITLB_prefetch_pollution_evict 0
Core_0_ITLB_prefetch_pollution_demand 0
Core_0_ITLB_prefetch_pollution_among_prefetch_fill 0
Core_0_ITLB_prefetch_accuracy 0
Core_0_ITLB_prefetch_coverage 0

Core_0_DTLB_total_access 59018068
Core_0_DTLB_total_hit 57931431
Core_0_DTLB_total_miss 1086637
Core_0_DTLB_total_MPKI 10.8664
Core_0_DTLB_total_miss_rate 0.0184119
Core_0_DTLB_demand_access 59018068
Core_0_DTLB_demand_hit 57931431
Core_0_DTLB_demand_miss 1086637
Core_0_DTLB_demand_MPKI 10.8664
Core_0_DTLB_demand_miss_rate 0.0184119
Core_0_DTLB_load_access 59018068
Core_0_DTLB_load_hit 57931431
Core_0_DTLB_load_miss 1086637
Core_0_DTLB_load_MPKI 10.8664
Core_0_DTLB_load_miss_rate 0.0184119
Core_0_DTLB_rfo_access 0
Core_0_DTLB_rfo_hit 0
Core_0_DTLB_rfo_miss 0
Core_0_DTLB_rfo_MPKI 0
Core_0_DTLB_rfo_miss_rate 0
Core_0_DTLB_prefetch_access 0
Core_0_DTLB_prefetch_hit 0
Core_0_DTLB_prefetch_miss 0
Core_0_DTLB_prefetch_MPKI 0
Core_0_DTLB_prefetch_miss_rate 0
Core_0_DTLB_writeback_access 0
Core_0_DTLB_writeback_hit 0
Core_0_DTLB_writeback_miss 0
Core_0_DTLB_writeback_MPKI 0
Core_0_DTLB_writeback_miss_rate 0
Core_0_DTLB_prefetch_requested 0
Core_0_DTLB_prefetch_issued 0
Core_0_DTLB_prefetch_useful 0
Core_0_DTLB_prefetch_useless 0
Core_0_DTLB_prefetch_late 0
Core_0_DTLB_prefetch_fill 0
Core_0_DTLB_prefetch_too_early 0
Core_0_DTLB_prefetch_too_early_among_fill 0
Core_0_DTLB_prefetch_too_early_among_useless 0
Core_0_DTLB_prefetch_pollution_evict 0
Core_0_DTLB_prefetch_pollution_demand 0
Core_0_DTLB_prefetch_pollution_among_prefetch_fill 0
Core_0_DTLB_prefetch_accuracy 0
Core_0_DTLB_prefetch_coverage 0

Core_0_STLB_total_access 1036315
Core_0_STLB_total_hit 931087
Core_0_STLB_total_miss 105228
Core_0_STLB_total_MPKI 1.05228
Core_0_STLB_total_miss_rate 0.101541
Core_0_STLB_demand_access 1036315
Core_0_STLB_demand_hit 931087
Core_0_STLB_demand_miss 105228
Core_0_STLB_demand_MPKI 1.05228
Core_0_STLB_demand_miss_rate 0.101541
Core_0_STLB_load_access 1036315
Core_0_STLB_load_hit 931087
Core_0_STLB_load_miss 105228
Core_0_STLB_load_MPKI 1.05228
Core_0_STLB_load_miss_rate 0.101541
Core_0_STLB_rfo_access 0
Core_0_STLB_rfo_hit 0
Core_0_STLB_rfo_miss 0
Core_0_STLB_rfo_MPKI 0
Core_0_STLB_rfo_miss_rate 0
Core_0_STLB_prefetch_access 0
Core_0_STLB_prefetch_hit 0
Core_0_STLB_prefetch_miss 0
Core_0_STLB_prefetch_MPKI 0
Core_0_STLB_prefetch_miss_rate 0
Core_0_STLB_writeback_access 0
Core_0_STLB_writeback_hit 0
Core_0_STLB_writeback_miss 0
Core_0_STLB_writeback_MPKI 0
Core_0_STLB_writeback_miss_rate 0
Core_0_STLB_prefetch_requested 0
Core_0_STLB_prefetch_issued 0
Core_0_STLB_prefetch_useful 0
Core_0_STLB_prefetch_useless 0
Core_0_STLB_prefetch_late 0
Core_0_STLB_prefetch_fill 0
Core_0_STLB_prefetch_too_early 0
Core_0_STLB_prefetch_too_early_among_fill 0
Core_0_STLB_prefetch_too_early_among_useless 0
Core_0_STLB_prefetch_pollution_evict 0
Core_0_STLB_prefetch_pollution_demand 0
Core_0_STLB_prefetch_pollution_among_prefetch_fill 0
Core_0_STLB_prefetch_accuracy 0
Core_0_STLB_prefetch_coverage 0

Core_0_L1I_total_access 1364024
Core_0_L1I_total_hit 1364024
Core_0_L1I_total_miss 0
Core_0_L1I_total_MPKI 0
Core_0_L1I_total_miss_rate 0
Core_0_L1I_demand_access 1364024
Core_0_L1I_demand_hit 1364024
Core_0_L1I_demand_miss 0
Core_0_L1I_demand_MPKI 0
Core_0_L1I_demand_miss_rate 0
Core_0_L1I_load_access 1364024
Core_0_L1I_load_hit 1364024
Core_0_L1I_load_miss 0
Core_0_L1I_load_MPKI 0
Core_0_L1I_load_miss_rate 0
Core_0_L1I_rfo_access 0
Core_0_L1I_rfo_hit 0
Core_0_L1I_rfo_miss 0
Core_0_L1I_rfo_MPKI 0
Core_0_L1I_rfo_miss_rate 0
Core_0_L1I_prefetch_access 0
Core_0_L1I_prefetch_hit 0
Core_0_L1I_prefetch_miss 0
Core_0_L1I_prefetch_MPKI 0
Core_0_L1I_prefetch_miss_rate 0
Core_0_L1I_writeback_access 0
Core_0_L1I_writeback_hit 0
Core_0_L1I_writeback_miss 0
Core_0_L1I_writeback_MPKI 0
Core_0_L1I_writeback_miss_rate 0
Core_0_L1I_prefetch_requested 0
Core_0_L1I_prefetch_issued 0
Core_0_L1I_prefetch_useful 0
Core_0_L1I_prefetch_useless 0
Core_0_L1I_prefetch_late 0
Core_0_L1I_prefetch_fill 0
Core_0_L1I_prefetch_too_early 0
Core_0_L1I_prefetch_too_early_among_fill 0
Core_0_L1I_prefetch_too_early_among_useless 0
Core_0_L1I_prefetch_pollution_evict 0
Core_0_L1I_prefetch_pollution_demand 0
Core_0_L1I_prefetch_pollution_among_prefetch_fill 0
Core_0_L1I_prefetch_accuracy 0
Core_0_L1I_prefetch_coverage 0

Core_0_L1D_total_access 73356222
Core_0_L1D_total_hit 66444597
Core_0_L1D_total_miss 6911625
Core_0_L1D_total_MPKI 69.1162
Core_0_L1D_total_miss_rate 0.09422
Core_0_L1D_demand_access 23337500
Core_0_L1D_demand_hit 21108457
Core_0_L1D_demand_miss 2229043
Core_0_L1D_demand_MPKI 22.2904
Core_0_L1D_demand_miss_rate 0.0955134
Core_0_L1D_load_access 23337500
Core_0_L1D_load_hit 21108457
Core_0_L1D_load_miss 2229043
Core_0_L1D_load_MPKI 22.2904
Core_0_L1D_load_miss_rate 0.0955134
Core_0_L1D_rfo_access 0
Core_0_L1D_rfo_hit 0
Core_0_L1D_rfo_miss 0
Core_0_L1D_rfo_MPKI 0
Core_0_L1D_rfo_miss_rate 0
Core_0_L1D_prefetch_access 37731158
Core_0_L1D_prefetch_hit 33260717
Core_0_L1D_prefetch_miss 4470441
Core_0_L1D_prefetch_MPKI 44.7044
Core_0_L1D_prefetch_miss_rate 0.118481
Core_0_L1D_writeback_access 12287564
Core_0_L1D_writeback_hit 12075423
Core_0_L1D_writeback_miss 212141
Core_0_L1D_writeback_MPKI 2.12141
Core_0_L1D_writeback_miss_rate 0.0172647
Core_0_L1D_prefetch_requested 147974586
Core_0_L1D_prefetch_issued 37731158
Core_0_L1D_prefetch_useful 658306
Core_0_L1D_prefetch_useless 12442
Core_0_L1D_prefetch_late 10360
Core_0_L1D_prefetch_fill 660403
Core_0_L1D_prefetch_too_early 5179
Core_0_L1D_prefetch_too_early_among_fill 0.00784218
Core_0_L1D_prefetch_too_early_among_useless 0.416251
Core_0_L1D_prefetch_pollution_evict 120808
Core_0_L1D_prefetch_pollution_demand 120137
Core_0_L1D_prefetch_pollution_among_prefetch_fill 0.182931
Core_0_L1D_prefetch_accuracy 0.0174473
Core_0_L1D_prefetch_coverage 0.227997

Core_0_L2C_total_access 8361578
Core_0_L2C_total_hit 6492431
Core_0_L2C_total_miss 1869147
Core_0_L2C_total_MPKI 18.6915
Core_0_L2C_total_miss_rate 0.22354
Core_0_L2C_demand_access 1980044
Core_0_L2C_demand_hit 854913
Core_0_L2C_demand_miss 1125131
Core_0_L2C_demand_MPKI 11.2513
Core_0_L2C_demand_miss_rate 0.568235
Core_0_L2C_load_access 1909587
Core_0_L2C_load_hit 796154
Core_0_L2C_load_miss 1113433
Core_0_L2C_load_MPKI 11.1343
Core_0_L2C_load_miss_rate 0.583075
Core_0_L2C_rfo_access 70457
Core_0_L2C_rfo_hit 58759
Core_0_L2C_rfo_miss 11698
Core_0_L2C_rfo_MPKI 0.11698
Core_0_L2C_rfo_miss_rate 0.16603
Core_0_L2C_prefetch_access 5929536
Core_0_L2C_prefetch_hit 5185584
Core_0_L2C_prefetch_miss 743952
Core_0_L2C_prefetch_MPKI 7.43952
Core_0_L2C_prefetch_miss_rate 0.125465
Core_0_L2C_writeback_access 451998
Core_0_L2C_writeback_hit 451934
Core_0_L2C_writeback_miss 64
Core_0_L2C_writeback_MPKI 0.00064
Core_0_L2C_writeback_miss_rate 0.000141594
Core_0_L2C_prefetch_requested 1534642
Core_0_L2C_prefetch_issued 1491672
Core_0_L2C_prefetch_useful 183570
Core_0_L2C_prefetch_useless 2486
Core_0_L2C_prefetch_late 23567
Core_0_L2C_prefetch_fill 547162
Core_0_L2C_prefetch_too_early 614
Core_0_L2C_prefetch_too_early_among_fill 0.00112215
Core_0_L2C_prefetch_too_early_among_useless 0.246983
Core_0_L2C_prefetch_pollution_evict 142307
Core_0_L2C_prefetch_pollution_demand 142281
Core_0_L2C_prefetch_pollution_among_prefetch_fill 0.260082
Core_0_L2C_prefetch_accuracy 0.123063
Core_0_L2C_prefetch_coverage 0.140269

Core_0_LLC_total_access 1973809
Core_0_LLC_total_hit 854554
Core_0_LLC_total_miss 1119255
Core_0_LLC_total_MPKI 11.1925
Core_0_LLC_total_miss_rate 0.567053
Core_0_LLC_demand_access 1098409
Core_0_LLC_demand_hit 421772
Core_0_LLC_demand_miss 676637
Core_0_LLC_demand_MPKI 6.76637
Core_0_LLC_demand_miss_rate 0.616016
Core_0_LLC_load_access 1087739
Core_0_LLC_load_hit 415182
Core_0_LLC_load_miss 672557
Core_0_LLC_load_MPKI 6.72557
Core_0_LLC_load_miss_rate 0.618307
Core_0_LLC_rfo_access 10670
Core_0_LLC_rfo_hit 6590
Core_0_LLC_rfo_miss 4080
Core_0_LLC_rfo_MPKI 0.0408
Core_0_LLC_rfo_miss_rate 0.382381
Core_0_LLC_prefetch_access 588230
Core_0_LLC_prefetch_hit 214583
Core_0_LLC_prefetch_miss 373647
Core_0_LLC_prefetch_MPKI 3.73647
Core_0_LLC_prefetch_miss_rate 0.635206
Core_0_LLC_writeback_access 287170
Core_0_LLC_writeback_hit 218199
Core_0_LLC_writeback_miss 68971
Core_0_LLC_writeback_MPKI 0.68971
Core_0_LLC_writeback_miss_rate 0.240175
Core_0_LLC_prefetch_requested 0
Core_0_LLC_prefetch_issued 0
Core_0_LLC_prefetch_useful 0
Core_0_LLC_prefetch_useless 0
Core_0_LLC_prefetch_late 0
Core_0_LLC_prefetch_fill 366432
Core_0_LLC_prefetch_too_early 0
Core_0_LLC_prefetch_too_early_among_fill 0
Core_0_LLC_prefetch_too_early_among_useless 0
Core_0_LLC_prefetch_pollution_evict 148928
Core_0_LLC_prefetch_pollution_demand 148928
Core_0_LLC_prefetch_pollution_among_prefetch_fill 0.406427
Core_0_LLC_prefetch_accuracy 0
Core_0_LLC_prefetch_coverage 0

[DRAM Statistics]
Channel_0_RQ_row_buffer_hit 24749
Channel_0_RQ_row_buffer_miss 1019147
Channel_0_WQ_row_buffer_hit 35873
Channel_0_WQ_row_buffer_miss 110910
Channel_0_WQ_full 629
Channel_0_dbus_congested 2522224
DRAM_total_RQ_row_buffer_hit 24749
DRAM_total_RQ_row_buffer_miss 1019147
DRAM_total_WQ_row_buffer_hit 35873
DRAM_total_WQ_row_buffer_miss 110910
DRAM_total_WQ_full 629
DRAM_total_dbus_congested 2522224
DRAM_avg_congested_cycle 13.9031

====== DRAM_RQ_TRAFFIC ========
DRAM_RQ_READ_TRAFFIC_BREAKDOWN:
data_demand_read.count = 675133
data_demand_read.share = 64.63%

inst_demand_read.count = 0
inst_demand_read.share = 0.00%

cache_inst_prefetch.count = 0
cache_inst_prefetch.share = 0.00%

cache_data_prefetch.count = 367936
cache_data_prefetch.share = 35.22%

stlb_data_demand.count = 849
stlb_data_demand.share = 0.08%

stlb_inst_demand.count = 0
stlb_inst_demand.share = 0.00%

stlb_l1i_pref.count = 0
stlb_l1i_pref.share = 0.00%

stlb_l1d_pref.count = 730
stlb_l1d_pref.share = 0.07%

DRAM_RQ_READ_TRAFFIC_SUMMARY:
cache_demand.count = 675133
cache_demand.share = 64.63%

cache_prefetch.count = 367936
cache_prefetch.share = 35.22%

stlb_demand.count = 849
stlb_demand.share = 0.08%

stlb_prefetch.count = 730
stlb_prefetch.share = 0.07%

DRAM_RQ_READ_TRAFFIC_DEBUG:
total_classified_read.count = 1044648
unclassified_read.count = 0
total_read_with_other.count = 1044648

classified_plus_unclassified_check.count = 1044648
dram_rq_read_total_observed.count = 1044648
dram_rq_read_total_observed.per_1K_instructions = 10.4465

STLB_MISS_PTW_DRAM_TOUCH_BREAKDOWN:
stlb_miss_total.count = 102541

stlb_miss_touch_dram.count = 1575
stlb_miss_touch_dram.share = 1.54%

stlb_miss_no_dram_touch.count = 100966
stlb_miss_no_dram_touch.share = 98.46%

STLB_MISS_PTW_DRAM_TOUCH_DEBUG:
stlb_miss_touch_plus_no_touch.count = 102541
stlb_miss_total_check.count = 102541

======STLB miss causes ========
Core_0_STLB_miss_cause_breakdown
Core_0_STLB_cause_Demand_Data_miss 99486
Core_0_STLB_cause_Demand_Data_miss_rate 0.0959998
Core_0_STLB_cause_Demand_Instruction_miss 0
Core_0_STLB_cause_Demand_Instruction_miss_rate 0
Core_0_STLB_cause_L1D_Prefetch_miss 5742
Core_0_STLB_cause_L1D_Prefetch_miss_rate 0.00554079
Core_0_STLB_cause_L1D_Prefetch_Same_Page_miss 9
Core_0_STLB_cause_L1D_Prefetch_Same_Page_miss_rate 8.68462e-06
Core_0_STLB_cause_L1D_Prefetch_Cross_Page_miss 5733
Core_0_STLB_cause_L1D_Prefetch_Cross_Page_miss_rate 0.0055321
Core_0_STLB_cause_L1I_Prefetch_miss 0
Core_0_STLB_cause_L1I_Prefetch_miss_rate 0
Core_0_STLB_cause_Other_miss 0
Core_0_STLB_cause_Other_miss_rate 0
Core_0_STLB_Demand_miss 99486
Core_0_STLB_Demand_miss_rate 0.0959998
Core_0_STLB_L1D_Prefetch_miss 5742
Core_0_STLB_L1D_Prefetch_miss_rate 0.00554079
Core_0_STLB_Other_miss 0
Core_0_STLB_Other_miss_rate 0

========== vBerti-TLB Cross-page Flow Stats ==========

Core_0_vBerti_Requested 147974586
Core_0_vBerti_Cross_page_prefetch_in_Requested 16812899
Core_0_vBerti_Same_page_prefetch_in_Requested 131161687
Core_0_vBerti_Cross_page_prefetch_of_Requested 0.11362
Core_0_vBerti_Issued 37731158
Core_0_vBerti_PQ_Drop_Rate 0.745016
Core_0_vBerti_InPQ_Cross_page_prefetch_of_Requested 0.0174957
Core_0_vBerti_Cross_page_PQ_Drop_rate 0.846016
Core_0_vBerti_Cross_page_prefetch_of_Issued 0.068615

========= DTLB_vBerti Prefetch Stats =========
Core_0_DTLB_demand_access 33741576
Core_0_DTLB_demand_hit 32672241
Core_0_DTLB_demand_miss 1069335
Core_0_DTLB_demand_mshr_merge 44004
Core_0_DTLB_demand_fill 1025438
Core_0_DTLB_demand_miss_rate 0.0316919
Core_0_DTLB_demand_mpki 10.6933
Core_0_DTLB_vberti_prefetch_access 25276492
Core_0_DTLB_vberti_prefetch_hit 25259190
Core_0_DTLB_vberti_prefetch_miss 17302
Core_0_DTLB_vberti_prefetch_mshr_merge 6318
Core_0_DTLB_vberti_prefetch_fill 10877
Core_0_DTLB_vberti_prefetch_miss_rate 0.00068451
Core_0_DTLB_vberti_prefetch_mpki 0.17302

=== DTLB_vBerti Same/Cross-page Prefetch Stats ===
Core_0_DTLB_vberti_same_page_prefetch 23247249
Core_0_DTLB_vberti_same_page_prefetch_hit 23247196
Core_0_DTLB_vberti_same_page_prefetch_miss 53
Core_0_DTLB_vberti_same_page_prefetch_mshr_merge 10
Core_0_DTLB_vberti_same_page_prefetch_fill 37
Core_0_DTLB_vberti_same_page_prefetch_miss_rate 2.27984e-06
Core_0_DTLB_vberti_same_page_prefetch_mpki 0.00053
Core_0_DTLB_vberti_cross_page_prefetch 2029243
Core_0_DTLB_vberti_cross_page_prefetch_hit 2011994
Core_0_DTLB_vberti_cross_page_prefetch_miss 17249
Core_0_DTLB_vberti_cross_page_prefetch_mshr_merge 6308
Core_0_DTLB_vberti_cross_page_prefetch_fill 10840
Core_0_DTLB_vberti_cross_page_prefetch_miss_rate 0.00850021
Core_0_DTLB_vberti_cross_page_prefetch_mpki 0.17249
Core_0_DTLB_same_page_prefetch_miss_rate 2.27984e-06
Core_0_DTLB_same_page_prefetch_mpki 0.00053
Core_0_DTLB_cross_page_prefetch_miss_rate 0.00850021
Core_0_DTLB_cross_page_prefetch_mpki 0.17249
Core_0_DTLB_cross_page_prefetch_issued 2029243
Core_0_DTLB_cross_page_prefetch_lookups 2029243
Core_0_DTLB_cross_page_prefetch_useful 10398
Core_0_DTLB_cross_page_prefetch_useless 543
Core_0_DTLB_cross_page_prefetch_late 101
Core_0_DTLB_cross_page_prefetch_too_early 18
Core_0_DTLB_cross_page_prefetch_too_early_among_fill 0.00166052
Core_0_DTLB_cross_page_prefetch_too_early_among_useless 0.0331492
Core_0_DTLB_cross_page_prefetch_pollution_evict 7218
Core_0_DTLB_cross_page_prefetch_pollution_demand 6151
Core_0_DTLB_cross_page_prefetch_pollution_among_prefetch_fill 0.665867
Core_0_DTLB_cross_page_prefetch_accuracy 0.00512408
Core_0_DTLB_cross_page_prefetch_coverage 0.00963016

========= STLB_vBerti Prefetch Stats =========
Core_0_STLB_demand_access 1025331
Core_0_STLB_demand_hit 925845
Core_0_STLB_demand_miss 99486
Core_0_STLB_demand_mshr_merge 0
Core_0_STLB_demand_fill 99486
Core_0_STLB_demand_miss_rate 0.0970282
Core_0_STLB_demand_mpki 0.99486
Core_0_STLB_vberti_prefetch_access 10984
Core_0_STLB_vberti_prefetch_hit 5242
Core_0_STLB_vberti_prefetch_miss 5742
Core_0_STLB_vberti_prefetch_mshr_merge 0
Core_0_STLB_vberti_prefetch_fill 9
Core_0_STLB_vberti_prefetch_miss_rate 0.52276
Core_0_STLB_vberti_prefetch_mpki 0.05742

=== STLB_vBerti Same/Cross-page Prefetch Stats ===
Core_0_STLB_vberti_same_page_prefetch 43
Core_0_STLB_vberti_same_page_prefetch_hit 34
Core_0_STLB_vberti_same_page_prefetch_miss 9
Core_0_STLB_vberti_same_page_prefetch_mshr_merge 0
Core_0_STLB_vberti_same_page_prefetch_fill 9
Core_0_STLB_vberti_same_page_prefetch_miss_rate 0.209302
Core_0_STLB_vberti_same_page_prefetch_mpki 9e-05
Core_0_STLB_vberti_cross_page_prefetch 10941
Core_0_STLB_vberti_cross_page_prefetch_hit 5208
Core_0_STLB_vberti_cross_page_prefetch_miss 5733
Core_0_STLB_vberti_cross_page_prefetch_mshr_merge 0
Core_0_STLB_vberti_cross_page_prefetch_fill 0
Core_0_STLB_vberti_cross_page_prefetch_miss_rate 0.523992
Core_0_STLB_vberti_cross_page_prefetch_mpki 0.05733
Core_0_STLB_same_page_prefetch_miss_rate 0.209302
Core_0_STLB_same_page_prefetch_mpki 9e-05
Core_0_STLB_cross_page_prefetch_miss_rate 0.523992
Core_0_STLB_cross_page_prefetch_mpki 0.05733
Core_0_STLB_cross_page_prefetch_issued 10941
Core_0_STLB_cross_page_prefetch_lookups 10941
Core_0_STLB_cross_page_prefetch_useful 2687
Core_0_STLB_cross_page_prefetch_useless 2044
Core_0_STLB_cross_page_prefetch_late 2687
Core_0_STLB_cross_page_prefetch_too_early 0
Core_0_STLB_cross_page_prefetch_too_early_among_fill 0
Core_0_STLB_cross_page_prefetch_too_early_among_useless 0
Core_0_STLB_cross_page_prefetch_pollution_evict 0
Core_0_STLB_cross_page_prefetch_pollution_demand 0
Core_0_STLB_cross_page_prefetch_pollution_among_prefetch_fill 0
Core_0_STLB_cross_page_prefetch_accuracy 0.24559
Core_0_STLB_cross_page_prefetch_coverage 0.0262985

========= STLB Cross-page Prefetch Buffer Stats =========
Core_0_STLB_raw_demand_miss 99486
Core_0_CP_PB_insert 5733
Core_0_CP_PB_demand_hit 2687
Core_0_STLB_PB_demand_miss 96799
Core_0_CP_PB_coverage 0.0270088
Core_0_STLB_raw_demand_mpki 0.99486
Core_0_STLB_PB_demand_mpki 0.96799
Core_0_CP_PB_demand_hit_mpki 0.02687

Core_0_TLB_demand_miss_rate 0.00294847
Core_0_TLB_demand_mpki 0.99486
Core_0_TLB_same_page_prefetch_miss_rate 3.87143e-07
Core_0_TLB_same_page_prefetch_mpki 9e-05
Core_0_TLB_cross_page_prefetch_miss_rate 0.00282519
Core_0_TLB_cross_page_prefetch_mpki 0.05733
Core_0_TLB_cross_page_prefetch_issued 2029243
Core_0_TLB_cross_page_prefetch_lookups 2029243
Core_0_TLB_cross_page_prefetch_useful 3016
Core_0_TLB_cross_page_prefetch_useless 65
Core_0_TLB_cross_page_prefetch_late 8
Core_0_TLB_cross_page_prefetch_too_early 16
Core_0_TLB_cross_page_prefetch_too_early_among_fill 0.00147601
Core_0_TLB_cross_page_prefetch_too_early_among_useless 0.246154
Core_0_TLB_cross_page_prefetch_accuracy 0.00148627
Core_0_TLB_cross_page_prefetch_coverage 0.0294238
BERTI TO_L1: 89343024 TO_L2: 92580110 TO_L2_BC_MSHR: 894062
BERTI AVG_LAT: 57.6749 NUM_TRACK_LATENCY: 4301074 NUM_CANT_TRACK_LATENCY: 43
BERTI CROSS_PAGE 21264979 NO_CROSS_PAGE: 160658155
BERTI FOUND_BERTI: 32447887 NO_FOUND_BERTI: 14419440
BERTI AVERAGE_ISSUED: 2.93756
