[VMEM] WARNING: physical memory size is smaller than virtual memory size.

*** ChampSim Multicore Out-of-Order Simulator ***
Warmup Instructions: 50000000
Simulation Instructions: 100000000
Number of CPUs: 1
Page size: 4096
Core 0: /data2/zcq/champsim_traces_xsbench/xs.XXL64nuclide-531B.champsimtrace.xz
VBerti Prefetcher
BERTI HASH ENTANGLING
BERTI IP MASK ffff
Off-chip DRAM Size: 16 GiB Channels: 1 Width: 64-bit Data Rate: 3205 MT/s
Warmup halting CPU 0 at instruction 50000002 cycle 36973076 for remainder of phase
Warmup finished CPU 0 instructions: 50000002 cycles: 36973076 cumulative IPC: 1.352 (Simulation time: 00 hr 06 min 36 sec)
Warmup complete CPU 0 instructions: 50000002 cycles: 36973076 cumulative IPC: 1.352 (Simulation time: 00 hr 06 min 36 sec)
Simulation finished CPU 0 instructions: 100000005 cycles: 692059087 cumulative IPC: 0.1445 (Simulation time: 00 hr 49 min 04 sec)
Simulation complete CPU 0 instructions: 100000005 cycles: 692059087 cumulative IPC: 0.1445 (Simulation time: 00 hr 49 min 04 sec)

ChampSim completed all CPUs

=== Simulation ===
CPU 0 runs /data2/zcq/champsim_traces_xsbench/xs.XXL64nuclide-531B.champsimtrace.xz

Region of Interest Statistics

CPU 0 cumulative IPC: 0.1445 instructions: 100000005 cycles: 692059087
CPU 0 Branch Prediction Accuracy: 87.24% MPKI: 21.5 Average ROB Occupancy at Mispredict: 25.74
Branch type MPKI
BRANCH_DIRECT_JUMP: 0
BRANCH_INDIRECT: 0
BRANCH_CONDITIONAL: 21.5
BRANCH_DIRECT_CALL: 0
BRANCH_INDIRECT_CALL: 0
BRANCH_RETURN: 0

cpu0->cpu0_STLB TOTAL        ACCESS:    3997535 HIT:     135317 MISS:    3862218 MSHR_MERGE:          0
cpu0->cpu0_STLB LOAD         ACCESS:    3997535 HIT:     135317 MISS:    3862218 MSHR_MERGE:          0
cpu0->cpu0_STLB RFO          ACCESS:          0 HIT:          0 MISS:          0 MSHR_MERGE:          0
cpu0->cpu0_STLB PREFETCH     ACCESS:          0 HIT:          0 MISS:          0 MSHR_MERGE:          0
cpu0->cpu0_STLB WRITE        ACCESS:          0 HIT:          0 MISS:          0 MSHR_MERGE:          0
cpu0->cpu0_STLB TRANSLATION  ACCESS:          0 HIT:          0 MISS:          0 MSHR_MERGE:          0
cpu0->cpu0_STLB PREFETCH REQUESTED:          0 ISSUED:          0 USEFUL:          0 USELESS:          0 LATE:          0 TOO_EARLY:          0
cpu0->cpu0_STLB AVERAGE MISS LATENCY: 174.4 cycles
cpu0->cpu0_L2C TOTAL        ACCESS:   10613266 HIT:    1487801 MISS:    9125465 MSHR_MERGE:       8832
cpu0->cpu0_L2C LOAD         ACCESS:    5976621 HIT:     204350 MISS:    5772271 MSHR_MERGE:          0
cpu0->cpu0_L2C RFO          ACCESS:      13533 HIT:      12414 MISS:       1119 MSHR_MERGE:          0
cpu0->cpu0_L2C PREFETCH     ACCESS:    1279552 HIT:    1050638 MISS:     228914 MSHR_MERGE:       8832
cpu0->cpu0_L2C WRITE        ACCESS:      19747 HIT:      19651 MISS:         96 MSHR_MERGE:          0
cpu0->cpu0_L2C TRANSLATION  ACCESS:    3323813 HIT:     200748 MISS:    3123065 MSHR_MERGE:          0
cpu0->cpu0_L2C PREFETCH REQUESTED:     337612 ISSUED:     337612 USEFUL:      12934 USELESS:     136893 LATE:          0 TOO_EARLY:         82
cpu0->cpu0_L2C AVERAGE MISS LATENCY: 149.6 cycles
cpu0->cpu0_L1I TOTAL        ACCESS:      21140 HIT:      21140 MISS:          0 MSHR_MERGE:          0
cpu0->cpu0_L1I LOAD         ACCESS:      21140 HIT:      21140 MISS:          0 MSHR_MERGE:          0
cpu0->cpu0_L1I RFO          ACCESS:          0 HIT:          0 MISS:          0 MSHR_MERGE:          0
cpu0->cpu0_L1I PREFETCH     ACCESS:          0 HIT:          0 MISS:          0 MSHR_MERGE:          0
cpu0->cpu0_L1I WRITE        ACCESS:          0 HIT:          0 MISS:          0 MSHR_MERGE:          0
cpu0->cpu0_L1I TRANSLATION  ACCESS:          0 HIT:          0 MISS:          0 MSHR_MERGE:          0
cpu0->cpu0_L1I PREFETCH REQUESTED:          0 ISSUED:          0 USEFUL:          0 USELESS:          0 LATE:          0 TOO_EARLY:          0
cpu0->cpu0_L1I AVERAGE MISS LATENCY: - cycles
cpu0->cpu0_L1D TOTAL        ACCESS:   21955030 HIT:    9774758 MISS:   12180272 MSHR_MERGE:    1924311
cpu0->cpu0_L1D LOAD         ACCESS:    9559467 HIT:    3481519 MISS:    6077948 MSHR_MERGE:     101328
cpu0->cpu0_L1D RFO          ACCESS:          0 HIT:          0 MISS:          0 MSHR_MERGE:          0
cpu0->cpu0_L1D PREFETCH     ACCESS:    2122320 HIT:    1178691 MISS:     943629 MSHR_MERGE:       1689
cpu0->cpu0_L1D WRITE        ACCESS:    1810173 HIT:    1754845 MISS:      55328 MSHR_MERGE:      41740
cpu0->cpu0_L1D TRANSLATION  ACCESS:    8463070 HIT:    3359703 MISS:    5103367 MSHR_MERGE:    1779554
cpu0->cpu0_L1D PREFETCH REQUESTED:    2421466 ISSUED:    2122318 USEFUL:      36354 USELESS:      46232 LATE:        167 TOO_EARLY:       2427
cpu0->cpu0_L1D AVERAGE MISS LATENCY: 152 cycles
cpu0->cpu0_ITLB TOTAL        ACCESS:      17144 HIT:      17144 MISS:          0 MSHR_MERGE:          0
cpu0->cpu0_ITLB LOAD         ACCESS:      17144 HIT:      17144 MISS:          0 MSHR_MERGE:          0
cpu0->cpu0_ITLB RFO          ACCESS:          0 HIT:          0 MISS:          0 MSHR_MERGE:          0
cpu0->cpu0_ITLB PREFETCH     ACCESS:          0 HIT:          0 MISS:          0 MSHR_MERGE:          0
cpu0->cpu0_ITLB WRITE        ACCESS:          0 HIT:          0 MISS:          0 MSHR_MERGE:          0
cpu0->cpu0_ITLB TRANSLATION  ACCESS:          0 HIT:          0 MISS:          0 MSHR_MERGE:          0
cpu0->cpu0_ITLB PREFETCH REQUESTED:          0 ISSUED:          0 USEFUL:          0 USELESS:          0 LATE:          0 TOO_EARLY:          0
cpu0->cpu0_ITLB AVERAGE MISS LATENCY: - cycles
cpu0->cpu0_DTLB TOTAL        ACCESS:   12832374 HIT:    8621604 MISS:    4210770 MSHR_MERGE:     213235
cpu0->cpu0_DTLB LOAD         ACCESS:   12832374 HIT:    8621604 MISS:    4210770 MSHR_MERGE:     213235
cpu0->cpu0_DTLB RFO          ACCESS:          0 HIT:          0 MISS:          0 MSHR_MERGE:          0
cpu0->cpu0_DTLB PREFETCH     ACCESS:          0 HIT:          0 MISS:          0 MSHR_MERGE:          0
cpu0->cpu0_DTLB WRITE        ACCESS:          0 HIT:          0 MISS:          0 MSHR_MERGE:          0
cpu0->cpu0_DTLB TRANSLATION  ACCESS:          0 HIT:          0 MISS:          0 MSHR_MERGE:          0
cpu0->cpu0_DTLB PREFETCH REQUESTED:          0 ISSUED:          0 USEFUL:          0 USELESS:          0 LATE:          0 TOO_EARLY:          0
cpu0->cpu0_DTLB AVERAGE MISS LATENCY: 174.5 cycles
cpu0->LLC TOTAL        ACCESS:    9120616 HIT:    3068770 MISS:    6051846 MSHR_MERGE:          0
cpu0->LLC LOAD         ACCESS:    5772271 HIT:    1332683 MISS:    4439588 MSHR_MERGE:          0
cpu0->LLC RFO          ACCESS:       1119 HIT:       1118 MISS:          1 MSHR_MERGE:          0
cpu0->LLC PREFETCH     ACCESS:     220082 HIT:      83785 MISS:     136297 MSHR_MERGE:          0
cpu0->LLC WRITE        ACCESS:       4079 HIT:       4069 MISS:         10 MSHR_MERGE:          0
cpu0->LLC TRANSLATION  ACCESS:    3123065 HIT:    1647115 MISS:    1475950 MSHR_MERGE:          0
cpu0->LLC PREFETCH REQUESTED:          0 ISSUED:          0 USEFUL:          0 USELESS:          0 LATE:          0 TOO_EARLY:          0
cpu0->LLC AVERAGE MISS LATENCY: 201.5 cycles

DRAM Statistics

Channel 0 RQ ROW_BUFFER_HIT:      30659
  ROW_BUFFER_MISS:    6021177
  AVG DBUS CONGESTED CYCLE: 2.931
Channel 0 WQ ROW_BUFFER_HIT:          3
  ROW_BUFFER_MISS:          9
  FULL:          0
Channel 0 REFRESHES ISSUED:      57671

[ROI Statistics]
[System Configuration]
num_cpus 1
cpu_freq 4000
fetch_width 6
decode_width 6
dispatch_width 6
execute_width 6
lq_width 2
sq_width 2
retire_width 6
scheduler_size 128
branch_mispredict_penalty 15
rob_size 352
lq_size 128
sq_size 72
ifetch_buffer_size 64
decode_buffer_size 32
dispatch_buffer_size 32
register_file_size 288
decode_latency 1
dispatch_latency 1
schedule_latency 1
execute_latency 1
page_size 4096
block_size 64
core_0_itlb_set 16
core_0_itlb_way 4
core_0_itlb_rq_size 16
core_0_itlb_wq_size 16
core_0_itlb_pq_size 0
core_0_itlb_mshr_size 8
core_0_itlb_hit_latency 1
core_0_itlb_fill_latency 1
core_0_itlb_max_tag_check 2
core_0_itlb_max_fill 2
core_0_dtlb_set 16
core_0_dtlb_way 4
core_0_dtlb_rq_size 16
core_0_dtlb_wq_size 16
core_0_dtlb_pq_size 0
core_0_dtlb_mshr_size 8
core_0_dtlb_hit_latency 1
core_0_dtlb_fill_latency 1
core_0_dtlb_max_tag_check 2
core_0_dtlb_max_fill 2
core_0_stlb_set 128
core_0_stlb_way 12
core_0_stlb_rq_size 32
core_0_stlb_wq_size 32
core_0_stlb_pq_size 0
core_0_stlb_mshr_size 16
core_0_stlb_hit_latency 4
core_0_stlb_fill_latency 4
core_0_stlb_max_tag_check 1
core_0_stlb_max_fill 1
core_0_l1i_set 64
core_0_l1i_way 8
core_0_l1i_rq_size 64
core_0_l1i_wq_size 64
core_0_l1i_pq_size 32
core_0_l1i_mshr_size 8
core_0_l1i_hit_latency 2
core_0_l1i_fill_latency 2
core_0_l1i_max_tag_check 2
core_0_l1i_max_fill 2
core_0_l1d_set 64
core_0_l1d_way 12
core_0_l1d_rq_size 64
core_0_l1d_wq_size 64
core_0_l1d_pq_size 8
core_0_l1d_mshr_size 16
core_0_l1d_hit_latency 2
core_0_l1d_fill_latency 3
core_0_l1d_max_tag_check 2
core_0_l1d_max_fill 2
core_0_l2c_set 1024
core_0_l2c_way 8
core_0_l2c_rq_size 32
core_0_l2c_wq_size 32
core_0_l2c_pq_size 16
core_0_l2c_mshr_size 32
core_0_l2c_hit_latency 5
core_0_l2c_fill_latency 5
core_0_l2c_max_tag_check 1
core_0_l2c_max_fill 1
llc_set 2048
llc_way 16
llc_rq_size 32
llc_wq_size 32
llc_pq_size 32
llc_mshr_size 64
llc_hit_latency 10
llc_fill_latency 10
llc_max_tag_check 1
llc_max_fill 1
dram_channels 1
dram_ranks 1
dram_bankgroups 8
dram_banks 4
dram_rows 65536
dram_columns 1024
dram_channel_width 8
dram_rq_size 64
dram_wq_size 64
dram_size 17179869184
core_0_itlb_prefetcher no
core_0_dtlb_prefetcher no
core_0_stlb_prefetcher no
core_0_l1i_prefetcher next_line
core_0_l1d_prefetcher vberti
core_0_l2c_prefetcher ip_stride
llc_prefetcher no
llc_replacement drrip

Core_0_instructions 100000005
Core_0_cycles 692059087
Core_0_IPC 0.144496
Core_0_branch_prediction_accuracy 87.2432
Core_0_branch_MPKI 21.4968
Core_0_average_ROB_occupancy_at_mispredict 25.7364

Core_0_ITLB_total_access 17144
Core_0_ITLB_total_hit 17144
Core_0_ITLB_total_miss 0
Core_0_ITLB_total_MPKI 0
Core_0_ITLB_total_miss_rate 0
Core_0_ITLB_demand_access 17144
Core_0_ITLB_demand_hit 17144
Core_0_ITLB_demand_miss 0
Core_0_ITLB_demand_MPKI 0
Core_0_ITLB_demand_miss_rate 0
Core_0_ITLB_load_access 17144
Core_0_ITLB_load_hit 17144
Core_0_ITLB_load_miss 0
Core_0_ITLB_load_MPKI 0
Core_0_ITLB_load_miss_rate 0
Core_0_ITLB_rfo_access 0
Core_0_ITLB_rfo_hit 0
Core_0_ITLB_rfo_miss 0
Core_0_ITLB_rfo_MPKI 0
Core_0_ITLB_rfo_miss_rate 0
Core_0_ITLB_prefetch_access 0
Core_0_ITLB_prefetch_hit 0
Core_0_ITLB_prefetch_miss 0
Core_0_ITLB_prefetch_MPKI 0
Core_0_ITLB_prefetch_miss_rate 0
Core_0_ITLB_writeback_access 0
Core_0_ITLB_writeback_hit 0
Core_0_ITLB_writeback_miss 0
Core_0_ITLB_writeback_MPKI 0
Core_0_ITLB_writeback_miss_rate 0
Core_0_ITLB_prefetch_requested 0
Core_0_ITLB_prefetch_issued 0
Core_0_ITLB_prefetch_useful 0
Core_0_ITLB_prefetch_useless 0
Core_0_ITLB_prefetch_late 0
Core_0_ITLB_prefetch_fill 0
Core_0_ITLB_prefetch_too_early 0
Core_0_ITLB_prefetch_too_early_among_fill 0
Core_0_ITLB_prefetch_too_early_among_useless 0
Core_0_ITLB_prefetch_pollution_evict 0
Core_0_ITLB_prefetch_pollution_demand 0
Core_0_ITLB_prefetch_pollution_among_prefetch_fill 0
Core_0_ITLB_prefetch_accuracy 0
Core_0_ITLB_prefetch_coverage 0

Core_0_DTLB_total_access 12832374
Core_0_DTLB_total_hit 8621604
Core_0_DTLB_total_miss 4210770
Core_0_DTLB_total_MPKI 42.1077
Core_0_DTLB_total_miss_rate 0.328136
Core_0_DTLB_demand_access 12832374
Core_0_DTLB_demand_hit 8621604
Core_0_DTLB_demand_miss 4210770
Core_0_DTLB_demand_MPKI 42.1077
Core_0_DTLB_demand_miss_rate 0.328136
Core_0_DTLB_load_access 12832374
Core_0_DTLB_load_hit 8621604
Core_0_DTLB_load_miss 4210770
Core_0_DTLB_load_MPKI 42.1077
Core_0_DTLB_load_miss_rate 0.328136
Core_0_DTLB_rfo_access 0
Core_0_DTLB_rfo_hit 0
Core_0_DTLB_rfo_miss 0
Core_0_DTLB_rfo_MPKI 0
Core_0_DTLB_rfo_miss_rate 0
Core_0_DTLB_prefetch_access 0
Core_0_DTLB_prefetch_hit 0
Core_0_DTLB_prefetch_miss 0
Core_0_DTLB_prefetch_MPKI 0
Core_0_DTLB_prefetch_miss_rate 0
Core_0_DTLB_writeback_access 0
Core_0_DTLB_writeback_hit 0
Core_0_DTLB_writeback_miss 0
Core_0_DTLB_writeback_MPKI 0
Core_0_DTLB_writeback_miss_rate 0
Core_0_DTLB_prefetch_requested 0
Core_0_DTLB_prefetch_issued 0
Core_0_DTLB_prefetch_useful 0
Core_0_DTLB_prefetch_useless 0
Core_0_DTLB_prefetch_late 0
Core_0_DTLB_prefetch_fill 0
Core_0_DTLB_prefetch_too_early 0
Core_0_DTLB_prefetch_too_early_among_fill 0
Core_0_DTLB_prefetch_too_early_among_useless 0
Core_0_DTLB_prefetch_pollution_evict 0
Core_0_DTLB_prefetch_pollution_demand 0
Core_0_DTLB_prefetch_pollution_among_prefetch_fill 0
Core_0_DTLB_prefetch_accuracy 0
Core_0_DTLB_prefetch_coverage 0

Core_0_STLB_total_access 3997535
Core_0_STLB_total_hit 135317
Core_0_STLB_total_miss 3862218
Core_0_STLB_total_MPKI 38.6222
Core_0_STLB_total_miss_rate 0.96615
Core_0_STLB_demand_access 3997535
Core_0_STLB_demand_hit 135317
Core_0_STLB_demand_miss 3862218
Core_0_STLB_demand_MPKI 38.6222
Core_0_STLB_demand_miss_rate 0.96615
Core_0_STLB_load_access 3997535
Core_0_STLB_load_hit 135317
Core_0_STLB_load_miss 3862218
Core_0_STLB_load_MPKI 38.6222
Core_0_STLB_load_miss_rate 0.96615
Core_0_STLB_rfo_access 0
Core_0_STLB_rfo_hit 0
Core_0_STLB_rfo_miss 0
Core_0_STLB_rfo_MPKI 0
Core_0_STLB_rfo_miss_rate 0
Core_0_STLB_prefetch_access 0
Core_0_STLB_prefetch_hit 0
Core_0_STLB_prefetch_miss 0
Core_0_STLB_prefetch_MPKI 0
Core_0_STLB_prefetch_miss_rate 0
Core_0_STLB_writeback_access 0
Core_0_STLB_writeback_hit 0
Core_0_STLB_writeback_miss 0
Core_0_STLB_writeback_MPKI 0
Core_0_STLB_writeback_miss_rate 0
Core_0_STLB_prefetch_requested 0
Core_0_STLB_prefetch_issued 0
Core_0_STLB_prefetch_useful 0
Core_0_STLB_prefetch_useless 0
Core_0_STLB_prefetch_late 0
Core_0_STLB_prefetch_fill 0
Core_0_STLB_prefetch_too_early 0
Core_0_STLB_prefetch_too_early_among_fill 0
Core_0_STLB_prefetch_too_early_among_useless 0
Core_0_STLB_prefetch_pollution_evict 0
Core_0_STLB_prefetch_pollution_demand 0
Core_0_STLB_prefetch_pollution_among_prefetch_fill 0
Core_0_STLB_prefetch_accuracy 0
Core_0_STLB_prefetch_coverage 0

Core_0_L1I_total_access 21140
Core_0_L1I_total_hit 21140
Core_0_L1I_total_miss 0
Core_0_L1I_total_MPKI 0
Core_0_L1I_total_miss_rate 0
Core_0_L1I_demand_access 21140
Core_0_L1I_demand_hit 21140
Core_0_L1I_demand_miss 0
Core_0_L1I_demand_MPKI 0
Core_0_L1I_demand_miss_rate 0
Core_0_L1I_load_access 21140
Core_0_L1I_load_hit 21140
Core_0_L1I_load_miss 0
Core_0_L1I_load_MPKI 0
Core_0_L1I_load_miss_rate 0
Core_0_L1I_rfo_access 0
Core_0_L1I_rfo_hit 0
Core_0_L1I_rfo_miss 0
Core_0_L1I_rfo_MPKI 0
Core_0_L1I_rfo_miss_rate 0
Core_0_L1I_prefetch_access 0
Core_0_L1I_prefetch_hit 0
Core_0_L1I_prefetch_miss 0
Core_0_L1I_prefetch_MPKI 0
Core_0_L1I_prefetch_miss_rate 0
Core_0_L1I_writeback_access 0
Core_0_L1I_writeback_hit 0
Core_0_L1I_writeback_miss 0
Core_0_L1I_writeback_MPKI 0
Core_0_L1I_writeback_miss_rate 0
Core_0_L1I_prefetch_requested 0
Core_0_L1I_prefetch_issued 0
Core_0_L1I_prefetch_useful 0
Core_0_L1I_prefetch_useless 0
Core_0_L1I_prefetch_late 0
Core_0_L1I_prefetch_fill 0
Core_0_L1I_prefetch_too_early 0
Core_0_L1I_prefetch_too_early_among_fill 0
Core_0_L1I_prefetch_too_early_among_useless 0
Core_0_L1I_prefetch_pollution_evict 0
Core_0_L1I_prefetch_pollution_demand 0
Core_0_L1I_prefetch_pollution_among_prefetch_fill 0
Core_0_L1I_prefetch_accuracy 0
Core_0_L1I_prefetch_coverage 0

Core_0_L1D_total_access 13491960
Core_0_L1D_total_hit 6415055
Core_0_L1D_total_miss 7076905
Core_0_L1D_total_MPKI 70.769
Core_0_L1D_total_miss_rate 0.524528
Core_0_L1D_demand_access 9559467
Core_0_L1D_demand_hit 3481519
Core_0_L1D_demand_miss 6077948
Core_0_L1D_demand_MPKI 60.7795
Core_0_L1D_demand_miss_rate 0.635804
Core_0_L1D_load_access 9559467
Core_0_L1D_load_hit 3481519
Core_0_L1D_load_miss 6077948
Core_0_L1D_load_MPKI 60.7795
Core_0_L1D_load_miss_rate 0.635804
Core_0_L1D_rfo_access 0
Core_0_L1D_rfo_hit 0
Core_0_L1D_rfo_miss 0
Core_0_L1D_rfo_MPKI 0
Core_0_L1D_rfo_miss_rate 0
Core_0_L1D_prefetch_access 2122320
Core_0_L1D_prefetch_hit 1178691
Core_0_L1D_prefetch_miss 943629
Core_0_L1D_prefetch_MPKI 9.43629
Core_0_L1D_prefetch_miss_rate 0.444621
Core_0_L1D_writeback_access 1810173
Core_0_L1D_writeback_hit 1754845
Core_0_L1D_writeback_miss 55328
Core_0_L1D_writeback_MPKI 0.55328
Core_0_L1D_writeback_miss_rate 0.030565
Core_0_L1D_prefetch_requested 2421466
Core_0_L1D_prefetch_issued 2122318
Core_0_L1D_prefetch_useful 36354
Core_0_L1D_prefetch_useless 46232
Core_0_L1D_prefetch_late 167
Core_0_L1D_prefetch_fill 82424
Core_0_L1D_prefetch_too_early 2427
Core_0_L1D_prefetch_too_early_among_fill 0.0294453
Core_0_L1D_prefetch_too_early_among_useless 0.0524961
Core_0_L1D_prefetch_pollution_evict 12867
Core_0_L1D_prefetch_pollution_demand 12853
Core_0_L1D_prefetch_pollution_among_prefetch_fill 0.156107
Core_0_L1D_prefetch_accuracy 0.0171294
Core_0_L1D_prefetch_coverage 0.00594573

Core_0_L2C_total_access 7289453
Core_0_L2C_total_hit 1287053
Core_0_L2C_total_miss 6002400
Core_0_L2C_total_MPKI 60.024
Core_0_L2C_total_miss_rate 0.823436
Core_0_L2C_demand_access 5990154
Core_0_L2C_demand_hit 216764
Core_0_L2C_demand_miss 5773390
Core_0_L2C_demand_MPKI 57.7339
Core_0_L2C_demand_miss_rate 0.963813
Core_0_L2C_load_access 5976621
Core_0_L2C_load_hit 204350
Core_0_L2C_load_miss 5772271
Core_0_L2C_load_MPKI 57.7227
Core_0_L2C_load_miss_rate 0.965808
Core_0_L2C_rfo_access 13533
Core_0_L2C_rfo_hit 12414
Core_0_L2C_rfo_miss 1119
Core_0_L2C_rfo_MPKI 0.01119
Core_0_L2C_rfo_miss_rate 0.0826868
Core_0_L2C_prefetch_access 1279552
Core_0_L2C_prefetch_hit 1050638
Core_0_L2C_prefetch_miss 228914
Core_0_L2C_prefetch_MPKI 2.28914
Core_0_L2C_prefetch_miss_rate 0.178902
Core_0_L2C_writeback_access 19747
Core_0_L2C_writeback_hit 19651
Core_0_L2C_writeback_miss 96
Core_0_L2C_writeback_MPKI 0.00096
Core_0_L2C_writeback_miss_rate 0.0048615
Core_0_L2C_prefetch_requested 337612
Core_0_L2C_prefetch_issued 337612
Core_0_L2C_prefetch_useful 12934
Core_0_L2C_prefetch_useless 136893
Core_0_L2C_prefetch_late 0
Core_0_L2C_prefetch_fill 220080
Core_0_L2C_prefetch_too_early 82
Core_0_L2C_prefetch_too_early_among_fill 0.000372592
Core_0_L2C_prefetch_too_early_among_useless 0.000599008
Core_0_L2C_prefetch_pollution_evict 44760
Core_0_L2C_prefetch_pollution_demand 44760
Core_0_L2C_prefetch_pollution_among_prefetch_fill 0.203381
Core_0_L2C_prefetch_accuracy 0.0383102
Core_0_L2C_prefetch_coverage 0.00223527

Core_0_LLC_total_access 5997551
Core_0_LLC_total_hit 1421655
Core_0_LLC_total_miss 4575896
Core_0_LLC_total_MPKI 45.759
Core_0_LLC_total_miss_rate 0.762961
Core_0_LLC_demand_access 5773390
Core_0_LLC_demand_hit 1333801
Core_0_LLC_demand_miss 4439589
Core_0_LLC_demand_MPKI 44.3959
Core_0_LLC_demand_miss_rate 0.768974
Core_0_LLC_load_access 5772271
Core_0_LLC_load_hit 1332683
Core_0_LLC_load_miss 4439588
Core_0_LLC_load_MPKI 44.3959
Core_0_LLC_load_miss_rate 0.769123
Core_0_LLC_rfo_access 1119
Core_0_LLC_rfo_hit 1118
Core_0_LLC_rfo_miss 1
Core_0_LLC_rfo_MPKI 1e-05
Core_0_LLC_rfo_miss_rate 0.000893655
Core_0_LLC_prefetch_access 220082
Core_0_LLC_prefetch_hit 83785
Core_0_LLC_prefetch_miss 136297
Core_0_LLC_prefetch_MPKI 1.36297
Core_0_LLC_prefetch_miss_rate 0.619301
Core_0_LLC_writeback_access 4079
Core_0_LLC_writeback_hit 4069
Core_0_LLC_writeback_miss 10
Core_0_LLC_writeback_MPKI 0.0001
Core_0_LLC_writeback_miss_rate 0.00245158
Core_0_LLC_prefetch_requested 0
Core_0_LLC_prefetch_issued 0
Core_0_LLC_prefetch_useful 0
Core_0_LLC_prefetch_useless 0
Core_0_LLC_prefetch_late 0
Core_0_LLC_prefetch_fill 136297
Core_0_LLC_prefetch_too_early 0
Core_0_LLC_prefetch_too_early_among_fill 0
Core_0_LLC_prefetch_too_early_among_useless 0
Core_0_LLC_prefetch_pollution_evict 29668
Core_0_LLC_prefetch_pollution_demand 29668
Core_0_LLC_prefetch_pollution_among_prefetch_fill 0.217672
Core_0_LLC_prefetch_accuracy 0
Core_0_LLC_prefetch_coverage 0

[DRAM Statistics]
Channel_0_RQ_row_buffer_hit 30659
Channel_0_RQ_row_buffer_miss 6021177
Channel_0_WQ_row_buffer_hit 3
Channel_0_WQ_row_buffer_miss 9
Channel_0_WQ_full 0
Channel_0_dbus_congested 6314066
DRAM_total_RQ_row_buffer_hit 30659
DRAM_total_RQ_row_buffer_miss 6021177
DRAM_total_WQ_row_buffer_hit 3
DRAM_total_WQ_row_buffer_miss 9
DRAM_total_WQ_full 0
DRAM_total_dbus_congested 6314066
DRAM_avg_congested_cycle 2.9309

====== DRAM_RQ_TRAFFIC ========
DRAM_RQ_READ_TRAFFIC_BREAKDOWN:
data_demand_read.count = 4439589
data_demand_read.share = 73.36%

inst_demand_read.count = 0
inst_demand_read.share = 0.00%

cache_inst_prefetch.count = 0
cache_inst_prefetch.share = 0.00%

cache_data_prefetch.count = 136297
cache_data_prefetch.share = 2.25%

stlb_data_demand.count = 1475949
stlb_data_demand.share = 24.39%

stlb_inst_demand.count = 0
stlb_inst_demand.share = 0.00%

stlb_l1i_pref.count = 0
stlb_l1i_pref.share = 0.00%

stlb_l1d_pref.count = 1
stlb_l1d_pref.share = 0.00%

DRAM_RQ_READ_TRAFFIC_SUMMARY:
cache_demand.count = 4439589
cache_demand.share = 73.36%

cache_prefetch.count = 136297
cache_prefetch.share = 2.25%

stlb_demand.count = 1475949
stlb_demand.share = 24.39%

stlb_prefetch.count = 1
stlb_prefetch.share = 0.00%

DRAM_RQ_READ_TRAFFIC_DEBUG:
total_classified_read.count = 6051836
unclassified_read.count = 0
total_read_with_other.count = 6051836

classified_plus_unclassified_check.count = 6051836
dram_rq_read_total_observed.count = 6051836
dram_rq_read_total_observed.per_1K_instructions = 60.5184

STLB_MISS_PTW_DRAM_TOUCH_BREAKDOWN:
stlb_miss_total.count = 3861550

stlb_miss_touch_dram.count = 1477786
stlb_miss_touch_dram.share = 38.27%

stlb_miss_no_dram_touch.count = 2383764
stlb_miss_no_dram_touch.share = 61.73%

STLB_MISS_PTW_DRAM_TOUCH_DEBUG:
stlb_miss_touch_plus_no_touch.count = 3861550
stlb_miss_total_check.count = 3861550

======STLB miss causes ========
Core_0_STLB_miss_cause_breakdown
Core_0_STLB_cause_Demand_Data_miss 3857122
Core_0_STLB_cause_Demand_Data_miss_rate 0.964875
Core_0_STLB_cause_Demand_Instruction_miss 0
Core_0_STLB_cause_Demand_Instruction_miss_rate 0
Core_0_STLB_cause_L1D_Prefetch_miss 5096
Core_0_STLB_cause_L1D_Prefetch_miss_rate 0.00127479
Core_0_STLB_cause_L1D_Prefetch_Same_Page_miss 0
Core_0_STLB_cause_L1D_Prefetch_Same_Page_miss_rate 0
Core_0_STLB_cause_L1D_Prefetch_Cross_Page_miss 5096
Core_0_STLB_cause_L1D_Prefetch_Cross_Page_miss_rate 0.00127479
Core_0_STLB_cause_L1I_Prefetch_miss 0
Core_0_STLB_cause_L1I_Prefetch_miss_rate 0
Core_0_STLB_cause_Other_miss 0
Core_0_STLB_cause_Other_miss_rate 0
Core_0_STLB_Demand_miss 3857122
Core_0_STLB_Demand_miss_rate 0.964875
Core_0_STLB_L1D_Prefetch_miss 5096
Core_0_STLB_L1D_Prefetch_miss_rate 0.00127479
Core_0_STLB_Other_miss 0
Core_0_STLB_Other_miss_rate 0

========== vBerti-TLB Cross-page Flow Stats ==========

Core_0_vBerti_Requested 2421466
Core_0_vBerti_Cross_page_prefetch_in_Requested 298512
Core_0_vBerti_Same_page_prefetch_in_Requested 2122954
Core_0_vBerti_Cross_page_prefetch_of_Requested 0.123277
Core_0_vBerti_Issued 2122318
Core_0_vBerti_PQ_Drop_Rate 0.12354
Core_0_vBerti_InPQ_Cross_page_prefetch_of_Requested 0.0944605
Core_0_vBerti_Cross_page_PQ_Drop_rate 0.233756
Core_0_vBerti_Cross_page_prefetch_of_Issued 0.107775

========= DTLB_vBerti Prefetch Stats =========
Core_0_DTLB_demand_access 11209518
Core_0_DTLB_demand_hit 7008455
Core_0_DTLB_demand_miss 4201063
Core_0_DTLB_demand_mshr_merge 209952
Core_0_DTLB_demand_fill 3991119
Core_0_DTLB_demand_miss_rate 0.374776
Core_0_DTLB_demand_mpki 42.0106
Core_0_DTLB_vberti_prefetch_access 1622856
Core_0_DTLB_vberti_prefetch_hit 1613149
Core_0_DTLB_vberti_prefetch_miss 9707
Core_0_DTLB_vberti_prefetch_mshr_merge 3283
Core_0_DTLB_vberti_prefetch_fill 6424
Core_0_DTLB_vberti_prefetch_miss_rate 0.00598143
Core_0_DTLB_vberti_prefetch_mpki 0.09707

=== DTLB_vBerti Same/Cross-page Prefetch Stats ===
Core_0_DTLB_vberti_same_page_prefetch 1432216
Core_0_DTLB_vberti_same_page_prefetch_hit 1432216
Core_0_DTLB_vberti_same_page_prefetch_miss 0
Core_0_DTLB_vberti_same_page_prefetch_mshr_merge 0
Core_0_DTLB_vberti_same_page_prefetch_fill 0
Core_0_DTLB_vberti_same_page_prefetch_miss_rate 0
Core_0_DTLB_vberti_same_page_prefetch_mpki 0
Core_0_DTLB_vberti_cross_page_prefetch 190640
Core_0_DTLB_vberti_cross_page_prefetch_hit 180933
Core_0_DTLB_vberti_cross_page_prefetch_miss 9707
Core_0_DTLB_vberti_cross_page_prefetch_mshr_merge 3283
Core_0_DTLB_vberti_cross_page_prefetch_fill 6424
Core_0_DTLB_vberti_cross_page_prefetch_miss_rate 0.050918
Core_0_DTLB_vberti_cross_page_prefetch_mpki 0.09707
Core_0_DTLB_same_page_prefetch_miss_rate 0
Core_0_DTLB_same_page_prefetch_mpki 0
Core_0_DTLB_cross_page_prefetch_miss_rate 0.050918
Core_0_DTLB_cross_page_prefetch_mpki 0.09707
Core_0_DTLB_cross_page_prefetch_issued 190640
Core_0_DTLB_cross_page_prefetch_lookups 190640
Core_0_DTLB_cross_page_prefetch_useful 857
Core_0_DTLB_cross_page_prefetch_useless 5567
Core_0_DTLB_cross_page_prefetch_late 0
Core_0_DTLB_cross_page_prefetch_too_early 362
Core_0_DTLB_cross_page_prefetch_too_early_among_fill 0.0563512
Core_0_DTLB_cross_page_prefetch_too_early_among_useless 0.065026
Core_0_DTLB_cross_page_prefetch_pollution_evict 3155
Core_0_DTLB_cross_page_prefetch_pollution_demand 3155
Core_0_DTLB_cross_page_prefetch_pollution_among_prefetch_fill 0.491127
Core_0_DTLB_cross_page_prefetch_accuracy 0.00449538
Core_0_DTLB_cross_page_prefetch_coverage 0.000203954

========= STLB_vBerti Prefetch Stats =========
Core_0_STLB_demand_access 3991111
Core_0_STLB_demand_hit 133989
Core_0_STLB_demand_miss 3857122
Core_0_STLB_demand_mshr_merge 0
Core_0_STLB_demand_fill 3857130
Core_0_STLB_demand_miss_rate 0.966428
Core_0_STLB_demand_mpki 38.5712
Core_0_STLB_vberti_prefetch_access 6424
Core_0_STLB_vberti_prefetch_hit 1328
Core_0_STLB_vberti_prefetch_miss 5096
Core_0_STLB_vberti_prefetch_mshr_merge 0
Core_0_STLB_vberti_prefetch_fill 0
Core_0_STLB_vberti_prefetch_miss_rate 0.793275
Core_0_STLB_vberti_prefetch_mpki 0.05096

=== STLB_vBerti Same/Cross-page Prefetch Stats ===
Core_0_STLB_vberti_same_page_prefetch 0
Core_0_STLB_vberti_same_page_prefetch_hit 0
Core_0_STLB_vberti_same_page_prefetch_miss 0
Core_0_STLB_vberti_same_page_prefetch_mshr_merge 0
Core_0_STLB_vberti_same_page_prefetch_fill 0
Core_0_STLB_vberti_same_page_prefetch_miss_rate 0
Core_0_STLB_vberti_same_page_prefetch_mpki 0
Core_0_STLB_vberti_cross_page_prefetch 6424
Core_0_STLB_vberti_cross_page_prefetch_hit 1328
Core_0_STLB_vberti_cross_page_prefetch_miss 5096
Core_0_STLB_vberti_cross_page_prefetch_mshr_merge 0
Core_0_STLB_vberti_cross_page_prefetch_fill 0
Core_0_STLB_vberti_cross_page_prefetch_miss_rate 0.793275
Core_0_STLB_vberti_cross_page_prefetch_mpki 0.05096
Core_0_STLB_same_page_prefetch_miss_rate 0
Core_0_STLB_same_page_prefetch_mpki 0
Core_0_STLB_cross_page_prefetch_miss_rate 0.793275
Core_0_STLB_cross_page_prefetch_mpki 0.05096
Core_0_STLB_cross_page_prefetch_issued 6424
Core_0_STLB_cross_page_prefetch_lookups 6424
Core_0_STLB_cross_page_prefetch_useful 668
Core_0_STLB_cross_page_prefetch_useless 3777
Core_0_STLB_cross_page_prefetch_late 668
Core_0_STLB_cross_page_prefetch_too_early 0
Core_0_STLB_cross_page_prefetch_too_early_among_fill 0
Core_0_STLB_cross_page_prefetch_too_early_among_useless 0
Core_0_STLB_cross_page_prefetch_pollution_evict 0
Core_0_STLB_cross_page_prefetch_pollution_demand 0
Core_0_STLB_cross_page_prefetch_pollution_among_prefetch_fill 0
Core_0_STLB_cross_page_prefetch_accuracy 0.103985
Core_0_STLB_cross_page_prefetch_coverage 0.000173156

========= STLB Cross-page Prefetch Buffer Stats =========
Core_0_STLB_raw_demand_miss 3857122
Core_0_CP_PB_insert 5096
Core_0_CP_PB_demand_hit 668
Core_0_STLB_PB_demand_miss 3856454
Core_0_CP_PB_coverage 0.000173186
Core_0_STLB_raw_demand_mpki 38.5712
Core_0_STLB_PB_demand_mpki 38.5645
Core_0_CP_PB_demand_hit_mpki 0.00668

Core_0_TLB_demand_miss_rate 0.344093
Core_0_TLB_demand_mpki 38.5712
Core_0_TLB_same_page_prefetch_miss_rate 0
Core_0_TLB_same_page_prefetch_mpki 0
Core_0_TLB_cross_page_prefetch_miss_rate 0.026731
Core_0_TLB_cross_page_prefetch_mpki 0.05096
Core_0_TLB_cross_page_prefetch_issued 190640
Core_0_TLB_cross_page_prefetch_lookups 190640
Core_0_TLB_cross_page_prefetch_useful 8
Core_0_TLB_cross_page_prefetch_useless 3859
Core_0_TLB_cross_page_prefetch_late 0
Core_0_TLB_cross_page_prefetch_too_early 31
Core_0_TLB_cross_page_prefetch_too_early_among_fill 0.00482565
Core_0_TLB_cross_page_prefetch_too_early_among_useless 0.00803317
Core_0_TLB_cross_page_prefetch_accuracy 4.19639e-05
Core_0_TLB_cross_page_prefetch_coverage 2.07408e-06
BERTI TO_L1: 1477845 TO_L2: 1630388 TO_L2_BC_MSHR: 0
BERTI AVG_LAT: 119.843 NUM_TRACK_LATENCY: 9072941 NUM_CANT_TRACK_LATENCY: 0
BERTI CROSS_PAGE 318266 NO_CROSS_PAGE: 2789967
BERTI FOUND_BERTI: 12669758 NO_FOUND_BERTI: 3812110
BERTI AVERAGE_ISSUED: 2.90585
