[VMEM] WARNING: physical memory size is smaller than virtual memory size.

*** ChampSim Multicore Out-of-Order Simulator ***
Warmup Instructions: 50000000
Simulation Instructions: 100000000
Number of CPUs: 1
Page size: 4096
Core 0: /data2/zcq/champsim_traces_xsbench/xs.XXL100nuclide-861B.champsimtrace.xz
VBerti Prefetcher
BERTI HASH ENTANGLING
BERTI IP MASK ffff
Off-chip DRAM Size: 16 GiB Channels: 1 Width: 64-bit Data Rate: 3205 MT/s
Warmup halting CPU 0 at instruction 50000002 cycle 36703381 for remainder of phase
Warmup finished CPU 0 instructions: 50000002 cycles: 36703381 cumulative IPC: 1.362 (Simulation time: 00 hr 06 min 21 sec)
Warmup complete CPU 0 instructions: 50000002 cycles: 36703381 cumulative IPC: 1.362 (Simulation time: 00 hr 06 min 21 sec)
Simulation finished CPU 0 instructions: 100000002 cycles: 691862637 cumulative IPC: 0.1445 (Simulation time: 00 hr 49 min 07 sec)
Simulation complete CPU 0 instructions: 100000002 cycles: 691862637 cumulative IPC: 0.1445 (Simulation time: 00 hr 49 min 07 sec)

ChampSim completed all CPUs

=== Simulation ===
CPU 0 runs /data2/zcq/champsim_traces_xsbench/xs.XXL100nuclide-861B.champsimtrace.xz

Region of Interest Statistics

CPU 0 cumulative IPC: 0.1445 instructions: 100000002 cycles: 691862637
CPU 0 Branch Prediction Accuracy: 87.26% MPKI: 21.5 Average ROB Occupancy at Mispredict: 25.77
Branch type MPKI
BRANCH_DIRECT_JUMP: 0
BRANCH_INDIRECT: 0
BRANCH_CONDITIONAL: 21.5
BRANCH_DIRECT_CALL: 0
BRANCH_INDIRECT_CALL: 0
BRANCH_RETURN: 0

cpu0->cpu0_STLB TOTAL        ACCESS:    3984188 HIT:     124305 MISS:    3859883 MSHR_MERGE:          0
cpu0->cpu0_STLB LOAD         ACCESS:    3984188 HIT:     124305 MISS:    3859883 MSHR_MERGE:          0
cpu0->cpu0_STLB RFO          ACCESS:          0 HIT:          0 MISS:          0 MSHR_MERGE:          0
cpu0->cpu0_STLB PREFETCH     ACCESS:          0 HIT:          0 MISS:          0 MSHR_MERGE:          0
cpu0->cpu0_STLB WRITE        ACCESS:          0 HIT:          0 MISS:          0 MSHR_MERGE:          0
cpu0->cpu0_STLB TRANSLATION  ACCESS:          0 HIT:          0 MISS:          0 MSHR_MERGE:          0
cpu0->cpu0_STLB PREFETCH REQUESTED:          0 ISSUED:          0 USEFUL:          0 USELESS:          0 LATE:          0 TOO_EARLY:          0
cpu0->cpu0_STLB AVERAGE MISS LATENCY: 174.8 cycles
cpu0->cpu0_L2C TOTAL        ACCESS:   10623024 HIT:    1480466 MISS:    9142558 MSHR_MERGE:       9154
cpu0->cpu0_L2C LOAD         ACCESS:    5975976 HIT:     199757 MISS:    5776219 MSHR_MERGE:          0
cpu0->cpu0_L2C RFO          ACCESS:      22950 HIT:      22207 MISS:        743 MSHR_MERGE:          0
cpu0->cpu0_L2C PREFETCH     ACCESS:    1277914 HIT:    1047981 MISS:     229933 MSHR_MERGE:       9154
cpu0->cpu0_L2C WRITE        ACCESS:      27820 HIT:      27808 MISS:         12 MSHR_MERGE:          0
cpu0->cpu0_L2C TRANSLATION  ACCESS:    3318364 HIT:     182713 MISS:    3135651 MSHR_MERGE:          0
cpu0->cpu0_L2C PREFETCH REQUESTED:     333682 ISSUED:     333682 USEFUL:      13058 USELESS:     136392 LATE:          0 TOO_EARLY:         44
cpu0->cpu0_L2C AVERAGE MISS LATENCY: 149.4 cycles
cpu0->cpu0_L1I TOTAL        ACCESS:      21993 HIT:      21993 MISS:          0 MSHR_MERGE:          0
cpu0->cpu0_L1I LOAD         ACCESS:      21993 HIT:      21993 MISS:          0 MSHR_MERGE:          0
cpu0->cpu0_L1I RFO          ACCESS:          0 HIT:          0 MISS:          0 MSHR_MERGE:          0
cpu0->cpu0_L1I PREFETCH     ACCESS:          0 HIT:          0 MISS:          0 MSHR_MERGE:          0
cpu0->cpu0_L1I WRITE        ACCESS:          0 HIT:          0 MISS:          0 MSHR_MERGE:          0
cpu0->cpu0_L1I TRANSLATION  ACCESS:          0 HIT:          0 MISS:          0 MSHR_MERGE:          0
cpu0->cpu0_L1I PREFETCH REQUESTED:          0 ISSUED:          0 USEFUL:          0 USELESS:          0 LATE:          0 TOO_EARLY:          0
cpu0->cpu0_L1I AVERAGE MISS LATENCY: - cycles
cpu0->cpu0_L1D TOTAL        ACCESS:   21905503 HIT:    9713547 MISS:   12191956 MSHR_MERGE:    1930395
cpu0->cpu0_L1D LOAD         ACCESS:    9562557 HIT:    3487002 MISS:    6075555 MSHR_MERGE:      99579
cpu0->cpu0_L1D RFO          ACCESS:          0 HIT:          0 MISS:          0 MSHR_MERGE:          0
cpu0->cpu0_L1D PREFETCH     ACCESS:    2067872 HIT:    1123638 MISS:     944234 MSHR_MERGE:          2
cpu0->cpu0_L1D WRITE        ACCESS:    1814801 HIT:    1756091 MISS:      58710 MSHR_MERGE:      35721
cpu0->cpu0_L1D TRANSLATION  ACCESS:    8460273 HIT:    3346816 MISS:    5113457 MSHR_MERGE:    1795093
cpu0->cpu0_L1D PREFETCH REQUESTED:    2357375 ISSUED:    2067871 USEFUL:      35289 USELESS:      44691 LATE:          0 TOO_EARLY:       2443
cpu0->cpu0_L1D AVERAGE MISS LATENCY: 152 cycles
cpu0->cpu0_ITLB TOTAL        ACCESS:      17880 HIT:      17880 MISS:          0 MSHR_MERGE:          0
cpu0->cpu0_ITLB LOAD         ACCESS:      17880 HIT:      17880 MISS:          0 MSHR_MERGE:          0
cpu0->cpu0_ITLB RFO          ACCESS:          0 HIT:          0 MISS:          0 MSHR_MERGE:          0
cpu0->cpu0_ITLB PREFETCH     ACCESS:          0 HIT:          0 MISS:          0 MSHR_MERGE:          0
cpu0->cpu0_ITLB WRITE        ACCESS:          0 HIT:          0 MISS:          0 MSHR_MERGE:          0
cpu0->cpu0_ITLB TRANSLATION  ACCESS:          0 HIT:          0 MISS:          0 MSHR_MERGE:          0
cpu0->cpu0_ITLB PREFETCH REQUESTED:          0 ISSUED:          0 USEFUL:          0 USELESS:          0 LATE:          0 TOO_EARLY:          0
cpu0->cpu0_ITLB AVERAGE MISS LATENCY: - cycles
cpu0->cpu0_DTLB TOTAL        ACCESS:   12802752 HIT:    8615136 MISS:    4187616 MSHR_MERGE:     203428
cpu0->cpu0_DTLB LOAD         ACCESS:   12802752 HIT:    8615136 MISS:    4187616 MSHR_MERGE:     203428
cpu0->cpu0_DTLB RFO          ACCESS:          0 HIT:          0 MISS:          0 MSHR_MERGE:          0
cpu0->cpu0_DTLB PREFETCH     ACCESS:          0 HIT:          0 MISS:          0 MSHR_MERGE:          0
cpu0->cpu0_DTLB WRITE        ACCESS:          0 HIT:          0 MISS:          0 MSHR_MERGE:          0
cpu0->cpu0_DTLB TRANSLATION  ACCESS:          0 HIT:          0 MISS:          0 MSHR_MERGE:          0
cpu0->cpu0_DTLB PREFETCH REQUESTED:          0 ISSUED:          0 USEFUL:          0 USELESS:          0 LATE:          0 TOO_EARLY:          0
cpu0->cpu0_DTLB AVERAGE MISS LATENCY: 175.3 cycles
cpu0->LLC TOTAL        ACCESS:    9136157 HIT:    3086361 MISS:    6049796 MSHR_MERGE:          0
cpu0->LLC LOAD         ACCESS:    5776219 HIT:    1337397 MISS:    4438822 MSHR_MERGE:          0
cpu0->LLC RFO          ACCESS:        743 HIT:        742 MISS:          1 MSHR_MERGE:          0
cpu0->LLC PREFETCH     ACCESS:     220779 HIT:      85414 MISS:     135365 MSHR_MERGE:          0
cpu0->LLC WRITE        ACCESS:       2765 HIT:       2747 MISS:         18 MSHR_MERGE:          0
cpu0->LLC TRANSLATION  ACCESS:    3135651 HIT:    1660061 MISS:    1475590 MSHR_MERGE:          0
cpu0->LLC PREFETCH REQUESTED:          0 ISSUED:          0 USEFUL:          0 USELESS:          0 LATE:          0 TOO_EARLY:          0
cpu0->LLC AVERAGE MISS LATENCY: 201.6 cycles

DRAM Statistics

Channel 0 RQ ROW_BUFFER_HIT:      30742
  ROW_BUFFER_MISS:    6019036
  AVG DBUS CONGESTED CYCLE: 2.934
Channel 0 WQ ROW_BUFFER_HIT:          6
  ROW_BUFFER_MISS:         12
  FULL:          0
Channel 0 REFRESHES ISSUED:      57655

[ROI Statistics]
[System Configuration]
num_cpus 1
cpu_freq 4000
fetch_width 6
decode_width 6
dispatch_width 6
execute_width 6
lq_width 2
sq_width 2
retire_width 6
scheduler_size 128
branch_mispredict_penalty 15
rob_size 352
lq_size 128
sq_size 72
ifetch_buffer_size 64
decode_buffer_size 32
dispatch_buffer_size 32
register_file_size 288
decode_latency 1
dispatch_latency 1
schedule_latency 1
execute_latency 1
page_size 4096
block_size 64
core_0_itlb_set 16
core_0_itlb_way 4
core_0_itlb_rq_size 16
core_0_itlb_wq_size 16
core_0_itlb_pq_size 0
core_0_itlb_mshr_size 8
core_0_itlb_hit_latency 1
core_0_itlb_fill_latency 1
core_0_itlb_max_tag_check 2
core_0_itlb_max_fill 2
core_0_dtlb_set 16
core_0_dtlb_way 4
core_0_dtlb_rq_size 16
core_0_dtlb_wq_size 16
core_0_dtlb_pq_size 0
core_0_dtlb_mshr_size 8
core_0_dtlb_hit_latency 1
core_0_dtlb_fill_latency 1
core_0_dtlb_max_tag_check 2
core_0_dtlb_max_fill 2
core_0_stlb_set 128
core_0_stlb_way 12
core_0_stlb_rq_size 32
core_0_stlb_wq_size 32
core_0_stlb_pq_size 0
core_0_stlb_mshr_size 16
core_0_stlb_hit_latency 4
core_0_stlb_fill_latency 4
core_0_stlb_max_tag_check 1
core_0_stlb_max_fill 1
core_0_l1i_set 64
core_0_l1i_way 8
core_0_l1i_rq_size 64
core_0_l1i_wq_size 64
core_0_l1i_pq_size 32
core_0_l1i_mshr_size 8
core_0_l1i_hit_latency 2
core_0_l1i_fill_latency 2
core_0_l1i_max_tag_check 2
core_0_l1i_max_fill 2
core_0_l1d_set 64
core_0_l1d_way 12
core_0_l1d_rq_size 64
core_0_l1d_wq_size 64
core_0_l1d_pq_size 8
core_0_l1d_mshr_size 16
core_0_l1d_hit_latency 2
core_0_l1d_fill_latency 3
core_0_l1d_max_tag_check 2
core_0_l1d_max_fill 2
core_0_l2c_set 1024
core_0_l2c_way 8
core_0_l2c_rq_size 32
core_0_l2c_wq_size 32
core_0_l2c_pq_size 16
core_0_l2c_mshr_size 32
core_0_l2c_hit_latency 5
core_0_l2c_fill_latency 5
core_0_l2c_max_tag_check 1
core_0_l2c_max_fill 1
llc_set 2048
llc_way 16
llc_rq_size 32
llc_wq_size 32
llc_pq_size 32
llc_mshr_size 64
llc_hit_latency 10
llc_fill_latency 10
llc_max_tag_check 1
llc_max_fill 1
dram_channels 1
dram_ranks 1
dram_bankgroups 8
dram_banks 4
dram_rows 65536
dram_columns 1024
dram_channel_width 8
dram_rq_size 64
dram_wq_size 64
dram_size 17179869184
core_0_itlb_prefetcher no
core_0_dtlb_prefetcher no
core_0_stlb_prefetcher no
core_0_l1i_prefetcher next_line
core_0_l1d_prefetcher vberti
core_0_l2c_prefetcher ip_stride
llc_prefetcher no
llc_replacement drrip

Core_0_instructions 100000002
Core_0_cycles 691862637
Core_0_IPC 0.144537
Core_0_branch_prediction_accuracy 87.2628
Core_0_branch_MPKI 21.5018
Core_0_average_ROB_occupancy_at_mispredict 25.7712

Core_0_ITLB_total_access 17880
Core_0_ITLB_total_hit 17880
Core_0_ITLB_total_miss 0
Core_0_ITLB_total_MPKI 0
Core_0_ITLB_total_miss_rate 0
Core_0_ITLB_demand_access 17880
Core_0_ITLB_demand_hit 17880
Core_0_ITLB_demand_miss 0
Core_0_ITLB_demand_MPKI 0
Core_0_ITLB_demand_miss_rate 0
Core_0_ITLB_load_access 17880
Core_0_ITLB_load_hit 17880
Core_0_ITLB_load_miss 0
Core_0_ITLB_load_MPKI 0
Core_0_ITLB_load_miss_rate 0
Core_0_ITLB_rfo_access 0
Core_0_ITLB_rfo_hit 0
Core_0_ITLB_rfo_miss 0
Core_0_ITLB_rfo_MPKI 0
Core_0_ITLB_rfo_miss_rate 0
Core_0_ITLB_prefetch_access 0
Core_0_ITLB_prefetch_hit 0
Core_0_ITLB_prefetch_miss 0
Core_0_ITLB_prefetch_MPKI 0
Core_0_ITLB_prefetch_miss_rate 0
Core_0_ITLB_writeback_access 0
Core_0_ITLB_writeback_hit 0
Core_0_ITLB_writeback_miss 0
Core_0_ITLB_writeback_MPKI 0
Core_0_ITLB_writeback_miss_rate 0
Core_0_ITLB_prefetch_requested 0
Core_0_ITLB_prefetch_issued 0
Core_0_ITLB_prefetch_useful 0
Core_0_ITLB_prefetch_useless 0
Core_0_ITLB_prefetch_late 0
Core_0_ITLB_prefetch_fill 0
Core_0_ITLB_prefetch_too_early 0
Core_0_ITLB_prefetch_too_early_among_fill 0
Core_0_ITLB_prefetch_too_early_among_useless 0
Core_0_ITLB_prefetch_pollution_evict 0
Core_0_ITLB_prefetch_pollution_demand 0
Core_0_ITLB_prefetch_pollution_among_prefetch_fill 0
Core_0_ITLB_prefetch_accuracy 0
Core_0_ITLB_prefetch_coverage 0

Core_0_DTLB_total_access 12802752
Core_0_DTLB_total_hit 8615136
Core_0_DTLB_total_miss 4187616
Core_0_DTLB_total_MPKI 41.8762
Core_0_DTLB_total_miss_rate 0.327087
Core_0_DTLB_demand_access 12802752
Core_0_DTLB_demand_hit 8615136
Core_0_DTLB_demand_miss 4187616
Core_0_DTLB_demand_MPKI 41.8762
Core_0_DTLB_demand_miss_rate 0.327087
Core_0_DTLB_load_access 12802752
Core_0_DTLB_load_hit 8615136
Core_0_DTLB_load_miss 4187616
Core_0_DTLB_load_MPKI 41.8762
Core_0_DTLB_load_miss_rate 0.327087
Core_0_DTLB_rfo_access 0
Core_0_DTLB_rfo_hit 0
Core_0_DTLB_rfo_miss 0
Core_0_DTLB_rfo_MPKI 0
Core_0_DTLB_rfo_miss_rate 0
Core_0_DTLB_prefetch_access 0
Core_0_DTLB_prefetch_hit 0
Core_0_DTLB_prefetch_miss 0
Core_0_DTLB_prefetch_MPKI 0
Core_0_DTLB_prefetch_miss_rate 0
Core_0_DTLB_writeback_access 0
Core_0_DTLB_writeback_hit 0
Core_0_DTLB_writeback_miss 0
Core_0_DTLB_writeback_MPKI 0
Core_0_DTLB_writeback_miss_rate 0
Core_0_DTLB_prefetch_requested 0
Core_0_DTLB_prefetch_issued 0
Core_0_DTLB_prefetch_useful 0
Core_0_DTLB_prefetch_useless 0
Core_0_DTLB_prefetch_late 0
Core_0_DTLB_prefetch_fill 0
Core_0_DTLB_prefetch_too_early 0
Core_0_DTLB_prefetch_too_early_among_fill 0
Core_0_DTLB_prefetch_too_early_among_useless 0
Core_0_DTLB_prefetch_pollution_evict 0
Core_0_DTLB_prefetch_pollution_demand 0
Core_0_DTLB_prefetch_pollution_among_prefetch_fill 0
Core_0_DTLB_prefetch_accuracy 0
Core_0_DTLB_prefetch_coverage 0

Core_0_STLB_total_access 3984188
Core_0_STLB_total_hit 124305
Core_0_STLB_total_miss 3859883
Core_0_STLB_total_MPKI 38.5988
Core_0_STLB_total_miss_rate 0.9688
Core_0_STLB_demand_access 3984188
Core_0_STLB_demand_hit 124305
Core_0_STLB_demand_miss 3859883
Core_0_STLB_demand_MPKI 38.5988
Core_0_STLB_demand_miss_rate 0.9688
Core_0_STLB_load_access 3984188
Core_0_STLB_load_hit 124305
Core_0_STLB_load_miss 3859883
Core_0_STLB_load_MPKI 38.5988
Core_0_STLB_load_miss_rate 0.9688
Core_0_STLB_rfo_access 0
Core_0_STLB_rfo_hit 0
Core_0_STLB_rfo_miss 0
Core_0_STLB_rfo_MPKI 0
Core_0_STLB_rfo_miss_rate 0
Core_0_STLB_prefetch_access 0
Core_0_STLB_prefetch_hit 0
Core_0_STLB_prefetch_miss 0
Core_0_STLB_prefetch_MPKI 0
Core_0_STLB_prefetch_miss_rate 0
Core_0_STLB_writeback_access 0
Core_0_STLB_writeback_hit 0
Core_0_STLB_writeback_miss 0
Core_0_STLB_writeback_MPKI 0
Core_0_STLB_writeback_miss_rate 0
Core_0_STLB_prefetch_requested 0
Core_0_STLB_prefetch_issued 0
Core_0_STLB_prefetch_useful 0
Core_0_STLB_prefetch_useless 0
Core_0_STLB_prefetch_late 0
Core_0_STLB_prefetch_fill 0
Core_0_STLB_prefetch_too_early 0
Core_0_STLB_prefetch_too_early_among_fill 0
Core_0_STLB_prefetch_too_early_among_useless 0
Core_0_STLB_prefetch_pollution_evict 0
Core_0_STLB_prefetch_pollution_demand 0
Core_0_STLB_prefetch_pollution_among_prefetch_fill 0
Core_0_STLB_prefetch_accuracy 0
Core_0_STLB_prefetch_coverage 0

Core_0_L1I_total_access 21993
Core_0_L1I_total_hit 21993
Core_0_L1I_total_miss 0
Core_0_L1I_total_MPKI 0
Core_0_L1I_total_miss_rate 0
Core_0_L1I_demand_access 21993
Core_0_L1I_demand_hit 21993
Core_0_L1I_demand_miss 0
Core_0_L1I_demand_MPKI 0
Core_0_L1I_demand_miss_rate 0
Core_0_L1I_load_access 21993
Core_0_L1I_load_hit 21993
Core_0_L1I_load_miss 0
Core_0_L1I_load_MPKI 0
Core_0_L1I_load_miss_rate 0
Core_0_L1I_rfo_access 0
Core_0_L1I_rfo_hit 0
Core_0_L1I_rfo_miss 0
Core_0_L1I_rfo_MPKI 0
Core_0_L1I_rfo_miss_rate 0
Core_0_L1I_prefetch_access 0
Core_0_L1I_prefetch_hit 0
Core_0_L1I_prefetch_miss 0
Core_0_L1I_prefetch_MPKI 0
Core_0_L1I_prefetch_miss_rate 0
Core_0_L1I_writeback_access 0
Core_0_L1I_writeback_hit 0
Core_0_L1I_writeback_miss 0
Core_0_L1I_writeback_MPKI 0
Core_0_L1I_writeback_miss_rate 0
Core_0_L1I_prefetch_requested 0
Core_0_L1I_prefetch_issued 0
Core_0_L1I_prefetch_useful 0
Core_0_L1I_prefetch_useless 0
Core_0_L1I_prefetch_late 0
Core_0_L1I_prefetch_fill 0
Core_0_L1I_prefetch_too_early 0
Core_0_L1I_prefetch_too_early_among_fill 0
Core_0_L1I_prefetch_too_early_among_useless 0
Core_0_L1I_prefetch_pollution_evict 0
Core_0_L1I_prefetch_pollution_demand 0
Core_0_L1I_prefetch_pollution_among_prefetch_fill 0
Core_0_L1I_prefetch_accuracy 0
Core_0_L1I_prefetch_coverage 0

Core_0_L1D_total_access 13445230
Core_0_L1D_total_hit 6366731
Core_0_L1D_total_miss 7078499
Core_0_L1D_total_MPKI 70.785
Core_0_L1D_total_miss_rate 0.526469
Core_0_L1D_demand_access 9562557
Core_0_L1D_demand_hit 3487002
Core_0_L1D_demand_miss 6075555
Core_0_L1D_demand_MPKI 60.7555
Core_0_L1D_demand_miss_rate 0.635348
Core_0_L1D_load_access 9562557
Core_0_L1D_load_hit 3487002
Core_0_L1D_load_miss 6075555
Core_0_L1D_load_MPKI 60.7555
Core_0_L1D_load_miss_rate 0.635348
Core_0_L1D_rfo_access 0
Core_0_L1D_rfo_hit 0
Core_0_L1D_rfo_miss 0
Core_0_L1D_rfo_MPKI 0
Core_0_L1D_rfo_miss_rate 0
Core_0_L1D_prefetch_access 2067872
Core_0_L1D_prefetch_hit 1123638
Core_0_L1D_prefetch_miss 944234
Core_0_L1D_prefetch_MPKI 9.44234
Core_0_L1D_prefetch_miss_rate 0.456621
Core_0_L1D_writeback_access 1814801
Core_0_L1D_writeback_hit 1756091
Core_0_L1D_writeback_miss 58710
Core_0_L1D_writeback_MPKI 0.5871
Core_0_L1D_writeback_miss_rate 0.0323507
Core_0_L1D_prefetch_requested 2357375
Core_0_L1D_prefetch_issued 2067871
Core_0_L1D_prefetch_useful 35289
Core_0_L1D_prefetch_useless 44691
Core_0_L1D_prefetch_late 0
Core_0_L1D_prefetch_fill 79981
Core_0_L1D_prefetch_too_early 2443
Core_0_L1D_prefetch_too_early_among_fill 0.0305448
Core_0_L1D_prefetch_too_early_among_useless 0.0546643
Core_0_L1D_prefetch_pollution_evict 13138
Core_0_L1D_prefetch_pollution_demand 13128
Core_0_L1D_prefetch_pollution_among_prefetch_fill 0.164264
Core_0_L1D_prefetch_accuracy 0.0170654
Core_0_L1D_prefetch_coverage 0.00577482

Core_0_L2C_total_access 7304660
Core_0_L2C_total_hit 1297753
Core_0_L2C_total_miss 6006907
Core_0_L2C_total_MPKI 60.0691
Core_0_L2C_total_miss_rate 0.822339
Core_0_L2C_demand_access 5998926
Core_0_L2C_demand_hit 221964
Core_0_L2C_demand_miss 5776962
Core_0_L2C_demand_MPKI 57.7696
Core_0_L2C_demand_miss_rate 0.962999
Core_0_L2C_load_access 5975976
Core_0_L2C_load_hit 199757
Core_0_L2C_load_miss 5776219
Core_0_L2C_load_MPKI 57.7622
Core_0_L2C_load_miss_rate 0.966573
Core_0_L2C_rfo_access 22950
Core_0_L2C_rfo_hit 22207
Core_0_L2C_rfo_miss 743
Core_0_L2C_rfo_MPKI 0.00743
Core_0_L2C_rfo_miss_rate 0.0323747
Core_0_L2C_prefetch_access 1277914
Core_0_L2C_prefetch_hit 1047981
Core_0_L2C_prefetch_miss 229933
Core_0_L2C_prefetch_MPKI 2.29933
Core_0_L2C_prefetch_miss_rate 0.179928
Core_0_L2C_writeback_access 27820
Core_0_L2C_writeback_hit 27808
Core_0_L2C_writeback_miss 12
Core_0_L2C_writeback_MPKI 0.00012
Core_0_L2C_writeback_miss_rate 0.000431344
Core_0_L2C_prefetch_requested 333682
Core_0_L2C_prefetch_issued 333682
Core_0_L2C_prefetch_useful 13058
Core_0_L2C_prefetch_useless 136392
Core_0_L2C_prefetch_late 0
Core_0_L2C_prefetch_fill 220779
Core_0_L2C_prefetch_too_early 44
Core_0_L2C_prefetch_too_early_among_fill 0.000199294
Core_0_L2C_prefetch_too_early_among_useless 0.0003226
Core_0_L2C_prefetch_pollution_evict 44672
Core_0_L2C_prefetch_pollution_demand 44672
Core_0_L2C_prefetch_pollution_among_prefetch_fill 0.202338
Core_0_L2C_prefetch_accuracy 0.0391331
Core_0_L2C_prefetch_coverage 0.00225526

Core_0_LLC_total_access 6000506
Core_0_LLC_total_hit 1426300
Core_0_LLC_total_miss 4574206
Core_0_LLC_total_MPKI 45.7421
Core_0_LLC_total_miss_rate 0.762303
Core_0_LLC_demand_access 5776962
Core_0_LLC_demand_hit 1338139
Core_0_LLC_demand_miss 4438823
Core_0_LLC_demand_MPKI 44.3882
Core_0_LLC_demand_miss_rate 0.768366
Core_0_LLC_load_access 5776219
Core_0_LLC_load_hit 1337397
Core_0_LLC_load_miss 4438822
Core_0_LLC_load_MPKI 44.3882
Core_0_LLC_load_miss_rate 0.768465
Core_0_LLC_rfo_access 743
Core_0_LLC_rfo_hit 742
Core_0_LLC_rfo_miss 1
Core_0_LLC_rfo_MPKI 1e-05
Core_0_LLC_rfo_miss_rate 0.0013459
Core_0_LLC_prefetch_access 220779
Core_0_LLC_prefetch_hit 85414
Core_0_LLC_prefetch_miss 135365
Core_0_LLC_prefetch_MPKI 1.35365
Core_0_LLC_prefetch_miss_rate 0.613124
Core_0_LLC_writeback_access 2765
Core_0_LLC_writeback_hit 2747
Core_0_LLC_writeback_miss 18
Core_0_LLC_writeback_MPKI 0.00018
Core_0_LLC_writeback_miss_rate 0.00650995
Core_0_LLC_prefetch_requested 0
Core_0_LLC_prefetch_issued 0
Core_0_LLC_prefetch_useful 0
Core_0_LLC_prefetch_useless 0
Core_0_LLC_prefetch_late 0
Core_0_LLC_prefetch_fill 135365
Core_0_LLC_prefetch_too_early 0
Core_0_LLC_prefetch_too_early_among_fill 0
Core_0_LLC_prefetch_too_early_among_useless 0
Core_0_LLC_prefetch_pollution_evict 29154
Core_0_LLC_prefetch_pollution_demand 29154
Core_0_LLC_prefetch_pollution_among_prefetch_fill 0.215373
Core_0_LLC_prefetch_accuracy 0
Core_0_LLC_prefetch_coverage 0

[DRAM Statistics]
Channel_0_RQ_row_buffer_hit 30742
Channel_0_RQ_row_buffer_miss 6019036
Channel_0_WQ_row_buffer_hit 6
Channel_0_WQ_row_buffer_miss 12
Channel_0_WQ_full 0
Channel_0_dbus_congested 6326771
DRAM_total_RQ_row_buffer_hit 30742
DRAM_total_RQ_row_buffer_miss 6019036
DRAM_total_WQ_row_buffer_hit 6
DRAM_total_WQ_row_buffer_miss 12
DRAM_total_WQ_full 0
DRAM_total_dbus_congested 6326771
DRAM_avg_congested_cycle 2.93441

====== DRAM_RQ_TRAFFIC ========
DRAM_RQ_READ_TRAFFIC_BREAKDOWN:
data_demand_read.count = 4438823
data_demand_read.share = 73.37%

inst_demand_read.count = 0
inst_demand_read.share = 0.00%

cache_inst_prefetch.count = 0
cache_inst_prefetch.share = 0.00%

cache_data_prefetch.count = 135365
cache_data_prefetch.share = 2.24%

stlb_data_demand.count = 1475589
stlb_data_demand.share = 24.39%

stlb_inst_demand.count = 0
stlb_inst_demand.share = 0.00%

stlb_l1i_pref.count = 0
stlb_l1i_pref.share = 0.00%

stlb_l1d_pref.count = 1
stlb_l1d_pref.share = 0.00%

DRAM_RQ_READ_TRAFFIC_SUMMARY:
cache_demand.count = 4438823
cache_demand.share = 73.37%

cache_prefetch.count = 135365
cache_prefetch.share = 2.24%

stlb_demand.count = 1475589
stlb_demand.share = 24.39%

stlb_prefetch.count = 1
stlb_prefetch.share = 0.00%

DRAM_RQ_READ_TRAFFIC_DEBUG:
total_classified_read.count = 6049778
unclassified_read.count = 0
total_read_with_other.count = 6049778

classified_plus_unclassified_check.count = 6049778
dram_rq_read_total_observed.count = 6049778
dram_rq_read_total_observed.per_1K_instructions = 60.4978

STLB_MISS_PTW_DRAM_TOUCH_BREAKDOWN:
stlb_miss_total.count = 3859362

stlb_miss_touch_dram.count = 1477245
stlb_miss_touch_dram.share = 38.28%

stlb_miss_no_dram_touch.count = 2382117
stlb_miss_no_dram_touch.share = 61.72%

STLB_MISS_PTW_DRAM_TOUCH_DEBUG:
stlb_miss_touch_plus_no_touch.count = 3859362
stlb_miss_total_check.count = 3859362

======STLB miss causes ========
Core_0_STLB_miss_cause_breakdown
Core_0_STLB_cause_Demand_Data_miss 3855399
Core_0_STLB_cause_Demand_Data_miss_rate 0.967675
Core_0_STLB_cause_Demand_Instruction_miss 0
Core_0_STLB_cause_Demand_Instruction_miss_rate 0
Core_0_STLB_cause_L1D_Prefetch_miss 4484
Core_0_STLB_cause_L1D_Prefetch_miss_rate 0.00112545
Core_0_STLB_cause_L1D_Prefetch_Same_Page_miss 0
Core_0_STLB_cause_L1D_Prefetch_Same_Page_miss_rate 0
Core_0_STLB_cause_L1D_Prefetch_Cross_Page_miss 4484
Core_0_STLB_cause_L1D_Prefetch_Cross_Page_miss_rate 0.00112545
Core_0_STLB_cause_L1I_Prefetch_miss 0
Core_0_STLB_cause_L1I_Prefetch_miss_rate 0
Core_0_STLB_cause_Other_miss 0
Core_0_STLB_cause_Other_miss_rate 0
Core_0_STLB_Demand_miss 3855399
Core_0_STLB_Demand_miss_rate 0.967675
Core_0_STLB_L1D_Prefetch_miss 4484
Core_0_STLB_L1D_Prefetch_miss_rate 0.00112545
Core_0_STLB_Other_miss 0
Core_0_STLB_Other_miss_rate 0

========== vBerti-TLB Cross-page Flow Stats ==========

Core_0_vBerti_Requested 2357375
Core_0_vBerti_Cross_page_prefetch_in_Requested 285818
Core_0_vBerti_Same_page_prefetch_in_Requested 2071557
Core_0_vBerti_Cross_page_prefetch_of_Requested 0.121244
Core_0_vBerti_Issued 2067871
Core_0_vBerti_PQ_Drop_Rate 0.122808
Core_0_vBerti_InPQ_Cross_page_prefetch_of_Requested 0.0933814
Core_0_vBerti_Cross_page_PQ_Drop_rate 0.229807
Core_0_vBerti_Cross_page_prefetch_of_Issued 0.106455

========= DTLB_vBerti Prefetch Stats =========
Core_0_DTLB_demand_access 11215123
Core_0_DTLB_demand_hit 7034212
Core_0_DTLB_demand_miss 4180911
Core_0_DTLB_demand_mshr_merge 201583
Core_0_DTLB_demand_fill 3979333
Core_0_DTLB_demand_miss_rate 0.372792
Core_0_DTLB_demand_mpki 41.8091
Core_0_DTLB_vberti_prefetch_access 1587629
Core_0_DTLB_vberti_prefetch_hit 1580924
Core_0_DTLB_vberti_prefetch_miss 6705
Core_0_DTLB_vberti_prefetch_mshr_merge 1845
Core_0_DTLB_vberti_prefetch_fill 4860
Core_0_DTLB_vberti_prefetch_miss_rate 0.00422328
Core_0_DTLB_vberti_prefetch_mpki 0.06705

=== DTLB_vBerti Same/Cross-page Prefetch Stats ===
Core_0_DTLB_vberti_same_page_prefetch 1404041
Core_0_DTLB_vberti_same_page_prefetch_hit 1404041
Core_0_DTLB_vberti_same_page_prefetch_miss 0
Core_0_DTLB_vberti_same_page_prefetch_mshr_merge 0
Core_0_DTLB_vberti_same_page_prefetch_fill 0
Core_0_DTLB_vberti_same_page_prefetch_miss_rate 0
Core_0_DTLB_vberti_same_page_prefetch_mpki 0
Core_0_DTLB_vberti_cross_page_prefetch 183588
Core_0_DTLB_vberti_cross_page_prefetch_hit 176883
Core_0_DTLB_vberti_cross_page_prefetch_miss 6705
Core_0_DTLB_vberti_cross_page_prefetch_mshr_merge 1845
Core_0_DTLB_vberti_cross_page_prefetch_fill 4860
Core_0_DTLB_vberti_cross_page_prefetch_miss_rate 0.036522
Core_0_DTLB_vberti_cross_page_prefetch_mpki 0.06705
Core_0_DTLB_same_page_prefetch_miss_rate 0
Core_0_DTLB_same_page_prefetch_mpki 0
Core_0_DTLB_cross_page_prefetch_miss_rate 0.036522
Core_0_DTLB_cross_page_prefetch_mpki 0.06705
Core_0_DTLB_cross_page_prefetch_issued 183588
Core_0_DTLB_cross_page_prefetch_lookups 183588
Core_0_DTLB_cross_page_prefetch_useful 809
Core_0_DTLB_cross_page_prefetch_useless 4051
Core_0_DTLB_cross_page_prefetch_late 0
Core_0_DTLB_cross_page_prefetch_too_early 362
Core_0_DTLB_cross_page_prefetch_too_early_among_fill 0.0744856
Core_0_DTLB_cross_page_prefetch_too_early_among_useless 0.0893607
Core_0_DTLB_cross_page_prefetch_pollution_evict 2217
Core_0_DTLB_cross_page_prefetch_pollution_demand 2217
Core_0_DTLB_cross_page_prefetch_pollution_among_prefetch_fill 0.456173
Core_0_DTLB_cross_page_prefetch_accuracy 0.00440661
Core_0_DTLB_cross_page_prefetch_coverage 0.000193461

========= STLB_vBerti Prefetch Stats =========
Core_0_STLB_demand_access 3979328
Core_0_STLB_demand_hit 123929
Core_0_STLB_demand_miss 3855399
Core_0_STLB_demand_mshr_merge 0
Core_0_STLB_demand_fill 3855404
Core_0_STLB_demand_miss_rate 0.968857
Core_0_STLB_demand_mpki 38.554
Core_0_STLB_vberti_prefetch_access 4860
Core_0_STLB_vberti_prefetch_hit 376
Core_0_STLB_vberti_prefetch_miss 4484
Core_0_STLB_vberti_prefetch_mshr_merge 0
Core_0_STLB_vberti_prefetch_fill 0
Core_0_STLB_vberti_prefetch_miss_rate 0.922634
Core_0_STLB_vberti_prefetch_mpki 0.04484

=== STLB_vBerti Same/Cross-page Prefetch Stats ===
Core_0_STLB_vberti_same_page_prefetch 0
Core_0_STLB_vberti_same_page_prefetch_hit 0
Core_0_STLB_vberti_same_page_prefetch_miss 0
Core_0_STLB_vberti_same_page_prefetch_mshr_merge 0
Core_0_STLB_vberti_same_page_prefetch_fill 0
Core_0_STLB_vberti_same_page_prefetch_miss_rate 0
Core_0_STLB_vberti_same_page_prefetch_mpki 0
Core_0_STLB_vberti_cross_page_prefetch 4860
Core_0_STLB_vberti_cross_page_prefetch_hit 376
Core_0_STLB_vberti_cross_page_prefetch_miss 4484
Core_0_STLB_vberti_cross_page_prefetch_mshr_merge 0
Core_0_STLB_vberti_cross_page_prefetch_fill 0
Core_0_STLB_vberti_cross_page_prefetch_miss_rate 0.922634
Core_0_STLB_vberti_cross_page_prefetch_mpki 0.04484
Core_0_STLB_same_page_prefetch_miss_rate 0
Core_0_STLB_same_page_prefetch_mpki 0
Core_0_STLB_cross_page_prefetch_miss_rate 0.922634
Core_0_STLB_cross_page_prefetch_mpki 0.04484
Core_0_STLB_cross_page_prefetch_issued 4860
Core_0_STLB_cross_page_prefetch_lookups 4860
Core_0_STLB_cross_page_prefetch_useful 521
Core_0_STLB_cross_page_prefetch_useless 3065
Core_0_STLB_cross_page_prefetch_late 521
Core_0_STLB_cross_page_prefetch_too_early 0
Core_0_STLB_cross_page_prefetch_too_early_among_fill 0
Core_0_STLB_cross_page_prefetch_too_early_among_useless 0
Core_0_STLB_cross_page_prefetch_pollution_evict 0
Core_0_STLB_cross_page_prefetch_pollution_demand 0
Core_0_STLB_cross_page_prefetch_pollution_among_prefetch_fill 0
Core_0_STLB_cross_page_prefetch_accuracy 0.107202
Core_0_STLB_cross_page_prefetch_coverage 0.000135117

========= STLB Cross-page Prefetch Buffer Stats =========
Core_0_STLB_raw_demand_miss 3855399
Core_0_CP_PB_insert 4484
Core_0_CP_PB_demand_hit 521
Core_0_STLB_PB_demand_miss 3854878
Core_0_CP_PB_coverage 0.000135135
Core_0_STLB_raw_demand_mpki 38.554
Core_0_STLB_PB_demand_mpki 38.5488
Core_0_CP_PB_demand_hit_mpki 0.00521

Core_0_TLB_demand_miss_rate 0.343768
Core_0_TLB_demand_mpki 38.554
Core_0_TLB_same_page_prefetch_miss_rate 0
Core_0_TLB_same_page_prefetch_mpki 0
Core_0_TLB_cross_page_prefetch_miss_rate 0.0244243
Core_0_TLB_cross_page_prefetch_mpki 0.04484
Core_0_TLB_cross_page_prefetch_issued 183588
Core_0_TLB_cross_page_prefetch_lookups 183588
Core_0_TLB_cross_page_prefetch_useful 9
Core_0_TLB_cross_page_prefetch_useless 3123
Core_0_TLB_cross_page_prefetch_late 0
Core_0_TLB_cross_page_prefetch_too_early 23
Core_0_TLB_cross_page_prefetch_too_early_among_fill 0.00473251
Core_0_TLB_cross_page_prefetch_too_early_among_useless 0.00736471
Core_0_TLB_cross_page_prefetch_accuracy 4.90228e-05
Core_0_TLB_cross_page_prefetch_coverage 2.33438e-06
BERTI TO_L1: 1441818 TO_L2: 1620733 TO_L2_BC_MSHR: 0
BERTI AVG_LAT: 119.708 NUM_TRACK_LATENCY: 9086134 NUM_CANT_TRACK_LATENCY: 0
BERTI CROSS_PAGE 305371 NO_CROSS_PAGE: 2757180
BERTI FOUND_BERTI: 12505280 NO_FOUND_BERTI: 3980812
BERTI AVERAGE_ISSUED: 2.92831
