[VMEM] WARNING: physical memory size is smaller than virtual memory size.

*** ChampSim Multicore Out-of-Order Simulator ***
Warmup Instructions: 50000000
Simulation Instructions: 100000000
Number of CPUs: 1
Page size: 4096
Core 0: /data2/zcq/champsim_traces_xsbench/xs.XL64nuclide-355B.champsimtrace.xz
VBerti Prefetcher
BERTI HASH ENTANGLING
BERTI IP MASK ffff
Off-chip DRAM Size: 16 GiB Channels: 1 Width: 64-bit Data Rate: 3205 MT/s
Warmup halting CPU 0 at instruction 50000003 cycle 34000389 for remainder of phase
Warmup finished CPU 0 instructions: 50000003 cycles: 34000389 cumulative IPC: 1.471 (Simulation time: 00 hr 06 min 15 sec)
Warmup complete CPU 0 instructions: 50000003 cycles: 34000389 cumulative IPC: 1.471 (Simulation time: 00 hr 06 min 15 sec)
Simulation finished CPU 0 instructions: 100000000 cycles: 645061064 cumulative IPC: 0.155 (Simulation time: 00 hr 45 min 53 sec)
Simulation complete CPU 0 instructions: 100000000 cycles: 645061064 cumulative IPC: 0.155 (Simulation time: 00 hr 45 min 53 sec)

ChampSim completed all CPUs

=== Simulation ===
CPU 0 runs /data2/zcq/champsim_traces_xsbench/xs.XL64nuclide-355B.champsimtrace.xz

Region of Interest Statistics

CPU 0 cumulative IPC: 0.155 instructions: 100000000 cycles: 645061064
CPU 0 Branch Prediction Accuracy: 87.18% MPKI: 21.44 Average ROB Occupancy at Mispredict: 25.88
Branch type MPKI
BRANCH_DIRECT_JUMP: 0
BRANCH_INDIRECT: 0
BRANCH_CONDITIONAL: 21.44
BRANCH_DIRECT_CALL: 0
BRANCH_INDIRECT_CALL: 0
BRANCH_RETURN: 0

cpu0->cpu0_STLB TOTAL        ACCESS:    3803731 HIT:     129699 MISS:    3674032 MSHR_MERGE:          0
cpu0->cpu0_STLB LOAD         ACCESS:    3803731 HIT:     129699 MISS:    3674032 MSHR_MERGE:          0
cpu0->cpu0_STLB RFO          ACCESS:          0 HIT:          0 MISS:          0 MSHR_MERGE:          0
cpu0->cpu0_STLB PREFETCH     ACCESS:          0 HIT:          0 MISS:          0 MSHR_MERGE:          0
cpu0->cpu0_STLB WRITE        ACCESS:          0 HIT:          0 MISS:          0 MSHR_MERGE:          0
cpu0->cpu0_STLB TRANSLATION  ACCESS:          0 HIT:          0 MISS:          0 MSHR_MERGE:          0
cpu0->cpu0_STLB PREFETCH REQUESTED:          0 ISSUED:          0 USEFUL:          0 USELESS:          0 LATE:          0 TOO_EARLY:          0
cpu0->cpu0_STLB AVERAGE MISS LATENCY: 146.2 cycles
cpu0->cpu0_L2C TOTAL        ACCESS:   10042351 HIT:    1482837 MISS:    8559514 MSHR_MERGE:       8264
cpu0->cpu0_L2C LOAD         ACCESS:    5878298 HIT:     254492 MISS:    5623806 MSHR_MERGE:        113
cpu0->cpu0_L2C RFO          ACCESS:       9964 HIT:       9964 MISS:          0 MSHR_MERGE:          0
cpu0->cpu0_L2C PREFETCH     ACCESS:    1242297 HIT:     986595 MISS:     255702 MSHR_MERGE:       8151
cpu0->cpu0_L2C WRITE        ACCESS:      19373 HIT:      19357 MISS:         16 MSHR_MERGE:          0
cpu0->cpu0_L2C TRANSLATION  ACCESS:    2892419 HIT:     212429 MISS:    2679990 MSHR_MERGE:          0
cpu0->cpu0_L2C PREFETCH REQUESTED:     323269 ISSUED:     323269 USEFUL:      14045 USELESS:     161363 LATE:        113 TOO_EARLY:        186
cpu0->cpu0_L2C AVERAGE MISS LATENCY: 146.3 cycles
cpu0->cpu0_L1I TOTAL        ACCESS:      21825 HIT:      21825 MISS:          0 MSHR_MERGE:          0
cpu0->cpu0_L1I LOAD         ACCESS:      21825 HIT:      21825 MISS:          0 MSHR_MERGE:          0
cpu0->cpu0_L1I RFO          ACCESS:          0 HIT:          0 MISS:          0 MSHR_MERGE:          0
cpu0->cpu0_L1I PREFETCH     ACCESS:          0 HIT:          0 MISS:          0 MSHR_MERGE:          0
cpu0->cpu0_L1I WRITE        ACCESS:          0 HIT:          0 MISS:          0 MSHR_MERGE:          0
cpu0->cpu0_L1I TRANSLATION  ACCESS:          0 HIT:          0 MISS:          0 MSHR_MERGE:          0
cpu0->cpu0_L1I PREFETCH REQUESTED:          0 ISSUED:          0 USEFUL:          0 USELESS:          0 LATE:          0 TOO_EARLY:          0
cpu0->cpu0_L1I AVERAGE MISS LATENCY: - cycles
cpu0->cpu0_L1D TOTAL        ACCESS:   21525899 HIT:   10371575 MISS:   11154324 MSHR_MERGE:    1454582
cpu0->cpu0_L1D LOAD         ACCESS:    9618947 HIT:    3630962 MISS:    5987985 MSHR_MERGE:     109687
cpu0->cpu0_L1D RFO          ACCESS:          0 HIT:          0 MISS:          0 MSHR_MERGE:          0
cpu0->cpu0_L1D PREFETCH     ACCESS:    2190210 HIT:    1271181 MISS:     919029 MSHR_MERGE:          1
cpu0->cpu0_L1D WRITE        ACCESS:    1890359 HIT:    1840210 MISS:      50149 MSHR_MERGE:      40152
cpu0->cpu0_L1D TRANSLATION  ACCESS:    7826383 HIT:    3629222 MISS:    4197161 MSHR_MERGE:    1304742
cpu0->cpu0_L1D PREFETCH REQUESTED:    2463984 ISSUED:    2190210 USEFUL:      41837 USELESS:      47907 LATE:        679 TOO_EARLY:       1987
cpu0->cpu0_L1D AVERAGE MISS LATENCY: 147.4 cycles
cpu0->cpu0_ITLB TOTAL        ACCESS:      17728 HIT:      17728 MISS:          0 MSHR_MERGE:          0
cpu0->cpu0_ITLB LOAD         ACCESS:      17728 HIT:      17728 MISS:          0 MSHR_MERGE:          0
cpu0->cpu0_ITLB RFO          ACCESS:          0 HIT:          0 MISS:          0 MSHR_MERGE:          0
cpu0->cpu0_ITLB PREFETCH     ACCESS:          0 HIT:          0 MISS:          0 MSHR_MERGE:          0
cpu0->cpu0_ITLB WRITE        ACCESS:          0 HIT:          0 MISS:          0 MSHR_MERGE:          0
cpu0->cpu0_ITLB TRANSLATION  ACCESS:          0 HIT:          0 MISS:          0 MSHR_MERGE:          0
cpu0->cpu0_ITLB PREFETCH REQUESTED:          0 ISSUED:          0 USEFUL:          0 USELESS:          0 LATE:          0 TOO_EARLY:          0
cpu0->cpu0_ITLB AVERAGE MISS LATENCY: - cycles
cpu0->cpu0_DTLB TOTAL        ACCESS:   13008573 HIT:    8988556 MISS:    4020017 MSHR_MERGE:     216286
cpu0->cpu0_DTLB LOAD         ACCESS:   13008573 HIT:    8988556 MISS:    4020017 MSHR_MERGE:     216286
cpu0->cpu0_DTLB RFO          ACCESS:          0 HIT:          0 MISS:          0 MSHR_MERGE:          0
cpu0->cpu0_DTLB PREFETCH     ACCESS:          0 HIT:          0 MISS:          0 MSHR_MERGE:          0
cpu0->cpu0_DTLB WRITE        ACCESS:          0 HIT:          0 MISS:          0 MSHR_MERGE:          0
cpu0->cpu0_DTLB TRANSLATION  ACCESS:          0 HIT:          0 MISS:          0 MSHR_MERGE:          0
cpu0->cpu0_DTLB PREFETCH REQUESTED:          0 ISSUED:          0 USEFUL:          0 USELESS:          0 LATE:          0 TOO_EARLY:          0
cpu0->cpu0_DTLB AVERAGE MISS LATENCY: 147.2 cycles
cpu0->LLC TOTAL        ACCESS:    8554853 HIT:    2976792 MISS:    5578061 MSHR_MERGE:          0
cpu0->LLC LOAD         ACCESS:    5623693 HIT:    1371067 MISS:    4252626 MSHR_MERGE:          0
cpu0->LLC RFO          ACCESS:          0 HIT:          0 MISS:          0 MSHR_MERGE:          0
cpu0->LLC PREFETCH     ACCESS:     247551 HIT:      81403 MISS:     166148 MSHR_MERGE:          0
cpu0->LLC WRITE        ACCESS:       3619 HIT:       3607 MISS:         12 MSHR_MERGE:          0
cpu0->LLC TRANSLATION  ACCESS:    2679990 HIT:    1520715 MISS:    1159275 MSHR_MERGE:          0
cpu0->LLC PREFETCH REQUESTED:          0 ISSUED:          0 USEFUL:          0 USELESS:          0 LATE:          0 TOO_EARLY:          0
cpu0->LLC AVERAGE MISS LATENCY: 200.5 cycles

DRAM Statistics

Channel 0 RQ ROW_BUFFER_HIT:      57743
  ROW_BUFFER_MISS:    5520306
  AVG DBUS CONGESTED CYCLE: 2.938
Channel 0 WQ ROW_BUFFER_HIT:          4
  ROW_BUFFER_MISS:          9
  FULL:          0
Channel 0 REFRESHES ISSUED:      53755

[ROI Statistics]
[System Configuration]
num_cpus 1
cpu_freq 4000
fetch_width 6
decode_width 6
dispatch_width 6
execute_width 6
lq_width 2
sq_width 2
retire_width 6
scheduler_size 128
branch_mispredict_penalty 15
rob_size 352
lq_size 128
sq_size 72
ifetch_buffer_size 64
decode_buffer_size 32
dispatch_buffer_size 32
register_file_size 288
decode_latency 1
dispatch_latency 1
schedule_latency 1
execute_latency 1
page_size 4096
block_size 64
core_0_itlb_set 16
core_0_itlb_way 4
core_0_itlb_rq_size 16
core_0_itlb_wq_size 16
core_0_itlb_pq_size 0
core_0_itlb_mshr_size 8
core_0_itlb_hit_latency 1
core_0_itlb_fill_latency 1
core_0_itlb_max_tag_check 2
core_0_itlb_max_fill 2
core_0_dtlb_set 16
core_0_dtlb_way 4
core_0_dtlb_rq_size 16
core_0_dtlb_wq_size 16
core_0_dtlb_pq_size 0
core_0_dtlb_mshr_size 8
core_0_dtlb_hit_latency 1
core_0_dtlb_fill_latency 1
core_0_dtlb_max_tag_check 2
core_0_dtlb_max_fill 2
core_0_stlb_set 128
core_0_stlb_way 12
core_0_stlb_rq_size 32
core_0_stlb_wq_size 32
core_0_stlb_pq_size 0
core_0_stlb_mshr_size 16
core_0_stlb_hit_latency 4
core_0_stlb_fill_latency 4
core_0_stlb_max_tag_check 1
core_0_stlb_max_fill 1
core_0_l1i_set 64
core_0_l1i_way 8
core_0_l1i_rq_size 64
core_0_l1i_wq_size 64
core_0_l1i_pq_size 32
core_0_l1i_mshr_size 8
core_0_l1i_hit_latency 2
core_0_l1i_fill_latency 2
core_0_l1i_max_tag_check 2
core_0_l1i_max_fill 2
core_0_l1d_set 64
core_0_l1d_way 12
core_0_l1d_rq_size 64
core_0_l1d_wq_size 64
core_0_l1d_pq_size 8
core_0_l1d_mshr_size 16
core_0_l1d_hit_latency 2
core_0_l1d_fill_latency 3
core_0_l1d_max_tag_check 2
core_0_l1d_max_fill 2
core_0_l2c_set 1024
core_0_l2c_way 8
core_0_l2c_rq_size 32
core_0_l2c_wq_size 32
core_0_l2c_pq_size 16
core_0_l2c_mshr_size 32
core_0_l2c_hit_latency 5
core_0_l2c_fill_latency 5
core_0_l2c_max_tag_check 1
core_0_l2c_max_fill 1
llc_set 2048
llc_way 16
llc_rq_size 32
llc_wq_size 32
llc_pq_size 32
llc_mshr_size 64
llc_hit_latency 10
llc_fill_latency 10
llc_max_tag_check 1
llc_max_fill 1
dram_channels 1
dram_ranks 1
dram_bankgroups 8
dram_banks 4
dram_rows 65536
dram_columns 1024
dram_channel_width 8
dram_rq_size 64
dram_wq_size 64
dram_size 17179869184
core_0_itlb_prefetcher no
core_0_dtlb_prefetcher no
core_0_stlb_prefetcher no
core_0_l1i_prefetcher next_line
core_0_l1d_prefetcher vberti
core_0_l2c_prefetcher ip_stride
llc_prefetcher no
llc_replacement drrip

Core_0_instructions 100000000
Core_0_cycles 645061064
Core_0_IPC 0.155024
Core_0_branch_prediction_accuracy 87.1805
Core_0_branch_MPKI 21.4373
Core_0_average_ROB_occupancy_at_mispredict 25.8797

Core_0_ITLB_total_access 17728
Core_0_ITLB_total_hit 17728
Core_0_ITLB_total_miss 0
Core_0_ITLB_total_MPKI 0
Core_0_ITLB_total_miss_rate 0
Core_0_ITLB_demand_access 17728
Core_0_ITLB_demand_hit 17728
Core_0_ITLB_demand_miss 0
Core_0_ITLB_demand_MPKI 0
Core_0_ITLB_demand_miss_rate 0
Core_0_ITLB_load_access 17728
Core_0_ITLB_load_hit 17728
Core_0_ITLB_load_miss 0
Core_0_ITLB_load_MPKI 0
Core_0_ITLB_load_miss_rate 0
Core_0_ITLB_rfo_access 0
Core_0_ITLB_rfo_hit 0
Core_0_ITLB_rfo_miss 0
Core_0_ITLB_rfo_MPKI 0
Core_0_ITLB_rfo_miss_rate 0
Core_0_ITLB_prefetch_access 0
Core_0_ITLB_prefetch_hit 0
Core_0_ITLB_prefetch_miss 0
Core_0_ITLB_prefetch_MPKI 0
Core_0_ITLB_prefetch_miss_rate 0
Core_0_ITLB_writeback_access 0
Core_0_ITLB_writeback_hit 0
Core_0_ITLB_writeback_miss 0
Core_0_ITLB_writeback_MPKI 0
Core_0_ITLB_writeback_miss_rate 0
Core_0_ITLB_prefetch_requested 0
Core_0_ITLB_prefetch_issued 0
Core_0_ITLB_prefetch_useful 0
Core_0_ITLB_prefetch_useless 0
Core_0_ITLB_prefetch_late 0
Core_0_ITLB_prefetch_fill 0
Core_0_ITLB_prefetch_too_early 0
Core_0_ITLB_prefetch_too_early_among_fill 0
Core_0_ITLB_prefetch_too_early_among_useless 0
Core_0_ITLB_prefetch_pollution_evict 0
Core_0_ITLB_prefetch_pollution_demand 0
Core_0_ITLB_prefetch_pollution_among_prefetch_fill 0
Core_0_ITLB_prefetch_accuracy 0
Core_0_ITLB_prefetch_coverage 0

Core_0_DTLB_total_access 13008573
Core_0_DTLB_total_hit 8988556
Core_0_DTLB_total_miss 4020017
Core_0_DTLB_total_MPKI 40.2002
Core_0_DTLB_total_miss_rate 0.309028
Core_0_DTLB_demand_access 13008573
Core_0_DTLB_demand_hit 8988556
Core_0_DTLB_demand_miss 4020017
Core_0_DTLB_demand_MPKI 40.2002
Core_0_DTLB_demand_miss_rate 0.309028
Core_0_DTLB_load_access 13008573
Core_0_DTLB_load_hit 8988556
Core_0_DTLB_load_miss 4020017
Core_0_DTLB_load_MPKI 40.2002
Core_0_DTLB_load_miss_rate 0.309028
Core_0_DTLB_rfo_access 0
Core_0_DTLB_rfo_hit 0
Core_0_DTLB_rfo_miss 0
Core_0_DTLB_rfo_MPKI 0
Core_0_DTLB_rfo_miss_rate 0
Core_0_DTLB_prefetch_access 0
Core_0_DTLB_prefetch_hit 0
Core_0_DTLB_prefetch_miss 0
Core_0_DTLB_prefetch_MPKI 0
Core_0_DTLB_prefetch_miss_rate 0
Core_0_DTLB_writeback_access 0
Core_0_DTLB_writeback_hit 0
Core_0_DTLB_writeback_miss 0
Core_0_DTLB_writeback_MPKI 0
Core_0_DTLB_writeback_miss_rate 0
Core_0_DTLB_prefetch_requested 0
Core_0_DTLB_prefetch_issued 0
Core_0_DTLB_prefetch_useful 0
Core_0_DTLB_prefetch_useless 0
Core_0_DTLB_prefetch_late 0
Core_0_DTLB_prefetch_fill 0
Core_0_DTLB_prefetch_too_early 0
Core_0_DTLB_prefetch_too_early_among_fill 0
Core_0_DTLB_prefetch_too_early_among_useless 0
Core_0_DTLB_prefetch_pollution_evict 0
Core_0_DTLB_prefetch_pollution_demand 0
Core_0_DTLB_prefetch_pollution_among_prefetch_fill 0
Core_0_DTLB_prefetch_accuracy 0
Core_0_DTLB_prefetch_coverage 0

Core_0_STLB_total_access 3803731
Core_0_STLB_total_hit 129699
Core_0_STLB_total_miss 3674032
Core_0_STLB_total_MPKI 36.7403
Core_0_STLB_total_miss_rate 0.965902
Core_0_STLB_demand_access 3803731
Core_0_STLB_demand_hit 129699
Core_0_STLB_demand_miss 3674032
Core_0_STLB_demand_MPKI 36.7403
Core_0_STLB_demand_miss_rate 0.965902
Core_0_STLB_load_access 3803731
Core_0_STLB_load_hit 129699
Core_0_STLB_load_miss 3674032
Core_0_STLB_load_MPKI 36.7403
Core_0_STLB_load_miss_rate 0.965902
Core_0_STLB_rfo_access 0
Core_0_STLB_rfo_hit 0
Core_0_STLB_rfo_miss 0
Core_0_STLB_rfo_MPKI 0
Core_0_STLB_rfo_miss_rate 0
Core_0_STLB_prefetch_access 0
Core_0_STLB_prefetch_hit 0
Core_0_STLB_prefetch_miss 0
Core_0_STLB_prefetch_MPKI 0
Core_0_STLB_prefetch_miss_rate 0
Core_0_STLB_writeback_access 0
Core_0_STLB_writeback_hit 0
Core_0_STLB_writeback_miss 0
Core_0_STLB_writeback_MPKI 0
Core_0_STLB_writeback_miss_rate 0
Core_0_STLB_prefetch_requested 0
Core_0_STLB_prefetch_issued 0
Core_0_STLB_prefetch_useful 0
Core_0_STLB_prefetch_useless 0
Core_0_STLB_prefetch_late 0
Core_0_STLB_prefetch_fill 0
Core_0_STLB_prefetch_too_early 0
Core_0_STLB_prefetch_too_early_among_fill 0
Core_0_STLB_prefetch_too_early_among_useless 0
Core_0_STLB_prefetch_pollution_evict 0
Core_0_STLB_prefetch_pollution_demand 0
Core_0_STLB_prefetch_pollution_among_prefetch_fill 0
Core_0_STLB_prefetch_accuracy 0
Core_0_STLB_prefetch_coverage 0

Core_0_L1I_total_access 21825
Core_0_L1I_total_hit 21825
Core_0_L1I_total_miss 0
Core_0_L1I_total_MPKI 0
Core_0_L1I_total_miss_rate 0
Core_0_L1I_demand_access 21825
Core_0_L1I_demand_hit 21825
Core_0_L1I_demand_miss 0
Core_0_L1I_demand_MPKI 0
Core_0_L1I_demand_miss_rate 0
Core_0_L1I_load_access 21825
Core_0_L1I_load_hit 21825
Core_0_L1I_load_miss 0
Core_0_L1I_load_MPKI 0
Core_0_L1I_load_miss_rate 0
Core_0_L1I_rfo_access 0
Core_0_L1I_rfo_hit 0
Core_0_L1I_rfo_miss 0
Core_0_L1I_rfo_MPKI 0
Core_0_L1I_rfo_miss_rate 0
Core_0_L1I_prefetch_access 0
Core_0_L1I_prefetch_hit 0
Core_0_L1I_prefetch_miss 0
Core_0_L1I_prefetch_MPKI 0
Core_0_L1I_prefetch_miss_rate 0
Core_0_L1I_writeback_access 0
Core_0_L1I_writeback_hit 0
Core_0_L1I_writeback_miss 0
Core_0_L1I_writeback_MPKI 0
Core_0_L1I_writeback_miss_rate 0
Core_0_L1I_prefetch_requested 0
Core_0_L1I_prefetch_issued 0
Core_0_L1I_prefetch_useful 0
Core_0_L1I_prefetch_useless 0
Core_0_L1I_prefetch_late 0
Core_0_L1I_prefetch_fill 0
Core_0_L1I_prefetch_too_early 0
Core_0_L1I_prefetch_too_early_among_fill 0
Core_0_L1I_prefetch_too_early_among_useless 0
Core_0_L1I_prefetch_pollution_evict 0
Core_0_L1I_prefetch_pollution_demand 0
Core_0_L1I_prefetch_pollution_among_prefetch_fill 0
Core_0_L1I_prefetch_accuracy 0
Core_0_L1I_prefetch_coverage 0

Core_0_L1D_total_access 13699516
Core_0_L1D_total_hit 6742353
Core_0_L1D_total_miss 6957163
Core_0_L1D_total_MPKI 69.5716
Core_0_L1D_total_miss_rate 0.50784
Core_0_L1D_demand_access 9618947
Core_0_L1D_demand_hit 3630962
Core_0_L1D_demand_miss 5987985
Core_0_L1D_demand_MPKI 59.8798
Core_0_L1D_demand_miss_rate 0.62252
Core_0_L1D_load_access 9618947
Core_0_L1D_load_hit 3630962
Core_0_L1D_load_miss 5987985
Core_0_L1D_load_MPKI 59.8798
Core_0_L1D_load_miss_rate 0.62252
Core_0_L1D_rfo_access 0
Core_0_L1D_rfo_hit 0
Core_0_L1D_rfo_miss 0
Core_0_L1D_rfo_MPKI 0
Core_0_L1D_rfo_miss_rate 0
Core_0_L1D_prefetch_access 2190210
Core_0_L1D_prefetch_hit 1271181
Core_0_L1D_prefetch_miss 919029
Core_0_L1D_prefetch_MPKI 9.19029
Core_0_L1D_prefetch_miss_rate 0.419608
Core_0_L1D_writeback_access 1890359
Core_0_L1D_writeback_hit 1840210
Core_0_L1D_writeback_miss 50149
Core_0_L1D_writeback_MPKI 0.50149
Core_0_L1D_writeback_miss_rate 0.0265288
Core_0_L1D_prefetch_requested 2463984
Core_0_L1D_prefetch_issued 2190210
Core_0_L1D_prefetch_useful 41837
Core_0_L1D_prefetch_useless 47907
Core_0_L1D_prefetch_late 679
Core_0_L1D_prefetch_fill 89069
Core_0_L1D_prefetch_too_early 1987
Core_0_L1D_prefetch_too_early_among_fill 0.0223085
Core_0_L1D_prefetch_too_early_among_useless 0.0414762
Core_0_L1D_prefetch_pollution_evict 15250
Core_0_L1D_prefetch_pollution_demand 15239
Core_0_L1D_prefetch_pollution_among_prefetch_fill 0.171216
Core_0_L1D_prefetch_accuracy 0.0191018
Core_0_L1D_prefetch_coverage 0.00693835

Core_0_L2C_total_access 7149932
Core_0_L2C_total_hit 1270408
Core_0_L2C_total_miss 5879524
Core_0_L2C_total_MPKI 58.7952
Core_0_L2C_total_miss_rate 0.822319
Core_0_L2C_demand_access 5888262
Core_0_L2C_demand_hit 264456
Core_0_L2C_demand_miss 5623806
Core_0_L2C_demand_MPKI 56.2381
Core_0_L2C_demand_miss_rate 0.955088
Core_0_L2C_load_access 5878298
Core_0_L2C_load_hit 254492
Core_0_L2C_load_miss 5623806
Core_0_L2C_load_MPKI 56.2381
Core_0_L2C_load_miss_rate 0.956707
Core_0_L2C_rfo_access 9964
Core_0_L2C_rfo_hit 9964
Core_0_L2C_rfo_miss 0
Core_0_L2C_rfo_MPKI 0
Core_0_L2C_rfo_miss_rate 0
Core_0_L2C_prefetch_access 1242297
Core_0_L2C_prefetch_hit 986595
Core_0_L2C_prefetch_miss 255702
Core_0_L2C_prefetch_MPKI 2.55702
Core_0_L2C_prefetch_miss_rate 0.20583
Core_0_L2C_writeback_access 19373
Core_0_L2C_writeback_hit 19357
Core_0_L2C_writeback_miss 16
Core_0_L2C_writeback_MPKI 0.00016
Core_0_L2C_writeback_miss_rate 0.000825892
Core_0_L2C_prefetch_requested 323269
Core_0_L2C_prefetch_issued 323269
Core_0_L2C_prefetch_useful 14045
Core_0_L2C_prefetch_useless 161363
Core_0_L2C_prefetch_late 113
Core_0_L2C_prefetch_fill 247438
Core_0_L2C_prefetch_too_early 186
Core_0_L2C_prefetch_too_early_among_fill 0.000751703
Core_0_L2C_prefetch_too_early_among_useless 0.00115268
Core_0_L2C_prefetch_pollution_evict 53367
Core_0_L2C_prefetch_pollution_demand 53362
Core_0_L2C_prefetch_pollution_among_prefetch_fill 0.215678
Core_0_L2C_prefetch_accuracy 0.0434468
Core_0_L2C_prefetch_coverage 0.0024912

Core_0_LLC_total_access 5874863
Core_0_LLC_total_hit 1456077
Core_0_LLC_total_miss 4418786
Core_0_LLC_total_MPKI 44.1879
Core_0_LLC_total_miss_rate 0.752151
Core_0_LLC_demand_access 5623693
Core_0_LLC_demand_hit 1371067
Core_0_LLC_demand_miss 4252626
Core_0_LLC_demand_MPKI 42.5263
Core_0_LLC_demand_miss_rate 0.756198
Core_0_LLC_load_access 5623693
Core_0_LLC_load_hit 1371067
Core_0_LLC_load_miss 4252626
Core_0_LLC_load_MPKI 42.5263
Core_0_LLC_load_miss_rate 0.756198
Core_0_LLC_rfo_access 0
Core_0_LLC_rfo_hit 0
Core_0_LLC_rfo_miss 0
Core_0_LLC_rfo_MPKI 0
Core_0_LLC_rfo_miss_rate 0
Core_0_LLC_prefetch_access 247551
Core_0_LLC_prefetch_hit 81403
Core_0_LLC_prefetch_miss 166148
Core_0_LLC_prefetch_MPKI 1.66148
Core_0_LLC_prefetch_miss_rate 0.671167
Core_0_LLC_writeback_access 3619
Core_0_LLC_writeback_hit 3607
Core_0_LLC_writeback_miss 12
Core_0_LLC_writeback_MPKI 0.00012
Core_0_LLC_writeback_miss_rate 0.00331583
Core_0_LLC_prefetch_requested 0
Core_0_LLC_prefetch_issued 0
Core_0_LLC_prefetch_useful 0
Core_0_LLC_prefetch_useless 0
Core_0_LLC_prefetch_late 0
Core_0_LLC_prefetch_fill 166148
Core_0_LLC_prefetch_too_early 0
Core_0_LLC_prefetch_too_early_among_fill 0
Core_0_LLC_prefetch_too_early_among_useless 0
Core_0_LLC_prefetch_pollution_evict 38473
Core_0_LLC_prefetch_pollution_demand 38473
Core_0_LLC_prefetch_pollution_among_prefetch_fill 0.231559
Core_0_LLC_prefetch_accuracy 0
Core_0_LLC_prefetch_coverage 0

[DRAM Statistics]
Channel_0_RQ_row_buffer_hit 57743
Channel_0_RQ_row_buffer_miss 5520306
Channel_0_WQ_row_buffer_hit 4
Channel_0_WQ_row_buffer_miss 9
Channel_0_WQ_full 0
Channel_0_dbus_congested 5918860
DRAM_total_RQ_row_buffer_hit 57743
DRAM_total_RQ_row_buffer_miss 5520306
DRAM_total_WQ_row_buffer_hit 4
DRAM_total_WQ_row_buffer_miss 9
DRAM_total_WQ_full 0
DRAM_total_dbus_congested 5918860
DRAM_avg_congested_cycle 2.93783

====== DRAM_RQ_TRAFFIC ========
DRAM_RQ_READ_TRAFFIC_BREAKDOWN:
data_demand_read.count = 4252626
data_demand_read.share = 76.24%

inst_demand_read.count = 0
inst_demand_read.share = 0.00%

cache_inst_prefetch.count = 0
cache_inst_prefetch.share = 0.00%

cache_data_prefetch.count = 166148
cache_data_prefetch.share = 2.98%

stlb_data_demand.count = 1159275
stlb_data_demand.share = 20.78%

stlb_inst_demand.count = 0
stlb_inst_demand.share = 0.00%

stlb_l1i_pref.count = 0
stlb_l1i_pref.share = 0.00%

stlb_l1d_pref.count = 0
stlb_l1d_pref.share = 0.00%

DRAM_RQ_READ_TRAFFIC_SUMMARY:
cache_demand.count = 4252626
cache_demand.share = 76.24%

cache_prefetch.count = 166148
cache_prefetch.share = 2.98%

stlb_demand.count = 1159275
stlb_demand.share = 20.78%

stlb_prefetch.count = 0
stlb_prefetch.share = 0.00%

DRAM_RQ_READ_TRAFFIC_DEBUG:
total_classified_read.count = 5578049
unclassified_read.count = 0
total_read_with_other.count = 5578049

classified_plus_unclassified_check.count = 5578049
dram_rq_read_total_observed.count = 5578049
dram_rq_read_total_observed.per_1K_instructions = 55.7805

STLB_MISS_PTW_DRAM_TOUCH_BREAKDOWN:
stlb_miss_total.count = 3673503

stlb_miss_touch_dram.count = 1164802
stlb_miss_touch_dram.share = 31.71%

stlb_miss_no_dram_touch.count = 2508701
stlb_miss_no_dram_touch.share = 68.29%

STLB_MISS_PTW_DRAM_TOUCH_DEBUG:
stlb_miss_touch_plus_no_touch.count = 3673503
stlb_miss_total_check.count = 3673503

======STLB miss causes ========
Core_0_STLB_miss_cause_breakdown
Core_0_STLB_cause_Demand_Data_miss 3669176
Core_0_STLB_cause_Demand_Data_miss_rate 0.964626
Core_0_STLB_cause_Demand_Instruction_miss 0
Core_0_STLB_cause_Demand_Instruction_miss_rate 0
Core_0_STLB_cause_L1D_Prefetch_miss 4856
Core_0_STLB_cause_L1D_Prefetch_miss_rate 0.00127664
Core_0_STLB_cause_L1D_Prefetch_Same_Page_miss 0
Core_0_STLB_cause_L1D_Prefetch_Same_Page_miss_rate 0
Core_0_STLB_cause_L1D_Prefetch_Cross_Page_miss 4856
Core_0_STLB_cause_L1D_Prefetch_Cross_Page_miss_rate 0.00127664
Core_0_STLB_cause_L1I_Prefetch_miss 0
Core_0_STLB_cause_L1I_Prefetch_miss_rate 0
Core_0_STLB_cause_Other_miss 0
Core_0_STLB_cause_Other_miss_rate 0
Core_0_STLB_Demand_miss 3669176
Core_0_STLB_Demand_miss_rate 0.964626
Core_0_STLB_L1D_Prefetch_miss 4856
Core_0_STLB_L1D_Prefetch_miss_rate 0.00127664
Core_0_STLB_Other_miss 0
Core_0_STLB_Other_miss_rate 0

========== vBerti-TLB Cross-page Flow Stats ==========

Core_0_vBerti_Requested 2463984
Core_0_vBerti_Cross_page_prefetch_in_Requested 313271
Core_0_vBerti_Same_page_prefetch_in_Requested 2150713
Core_0_vBerti_Cross_page_prefetch_of_Requested 0.12714
Core_0_vBerti_Issued 2190210
Core_0_vBerti_PQ_Drop_Rate 0.11111
Core_0_vBerti_InPQ_Cross_page_prefetch_of_Requested 0.099333
Core_0_vBerti_Cross_page_PQ_Drop_rate 0.218712
Core_0_vBerti_Cross_page_prefetch_of_Issued 0.11175

========= DTLB_vBerti Prefetch Stats =========
Core_0_DTLB_demand_access 11339837
Core_0_DTLB_demand_hit 7327183
Core_0_DTLB_demand_miss 4012654
Core_0_DTLB_demand_mshr_merge 214137
Core_0_DTLB_demand_fill 3798518
Core_0_DTLB_demand_miss_rate 0.353855
Core_0_DTLB_demand_mpki 40.1265
Core_0_DTLB_vberti_prefetch_access 1668736
Core_0_DTLB_vberti_prefetch_hit 1661373
Core_0_DTLB_vberti_prefetch_miss 7363
Core_0_DTLB_vberti_prefetch_mshr_merge 2149
Core_0_DTLB_vberti_prefetch_fill 5214
Core_0_DTLB_vberti_prefetch_miss_rate 0.00441232
Core_0_DTLB_vberti_prefetch_mpki 0.07363

=== DTLB_vBerti Same/Cross-page Prefetch Stats ===
Core_0_DTLB_vberti_same_page_prefetch 1463664
Core_0_DTLB_vberti_same_page_prefetch_hit 1463664
Core_0_DTLB_vberti_same_page_prefetch_miss 0
Core_0_DTLB_vberti_same_page_prefetch_mshr_merge 0
Core_0_DTLB_vberti_same_page_prefetch_fill 0
Core_0_DTLB_vberti_same_page_prefetch_miss_rate 0
Core_0_DTLB_vberti_same_page_prefetch_mpki 0
Core_0_DTLB_vberti_cross_page_prefetch 205072
Core_0_DTLB_vberti_cross_page_prefetch_hit 197709
Core_0_DTLB_vberti_cross_page_prefetch_miss 7363
Core_0_DTLB_vberti_cross_page_prefetch_mshr_merge 2149
Core_0_DTLB_vberti_cross_page_prefetch_fill 5214
Core_0_DTLB_vberti_cross_page_prefetch_miss_rate 0.0359045
Core_0_DTLB_vberti_cross_page_prefetch_mpki 0.07363
Core_0_DTLB_same_page_prefetch_miss_rate 0
Core_0_DTLB_same_page_prefetch_mpki 0
Core_0_DTLB_cross_page_prefetch_miss_rate 0.0359045
Core_0_DTLB_cross_page_prefetch_mpki 0.07363
Core_0_DTLB_cross_page_prefetch_issued 205072
Core_0_DTLB_cross_page_prefetch_lookups 205072
Core_0_DTLB_cross_page_prefetch_useful 847
Core_0_DTLB_cross_page_prefetch_useless 4367
Core_0_DTLB_cross_page_prefetch_late 0
Core_0_DTLB_cross_page_prefetch_too_early 333
Core_0_DTLB_cross_page_prefetch_too_early_among_fill 0.0638665
Core_0_DTLB_cross_page_prefetch_too_early_among_useless 0.0762537
Core_0_DTLB_cross_page_prefetch_pollution_evict 2688
Core_0_DTLB_cross_page_prefetch_pollution_demand 2688
Core_0_DTLB_cross_page_prefetch_pollution_among_prefetch_fill 0.515535
Core_0_DTLB_cross_page_prefetch_accuracy 0.00413026
Core_0_DTLB_cross_page_prefetch_coverage 0.000211038

========= STLB_vBerti Prefetch Stats =========
Core_0_STLB_demand_access 3798517
Core_0_STLB_demand_hit 129341
Core_0_STLB_demand_miss 3669176
Core_0_STLB_demand_mshr_merge 0
Core_0_STLB_demand_fill 3669177
Core_0_STLB_demand_miss_rate 0.96595
Core_0_STLB_demand_mpki 36.6918
Core_0_STLB_vberti_prefetch_access 5214
Core_0_STLB_vberti_prefetch_hit 358
Core_0_STLB_vberti_prefetch_miss 4856
Core_0_STLB_vberti_prefetch_mshr_merge 0
Core_0_STLB_vberti_prefetch_fill 0
Core_0_STLB_vberti_prefetch_miss_rate 0.931339
Core_0_STLB_vberti_prefetch_mpki 0.04856

=== STLB_vBerti Same/Cross-page Prefetch Stats ===
Core_0_STLB_vberti_same_page_prefetch 0
Core_0_STLB_vberti_same_page_prefetch_hit 0
Core_0_STLB_vberti_same_page_prefetch_miss 0
Core_0_STLB_vberti_same_page_prefetch_mshr_merge 0
Core_0_STLB_vberti_same_page_prefetch_fill 0
Core_0_STLB_vberti_same_page_prefetch_miss_rate 0
Core_0_STLB_vberti_same_page_prefetch_mpki 0
Core_0_STLB_vberti_cross_page_prefetch 5214
Core_0_STLB_vberti_cross_page_prefetch_hit 358
Core_0_STLB_vberti_cross_page_prefetch_miss 4856
Core_0_STLB_vberti_cross_page_prefetch_mshr_merge 0
Core_0_STLB_vberti_cross_page_prefetch_fill 0
Core_0_STLB_vberti_cross_page_prefetch_miss_rate 0.931339
Core_0_STLB_vberti_cross_page_prefetch_mpki 0.04856
Core_0_STLB_same_page_prefetch_miss_rate 0
Core_0_STLB_same_page_prefetch_mpki 0
Core_0_STLB_cross_page_prefetch_miss_rate 0.931339
Core_0_STLB_cross_page_prefetch_mpki 0.04856
Core_0_STLB_cross_page_prefetch_issued 5214
Core_0_STLB_cross_page_prefetch_lookups 5214
Core_0_STLB_cross_page_prefetch_useful 529
Core_0_STLB_cross_page_prefetch_useless 3513
Core_0_STLB_cross_page_prefetch_late 529
Core_0_STLB_cross_page_prefetch_too_early 0
Core_0_STLB_cross_page_prefetch_too_early_among_fill 0
Core_0_STLB_cross_page_prefetch_too_early_among_useless 0
Core_0_STLB_cross_page_prefetch_pollution_evict 0
Core_0_STLB_cross_page_prefetch_pollution_demand 0
Core_0_STLB_cross_page_prefetch_pollution_among_prefetch_fill 0
Core_0_STLB_cross_page_prefetch_accuracy 0.101458
Core_0_STLB_cross_page_prefetch_coverage 0.000144153

========= STLB Cross-page Prefetch Buffer Stats =========
Core_0_STLB_raw_demand_miss 3669176
Core_0_CP_PB_insert 4856
Core_0_CP_PB_demand_hit 529
Core_0_STLB_PB_demand_miss 3668647
Core_0_CP_PB_coverage 0.000144174
Core_0_STLB_raw_demand_mpki 36.6918
Core_0_STLB_PB_demand_mpki 36.6865
Core_0_CP_PB_demand_hit_mpki 0.00529

Core_0_TLB_demand_miss_rate 0.323565
Core_0_TLB_demand_mpki 36.6918
Core_0_TLB_same_page_prefetch_miss_rate 0
Core_0_TLB_same_page_prefetch_mpki 0
Core_0_TLB_cross_page_prefetch_miss_rate 0.0236795
Core_0_TLB_cross_page_prefetch_mpki 0.04856
Core_0_TLB_cross_page_prefetch_issued 205072
Core_0_TLB_cross_page_prefetch_lookups 205072
Core_0_TLB_cross_page_prefetch_useful 4
Core_0_TLB_cross_page_prefetch_useless 3657
Core_0_TLB_cross_page_prefetch_late 0
Core_0_TLB_cross_page_prefetch_too_early 108
Core_0_TLB_cross_page_prefetch_too_early_among_fill 0.0207135
Core_0_TLB_cross_page_prefetch_too_early_among_useless 0.0295324
Core_0_TLB_cross_page_prefetch_accuracy 1.95053e-05
Core_0_TLB_cross_page_prefetch_coverage 1.09016e-06
BERTI TO_L1: 1635346 TO_L2: 1560794 TO_L2_BC_MSHR: 0
BERTI AVG_LAT: 115.838 NUM_TRACK_LATENCY: 8933043 NUM_CANT_TRACK_LATENCY: 0
BERTI CROSS_PAGE 335974 NO_CROSS_PAGE: 2860166
BERTI FOUND_BERTI: 12744112 NO_FOUND_BERTI: 3971308
BERTI AVERAGE_ISSUED: 2.85051
