[VMEM] WARNING: physical memory size is smaller than virtual memory size.

*** ChampSim Multicore Out-of-Order Simulator ***
Warmup Instructions: 20000000
Simulation Instructions: 50000000
Number of CPUs: 1
Page size: 4096
Core 0: /data0/tzh/champsim_traces/SPEC17/605.mcf_s-782B.champsimtrace.xz
Off-chip DRAM Size: 16 GiB Channels: 1 Width: 64-bit Data Rate: 3205 MT/s
Warmup halting CPU 0 at instruction 20000004 cycle 7658450 for remainder of phase
Warmup finished CPU 0 instructions: 20000004 cycles: 7658450 cumulative IPC: 2.611 (Simulation time: 00 hr 02 min 24 sec)
Warmup complete CPU 0 instructions: 20000004 cycles: 7658450 cumulative IPC: 2.611 (Simulation time: 00 hr 02 min 24 sec)
Simulation finished CPU 0 instructions: 50000001 cycles: 445143861 cumulative IPC: 0.1123 (Simulation time: 00 hr 32 min 54 sec)
Simulation complete CPU 0 instructions: 50000001 cycles: 445143861 cumulative IPC: 0.1123 (Simulation time: 00 hr 32 min 54 sec)

ChampSim completed all CPUs

=== Simulation ===
CPU 0 runs /data0/tzh/champsim_traces/SPEC17/605.mcf_s-782B.champsimtrace.xz

Region of Interest Statistics

CPU 0 cumulative IPC: 0.1123 instructions: 50000001 cycles: 445143861
CPU 0 Branch Prediction Accuracy: 85.36% MPKI: 44.43 Average ROB Occupancy at Mispredict: 4.177
Branch type MPKI
BRANCH_DIRECT_JUMP: 0.7225
BRANCH_INDIRECT: 0
BRANCH_CONDITIONAL: 43.7
BRANCH_DIRECT_CALL: 2e-05
BRANCH_INDIRECT_CALL: 0.00076
BRANCH_RETURN: 0

cpu0->cpu0_STLB TOTAL        ACCESS:    4336859 HIT:    4278816 MISS:      58043 MSHR_MERGE:          0
cpu0->cpu0_STLB LOAD         ACCESS:    4336859 HIT:    4278816 MISS:      58043 MSHR_MERGE:          0
cpu0->cpu0_STLB RFO          ACCESS:          0 HIT:          0 MISS:          0 MSHR_MERGE:          0
cpu0->cpu0_STLB PREFETCH     ACCESS:          0 HIT:          0 MISS:          0 MSHR_MERGE:          0
cpu0->cpu0_STLB WRITE        ACCESS:          0 HIT:          0 MISS:          0 MSHR_MERGE:          0
cpu0->cpu0_STLB TRANSLATION  ACCESS:          0 HIT:          0 MISS:          0 MSHR_MERGE:          0
cpu0->cpu0_STLB PREFETCH REQUESTED:          0 ISSUED:          0 USEFUL:          0 USELESS:          0 LATE:          0
cpu0->cpu0_STLB AVERAGE MISS LATENCY: 234.7 cycles
cpu0->cpu0_L2C TOTAL        ACCESS:   28238725 HIT:    4642573 MISS:   23596152 MSHR_MERGE:    5427904
cpu0->cpu0_L2C LOAD         ACCESS:    5015685 HIT:     797575 MISS:    4218110 MSHR_MERGE:      13415
cpu0->cpu0_L2C RFO          ACCESS:      11185 HIT:       2796 MISS:       8389 MSHR_MERGE:        100
cpu0->cpu0_L2C PREFETCH     ACCESS:   23046526 HIT:    3696790 MISS:   19349736 MSHR_MERGE:    5414389
cpu0->cpu0_L2C WRITE        ACCESS:     144621 HIT:     144500 MISS:        121 MSHR_MERGE:          0
cpu0->cpu0_L2C TRANSLATION  ACCESS:      20708 HIT:        912 MISS:      19796 MSHR_MERGE:          0
cpu0->cpu0_L2C PREFETCH REQUESTED:   22797723 ISSUED:   16406141 USEFUL:    1274066 USELESS:    8068935 LATE:      13515
cpu0->cpu0_L2C AVERAGE MISS LATENCY: 85.28 cycles
cpu0->cpu0_L1I TOTAL        ACCESS:     613260 HIT:     613260 MISS:          0 MSHR_MERGE:          0
cpu0->cpu0_L1I LOAD         ACCESS:     613260 HIT:     613260 MISS:          0 MSHR_MERGE:          0
cpu0->cpu0_L1I RFO          ACCESS:          0 HIT:          0 MISS:          0 MSHR_MERGE:          0
cpu0->cpu0_L1I PREFETCH     ACCESS:          0 HIT:          0 MISS:          0 MSHR_MERGE:          0
cpu0->cpu0_L1I WRITE        ACCESS:          0 HIT:          0 MISS:          0 MSHR_MERGE:          0
cpu0->cpu0_L1I TRANSLATION  ACCESS:          0 HIT:          0 MISS:          0 MSHR_MERGE:          0
cpu0->cpu0_L1I PREFETCH REQUESTED:          0 ISSUED:          0 USEFUL:          0 USELESS:          0 LATE:          0
cpu0->cpu0_L1I AVERAGE MISS LATENCY: - cycles
cpu0->cpu0_L1D TOTAL        ACCESS:   20503552 HIT:    8418640 MISS:   12084912 MSHR_MERGE:     396970
cpu0->cpu0_L1D LOAD         ACCESS:   12461018 HIT:    7182967 MISS:    5278051 MSHR_MERGE:     262366
cpu0->cpu0_L1D RFO          ACCESS:          0 HIT:          0 MISS:          0 MSHR_MERGE:          0
cpu0->cpu0_L1D PREFETCH     ACCESS:    6926181 HIT:     172736 MISS:    6753445 MSHR_MERGE:     113081
cpu0->cpu0_L1D WRITE        ACCESS:     999848 HIT:     967200 MISS:      32648 MSHR_MERGE:      21463
cpu0->cpu0_L1D TRANSLATION  ACCESS:     116505 HIT:      95737 MISS:      20768 MSHR_MERGE:         60
cpu0->cpu0_L1D PREFETCH REQUESTED:   21329290 ISSUED:    6926172 USEFUL:    2615276 USELESS:    4025058 LATE:      29948
cpu0->cpu0_L1D AVERAGE MISS LATENCY: 80.98 cycles
cpu0->cpu0_ITLB TOTAL        ACCESS:     557988 HIT:     557988 MISS:          0 MSHR_MERGE:          0
cpu0->cpu0_ITLB LOAD         ACCESS:     557988 HIT:     557988 MISS:          0 MSHR_MERGE:          0
cpu0->cpu0_ITLB RFO          ACCESS:          0 HIT:          0 MISS:          0 MSHR_MERGE:          0
cpu0->cpu0_ITLB PREFETCH     ACCESS:          0 HIT:          0 MISS:          0 MSHR_MERGE:          0
cpu0->cpu0_ITLB WRITE        ACCESS:          0 HIT:          0 MISS:          0 MSHR_MERGE:          0
cpu0->cpu0_ITLB TRANSLATION  ACCESS:          0 HIT:          0 MISS:          0 MSHR_MERGE:          0
cpu0->cpu0_ITLB PREFETCH REQUESTED:          0 ISSUED:          0 USEFUL:          0 USELESS:          0 LATE:          0
cpu0->cpu0_ITLB AVERAGE MISS LATENCY: - cycles
cpu0->cpu0_DTLB TOTAL        ACCESS:   18368905 HIT:   13794013 MISS:    4574892 MSHR_MERGE:     238034
cpu0->cpu0_DTLB LOAD         ACCESS:   18368905 HIT:   13794013 MISS:    4574892 MSHR_MERGE:     238034
cpu0->cpu0_DTLB RFO          ACCESS:          0 HIT:          0 MISS:          0 MSHR_MERGE:          0
cpu0->cpu0_DTLB PREFETCH     ACCESS:          0 HIT:          0 MISS:          0 MSHR_MERGE:          0
cpu0->cpu0_DTLB WRITE        ACCESS:          0 HIT:          0 MISS:          0 MSHR_MERGE:          0
cpu0->cpu0_DTLB TRANSLATION  ACCESS:          0 HIT:          0 MISS:          0 MSHR_MERGE:          0
cpu0->cpu0_DTLB PREFETCH REQUESTED:          0 ISSUED:          0 USEFUL:          0 USELESS:          0 LATE:          0
cpu0->cpu0_DTLB AVERAGE MISS LATENCY: 8.154 cycles
cpu0->LLC TOTAL        ACCESS:   18309977 HIT:   10161092 MISS:    8148885 MSHR_MERGE:          0
cpu0->LLC LOAD         ACCESS:    4204695 HIT:    2948454 MISS:    1256241 MSHR_MERGE:          0
cpu0->LLC RFO          ACCESS:       8289 HIT:       6480 MISS:       1809 MSHR_MERGE:          0
cpu0->LLC PREFETCH     ACCESS:   13935347 HIT:    7086210 MISS:    6849137 MSHR_MERGE:          0
cpu0->LLC WRITE        ACCESS:     141850 HIT:     116315 MISS:      25535 MSHR_MERGE:          0
cpu0->LLC TRANSLATION  ACCESS:      19796 HIT:       3633 MISS:      16163 MSHR_MERGE:          0
cpu0->LLC PREFETCH REQUESTED:          0 ISSUED:          0 USEFUL:          0 USELESS:          0 LATE:          0
cpu0->LLC AVERAGE MISS LATENCY: 228.2 cycles

DRAM Statistics

Channel 0 RQ ROW_BUFFER_HIT:     752044
  ROW_BUFFER_MISS:    7371160
  AVG DBUS CONGESTED CYCLE: 4.28
Channel 0 WQ ROW_BUFFER_HIT:      15855
  ROW_BUFFER_MISS:      33087
  FULL:          0
Channel 0 REFRESHES ISSUED:      37095

[ROI Statistics]
[System Configuration]
num_cpus 1
cpu_freq 4000
fetch_width 6
decode_width 6
dispatch_width 6
execute_width 6
lq_width 2
sq_width 2
retire_width 6
scheduler_size 128
branch_mispredict_penalty 15
rob_size 352
lq_size 128
sq_size 72
ifetch_buffer_size 64
decode_buffer_size 32
dispatch_buffer_size 32
register_file_size 288
decode_latency 1
dispatch_latency 1
schedule_latency 1
execute_latency 1
page_size 4096
block_size 64
core_0_itlb_set 16
core_0_itlb_way 4
core_0_itlb_rq_size 16
core_0_itlb_wq_size 16
core_0_itlb_pq_size 0
core_0_itlb_mshr_size 8
core_0_itlb_hit_latency 1
core_0_itlb_fill_latency 1
core_0_itlb_max_tag_check 2
core_0_itlb_max_fill 2
core_0_dtlb_set 16
core_0_dtlb_way 4
core_0_dtlb_rq_size 16
core_0_dtlb_wq_size 16
core_0_dtlb_pq_size 0
core_0_dtlb_mshr_size 8
core_0_dtlb_hit_latency 1
core_0_dtlb_fill_latency 1
core_0_dtlb_max_tag_check 2
core_0_dtlb_max_fill 2
core_0_stlb_set 128
core_0_stlb_way 12
core_0_stlb_rq_size 32
core_0_stlb_wq_size 32
core_0_stlb_pq_size 0
core_0_stlb_mshr_size 16
core_0_stlb_hit_latency 4
core_0_stlb_fill_latency 4
core_0_stlb_max_tag_check 1
core_0_stlb_max_fill 1
core_0_l1i_set 64
core_0_l1i_way 8
core_0_l1i_rq_size 64
core_0_l1i_wq_size 64
core_0_l1i_pq_size 32
core_0_l1i_mshr_size 8
core_0_l1i_hit_latency 2
core_0_l1i_fill_latency 2
core_0_l1i_max_tag_check 2
core_0_l1i_max_fill 2
core_0_l1d_set 64
core_0_l1d_way 12
core_0_l1d_rq_size 64
core_0_l1d_wq_size 64
core_0_l1d_pq_size 8
core_0_l1d_mshr_size 16
core_0_l1d_hit_latency 2
core_0_l1d_fill_latency 3
core_0_l1d_max_tag_check 2
core_0_l1d_max_fill 2
core_0_l2c_set 1024
core_0_l2c_way 8
core_0_l2c_rq_size 32
core_0_l2c_wq_size 32
core_0_l2c_pq_size 16
core_0_l2c_mshr_size 32
core_0_l2c_hit_latency 5
core_0_l2c_fill_latency 5
core_0_l2c_max_tag_check 1
core_0_l2c_max_fill 1
llc_set 2048
llc_way 16
llc_rq_size 32
llc_wq_size 32
llc_pq_size 32
llc_mshr_size 64
llc_hit_latency 10
llc_fill_latency 10
llc_max_tag_check 1
llc_max_fill 1
dram_channels 1
dram_ranks 1
dram_bankgroups 8
dram_banks 4
dram_rows 65536
dram_columns 1024
dram_channel_width 8
dram_rq_size 64
dram_wq_size 64
dram_size 17179869184
core_0_itlb_prefetcher no
core_0_dtlb_prefetcher no
core_0_stlb_prefetcher no
core_0_l1i_prefetcher next_line
core_0_l1d_prefetcher sms
core_0_l2c_prefetcher pythia
llc_prefetcher no
llc_replacement drrip

Core_0_instructions 50000001
Core_0_cycles 445143861
Core_0_IPC 0.112323
Core_0_branch_prediction_accuracy 85.3618
Core_0_branch_MPKI 44.4253
Core_0_average_ROB_occupancy_at_mispredict 4.17697

Core_0_ITLB_total_access 557988
Core_0_ITLB_total_hit 557988
Core_0_ITLB_total_miss 0
Core_0_ITLB_total_MPKI 0
Core_0_ITLB_total_miss_rate 0
Core_0_ITLB_demand_access 557988
Core_0_ITLB_demand_hit 557988
Core_0_ITLB_demand_miss 0
Core_0_ITLB_demand_MPKI 0
Core_0_ITLB_demand_miss_rate 0
Core_0_ITLB_load_access 557988
Core_0_ITLB_load_hit 557988
Core_0_ITLB_load_miss 0
Core_0_ITLB_load_MPKI 0
Core_0_ITLB_load_miss_rate 0
Core_0_ITLB_rfo_access 0
Core_0_ITLB_rfo_hit 0
Core_0_ITLB_rfo_miss 0
Core_0_ITLB_rfo_MPKI 0
Core_0_ITLB_rfo_miss_rate 0
Core_0_ITLB_prefetch_access 0
Core_0_ITLB_prefetch_hit 0
Core_0_ITLB_prefetch_miss 0
Core_0_ITLB_prefetch_MPKI 0
Core_0_ITLB_prefetch_miss_rate 0
Core_0_ITLB_writeback_access 0
Core_0_ITLB_writeback_hit 0
Core_0_ITLB_writeback_miss 0
Core_0_ITLB_writeback_MPKI 0
Core_0_ITLB_writeback_miss_rate 0
Core_0_ITLB_prefetch_requested 0
Core_0_ITLB_prefetch_issued 0
Core_0_ITLB_prefetch_useful 0
Core_0_ITLB_prefetch_useless 0
Core_0_ITLB_prefetch_late 0
Core_0_ITLB_prefetch_accuracy 0
Core_0_ITLB_prefetch_coverage 0

Core_0_DTLB_total_access 18368905
Core_0_DTLB_total_hit 13794013
Core_0_DTLB_total_miss 4574892
Core_0_DTLB_total_MPKI 91.4978
Core_0_DTLB_total_miss_rate 0.249056
Core_0_DTLB_demand_access 18368905
Core_0_DTLB_demand_hit 13794013
Core_0_DTLB_demand_miss 4574892
Core_0_DTLB_demand_MPKI 91.4978
Core_0_DTLB_demand_miss_rate 0.249056
Core_0_DTLB_load_access 18368905
Core_0_DTLB_load_hit 13794013
Core_0_DTLB_load_miss 4574892
Core_0_DTLB_load_MPKI 91.4978
Core_0_DTLB_load_miss_rate 0.249056
Core_0_DTLB_rfo_access 0
Core_0_DTLB_rfo_hit 0
Core_0_DTLB_rfo_miss 0
Core_0_DTLB_rfo_MPKI 0
Core_0_DTLB_rfo_miss_rate 0
Core_0_DTLB_prefetch_access 0
Core_0_DTLB_prefetch_hit 0
Core_0_DTLB_prefetch_miss 0
Core_0_DTLB_prefetch_MPKI 0
Core_0_DTLB_prefetch_miss_rate 0
Core_0_DTLB_writeback_access 0
Core_0_DTLB_writeback_hit 0
Core_0_DTLB_writeback_miss 0
Core_0_DTLB_writeback_MPKI 0
Core_0_DTLB_writeback_miss_rate 0
Core_0_DTLB_prefetch_requested 0
Core_0_DTLB_prefetch_issued 0
Core_0_DTLB_prefetch_useful 0
Core_0_DTLB_prefetch_useless 0
Core_0_DTLB_prefetch_late 0
Core_0_DTLB_prefetch_accuracy 0
Core_0_DTLB_prefetch_coverage 0

Core_0_STLB_total_access 4336859
Core_0_STLB_total_hit 4278816
Core_0_STLB_total_miss 58043
Core_0_STLB_total_MPKI 1.16086
Core_0_STLB_total_miss_rate 0.0133836
Core_0_STLB_demand_access 4336859
Core_0_STLB_demand_hit 4278816
Core_0_STLB_demand_miss 58043
Core_0_STLB_demand_MPKI 1.16086
Core_0_STLB_demand_miss_rate 0.0133836
Core_0_STLB_load_access 4336859
Core_0_STLB_load_hit 4278816
Core_0_STLB_load_miss 58043
Core_0_STLB_load_MPKI 1.16086
Core_0_STLB_load_miss_rate 0.0133836
Core_0_STLB_rfo_access 0
Core_0_STLB_rfo_hit 0
Core_0_STLB_rfo_miss 0
Core_0_STLB_rfo_MPKI 0
Core_0_STLB_rfo_miss_rate 0
Core_0_STLB_prefetch_access 0
Core_0_STLB_prefetch_hit 0
Core_0_STLB_prefetch_miss 0
Core_0_STLB_prefetch_MPKI 0
Core_0_STLB_prefetch_miss_rate 0
Core_0_STLB_writeback_access 0
Core_0_STLB_writeback_hit 0
Core_0_STLB_writeback_miss 0
Core_0_STLB_writeback_MPKI 0
Core_0_STLB_writeback_miss_rate 0
Core_0_STLB_prefetch_requested 0
Core_0_STLB_prefetch_issued 0
Core_0_STLB_prefetch_useful 0
Core_0_STLB_prefetch_useless 0
Core_0_STLB_prefetch_late 0
Core_0_STLB_prefetch_accuracy 0
Core_0_STLB_prefetch_coverage 0

Core_0_L1I_total_access 613260
Core_0_L1I_total_hit 613260
Core_0_L1I_total_miss 0
Core_0_L1I_total_MPKI 0
Core_0_L1I_total_miss_rate 0
Core_0_L1I_demand_access 613260
Core_0_L1I_demand_hit 613260
Core_0_L1I_demand_miss 0
Core_0_L1I_demand_MPKI 0
Core_0_L1I_demand_miss_rate 0
Core_0_L1I_load_access 613260
Core_0_L1I_load_hit 613260
Core_0_L1I_load_miss 0
Core_0_L1I_load_MPKI 0
Core_0_L1I_load_miss_rate 0
Core_0_L1I_rfo_access 0
Core_0_L1I_rfo_hit 0
Core_0_L1I_rfo_miss 0
Core_0_L1I_rfo_MPKI 0
Core_0_L1I_rfo_miss_rate 0
Core_0_L1I_prefetch_access 0
Core_0_L1I_prefetch_hit 0
Core_0_L1I_prefetch_miss 0
Core_0_L1I_prefetch_MPKI 0
Core_0_L1I_prefetch_miss_rate 0
Core_0_L1I_writeback_access 0
Core_0_L1I_writeback_hit 0
Core_0_L1I_writeback_miss 0
Core_0_L1I_writeback_MPKI 0
Core_0_L1I_writeback_miss_rate 0
Core_0_L1I_prefetch_requested 0
Core_0_L1I_prefetch_issued 0
Core_0_L1I_prefetch_useful 0
Core_0_L1I_prefetch_useless 0
Core_0_L1I_prefetch_late 0
Core_0_L1I_prefetch_accuracy 0
Core_0_L1I_prefetch_coverage 0

Core_0_L1D_total_access 20387047
Core_0_L1D_total_hit 8322903
Core_0_L1D_total_miss 12064144
Core_0_L1D_total_MPKI 241.283
Core_0_L1D_total_miss_rate 0.591755
Core_0_L1D_demand_access 12461018
Core_0_L1D_demand_hit 7182967
Core_0_L1D_demand_miss 5278051
Core_0_L1D_demand_MPKI 105.561
Core_0_L1D_demand_miss_rate 0.423565
Core_0_L1D_load_access 12461018
Core_0_L1D_load_hit 7182967
Core_0_L1D_load_miss 5278051
Core_0_L1D_load_MPKI 105.561
Core_0_L1D_load_miss_rate 0.423565
Core_0_L1D_rfo_access 0
Core_0_L1D_rfo_hit 0
Core_0_L1D_rfo_miss 0
Core_0_L1D_rfo_MPKI 0
Core_0_L1D_rfo_miss_rate 0
Core_0_L1D_prefetch_access 6926181
Core_0_L1D_prefetch_hit 172736
Core_0_L1D_prefetch_miss 6753445
Core_0_L1D_prefetch_MPKI 135.069
Core_0_L1D_prefetch_miss_rate 0.97506
Core_0_L1D_writeback_access 999848
Core_0_L1D_writeback_hit 967200
Core_0_L1D_writeback_miss 32648
Core_0_L1D_writeback_MPKI 0.65296
Core_0_L1D_writeback_miss_rate 0.032653
Core_0_L1D_prefetch_requested 21329290
Core_0_L1D_prefetch_issued 6926172
Core_0_L1D_prefetch_useful 2615276
Core_0_L1D_prefetch_useless 4025058
Core_0_L1D_prefetch_late 29948
Core_0_L1D_prefetch_accuracy 0.377593
Core_0_L1D_prefetch_coverage 0.331327

Core_0_L2C_total_access 28218017
Core_0_L2C_total_hit 4641661
Core_0_L2C_total_miss 23576356
Core_0_L2C_total_MPKI 471.527
Core_0_L2C_total_miss_rate 0.835507
Core_0_L2C_demand_access 5026870
Core_0_L2C_demand_hit 800371
Core_0_L2C_demand_miss 4226499
Core_0_L2C_demand_MPKI 84.53
Core_0_L2C_demand_miss_rate 0.840781
Core_0_L2C_load_access 5015685
Core_0_L2C_load_hit 797575
Core_0_L2C_load_miss 4218110
Core_0_L2C_load_MPKI 84.3622
Core_0_L2C_load_miss_rate 0.840984
Core_0_L2C_rfo_access 11185
Core_0_L2C_rfo_hit 2796
Core_0_L2C_rfo_miss 8389
Core_0_L2C_rfo_MPKI 0.16778
Core_0_L2C_rfo_miss_rate 0.750022
Core_0_L2C_prefetch_access 23046526
Core_0_L2C_prefetch_hit 3696790
Core_0_L2C_prefetch_miss 19349736
Core_0_L2C_prefetch_MPKI 386.995
Core_0_L2C_prefetch_miss_rate 0.839594
Core_0_L2C_writeback_access 144621
Core_0_L2C_writeback_hit 144500
Core_0_L2C_writeback_miss 121
Core_0_L2C_writeback_MPKI 0.00242
Core_0_L2C_writeback_miss_rate 0.00083667
Core_0_L2C_prefetch_requested 22797723
Core_0_L2C_prefetch_issued 16406141
Core_0_L2C_prefetch_useful 1274066
Core_0_L2C_prefetch_useless 8068935
Core_0_L2C_prefetch_late 13515
Core_0_L2C_prefetch_accuracy 0.0776579
Core_0_L2C_prefetch_coverage 0.231625

Core_0_LLC_total_access 18290181
Core_0_LLC_total_hit 10157459
Core_0_LLC_total_miss 8132722
Core_0_LLC_total_MPKI 162.654
Core_0_LLC_total_miss_rate 0.44465
Core_0_LLC_demand_access 4212984
Core_0_LLC_demand_hit 2954934
Core_0_LLC_demand_miss 1258050
Core_0_LLC_demand_MPKI 25.161
Core_0_LLC_demand_miss_rate 0.298613
Core_0_LLC_load_access 4204695
Core_0_LLC_load_hit 2948454
Core_0_LLC_load_miss 1256241
Core_0_LLC_load_MPKI 25.1248
Core_0_LLC_load_miss_rate 0.298771
Core_0_LLC_rfo_access 8289
Core_0_LLC_rfo_hit 6480
Core_0_LLC_rfo_miss 1809
Core_0_LLC_rfo_MPKI 0.03618
Core_0_LLC_rfo_miss_rate 0.218241
Core_0_LLC_prefetch_access 13935347
Core_0_LLC_prefetch_hit 7086210
Core_0_LLC_prefetch_miss 6849137
Core_0_LLC_prefetch_MPKI 136.983
Core_0_LLC_prefetch_miss_rate 0.491494
Core_0_LLC_writeback_access 141850
Core_0_LLC_writeback_hit 116315
Core_0_LLC_writeback_miss 25535
Core_0_LLC_writeback_MPKI 0.5107
Core_0_LLC_writeback_miss_rate 0.180014
Core_0_LLC_prefetch_requested 0
Core_0_LLC_prefetch_issued 0
Core_0_LLC_prefetch_useful 0
Core_0_LLC_prefetch_useless 0
Core_0_LLC_prefetch_late 0
Core_0_LLC_prefetch_accuracy 0
Core_0_LLC_prefetch_coverage 0

[DRAM Statistics]
Channel_0_RQ_row_buffer_hit 752044
Channel_0_RQ_row_buffer_miss 7371160
Channel_0_WQ_row_buffer_hit 15855
Channel_0_WQ_row_buffer_miss 33087
Channel_0_WQ_full 0
Channel_0_dbus_congested 16400824
DRAM_total_RQ_row_buffer_hit 752044
DRAM_total_RQ_row_buffer_miss 7371160
DRAM_total_WQ_row_buffer_hit 15855
DRAM_total_WQ_row_buffer_miss 33087
DRAM_total_WQ_full 0
DRAM_total_dbus_congested 16400824
DRAM_avg_congested_cycle 4.28014

====== DRAM_RQ_TRAFFIC ========
DRAM_RQ_READ_TRAFFIC_BREAKDOWN:
data_demand_read.count = 1258050
data_demand_read.share = 15.49%

inst_demand_read.count = 0
inst_demand_read.share = 0.00%

cache_inst_prefetch.count = 0
cache_inst_prefetch.share = 0.00%

cache_data_prefetch.count = 6849137
cache_data_prefetch.share = 84.31%

stlb_data_demand.count = 16163
stlb_data_demand.share = 0.20%

stlb_inst_demand.count = 0
stlb_inst_demand.share = 0.00%

stlb_l1i_pref.count = 0
stlb_l1i_pref.share = 0.00%

stlb_l1d_pref.count = 0
stlb_l1d_pref.share = 0.00%

DRAM_RQ_READ_TRAFFIC_SUMMARY:
cache_demand.count = 1258050
cache_demand.share = 15.49%

cache_prefetch.count = 6849137
cache_prefetch.share = 84.31%

stlb_demand.count = 16163
stlb_demand.share = 0.20%

stlb_prefetch.count = 0
stlb_prefetch.share = 0.00%

DRAM_RQ_READ_TRAFFIC_DEBUG:
total_classified_read.count = 8123350
unclassified_read.count = 0
total_read_with_other.count = 8123350

classified_plus_unclassified_check.count = 8123350
dram_rq_read_total_observed.count = 8123350
dram_rq_read_total_observed.per_1K_instructions = 162.467

STLB_MISS_PTW_DRAM_TOUCH_BREAKDOWN:
stlb_miss_total.count = 58043

stlb_miss_touch_dram.count = 15697
stlb_miss_touch_dram.share = 27.04%

stlb_miss_no_dram_touch.count = 42346
stlb_miss_no_dram_touch.share = 72.96%

STLB_MISS_PTW_DRAM_TOUCH_DEBUG:
stlb_miss_touch_plus_no_touch.count = 58043
stlb_miss_total_check.count = 58043

======STLB miss causes ========
Core_0_STLB_miss_cause_breakdown
Core_0_STLB_cause_Demand_Data_miss 58043
Core_0_STLB_cause_Demand_Data_miss_rate 0.0133836
Core_0_STLB_cause_Demand_Instruction_miss 0
Core_0_STLB_cause_Demand_Instruction_miss_rate 0
Core_0_STLB_cause_L1D_Prefetch_miss 0
Core_0_STLB_cause_L1D_Prefetch_miss_rate 0
Core_0_STLB_cause_L1I_Prefetch_miss 0
Core_0_STLB_cause_L1I_Prefetch_miss_rate 0
Core_0_STLB_cause_Other_miss 0
Core_0_STLB_cause_Other_miss_rate 0
Core_0_STLB_Demand_miss 58043
Core_0_STLB_Demand_miss_rate 0.0133836
Core_0_STLB_L1D_Prefetch_miss 0
Core_0_STLB_L1D_Prefetch_miss_rate 0
Core_0_STLB_Other_miss 0
Core_0_STLB_Other_miss_rate 0
