[VMEM] WARNING: physical memory size is smaller than virtual memory size.

*** ChampSim Multicore Out-of-Order Simulator ***
Warmup Instructions: 20000000
Simulation Instructions: 50000000
Number of CPUs: 1
Page size: 4096
Core 0: /data0/tzh/champsim_traces/SPEC17/605.mcf_s-1644B.champsimtrace.xz
Off-chip DRAM Size: 16 GiB Channels: 1 Width: 64-bit Data Rate: 3205 MT/s
Warmup halting CPU 0 at instruction 20000001 cycle 28245838 for remainder of phase
Warmup finished CPU 0 instructions: 20000001 cycles: 28245838 cumulative IPC: 0.7081 (Simulation time: 00 hr 03 min 33 sec)
Warmup complete CPU 0 instructions: 20000001 cycles: 28245838 cumulative IPC: 0.7081 (Simulation time: 00 hr 03 min 33 sec)
Simulation finished CPU 0 instructions: 50000002 cycles: 256409743 cumulative IPC: 0.195 (Simulation time: 00 hr 33 min 58 sec)
Simulation complete CPU 0 instructions: 50000002 cycles: 256409743 cumulative IPC: 0.195 (Simulation time: 00 hr 33 min 58 sec)

ChampSim completed all CPUs

=== Simulation ===
CPU 0 runs /data0/tzh/champsim_traces/SPEC17/605.mcf_s-1644B.champsimtrace.xz

Region of Interest Statistics

CPU 0 cumulative IPC: 0.195 instructions: 50000002 cycles: 256409743
CPU 0 Branch Prediction Accuracy: 95.08% MPKI: 6.109 Average ROB Occupancy at Mispredict: 109.3
Branch type MPKI
BRANCH_DIRECT_JUMP: 0
BRANCH_INDIRECT: 0
BRANCH_CONDITIONAL: 6.109
BRANCH_DIRECT_CALL: 0
BRANCH_INDIRECT_CALL: 0
BRANCH_RETURN: 0

cpu0->cpu0_STLB TOTAL        ACCESS:    1451471 HIT:     257032 MISS:    1194439 MSHR_MERGE:          0
cpu0->cpu0_STLB LOAD         ACCESS:    1451471 HIT:     257032 MISS:    1194439 MSHR_MERGE:          0
cpu0->cpu0_STLB RFO          ACCESS:          0 HIT:          0 MISS:          0 MSHR_MERGE:          0
cpu0->cpu0_STLB PREFETCH     ACCESS:          0 HIT:          0 MISS:          0 MSHR_MERGE:          0
cpu0->cpu0_STLB WRITE        ACCESS:          0 HIT:          0 MISS:          0 MSHR_MERGE:          0
cpu0->cpu0_STLB TRANSLATION  ACCESS:          0 HIT:          0 MISS:          0 MSHR_MERGE:          0
cpu0->cpu0_STLB PREFETCH REQUESTED:          0 ISSUED:          0 USEFUL:          0 USELESS:          0 LATE:          0
cpu0->cpu0_STLB AVERAGE MISS LATENCY: 365.8 cycles
cpu0->cpu0_L2C TOTAL        ACCESS:   17428318 HIT:    7285882 MISS:   10142436 MSHR_MERGE:    2433758
cpu0->cpu0_L2C LOAD         ACCESS:    1113679 HIT:     350009 MISS:     763670 MSHR_MERGE:       6851
cpu0->cpu0_L2C RFO          ACCESS:    2186864 HIT:        315 MISS:    2186549 MSHR_MERGE:          0
cpu0->cpu0_L2C PREFETCH     ACCESS:    8368565 HIT:    2249510 MISS:    6119055 MSHR_MERGE:    2426907
cpu0->cpu0_L2C WRITE        ACCESS:    4512658 HIT:    4510193 MISS:       2465 MSHR_MERGE:          0
cpu0->cpu0_L2C TRANSLATION  ACCESS:    1246552 HIT:     175855 MISS:    1070697 MSHR_MERGE:          0
cpu0->cpu0_L2C PREFETCH REQUESTED:    8279959 ISSUED:    6356279 USEFUL:    1147358 USELESS:    1632074 LATE:       6851
cpu0->cpu0_L2C AVERAGE MISS LATENCY: 334.7 cycles
cpu0->cpu0_L1I TOTAL        ACCESS:    3014664 HIT:    3014664 MISS:          0 MSHR_MERGE:          0
cpu0->cpu0_L1I LOAD         ACCESS:    3014664 HIT:    3014664 MISS:          0 MSHR_MERGE:          0
cpu0->cpu0_L1I RFO          ACCESS:          0 HIT:          0 MISS:          0 MSHR_MERGE:          0
cpu0->cpu0_L1I PREFETCH     ACCESS:          0 HIT:          0 MISS:          0 MSHR_MERGE:          0
cpu0->cpu0_L1I WRITE        ACCESS:          0 HIT:          0 MISS:          0 MSHR_MERGE:          0
cpu0->cpu0_L1I TRANSLATION  ACCESS:          0 HIT:          0 MISS:          0 MSHR_MERGE:          0
cpu0->cpu0_L1I PREFETCH REQUESTED:          0 ISSUED:          0 USEFUL:          0 USELESS:          0 LATE:          0
cpu0->cpu0_L1I AVERAGE MISS LATENCY: - cycles
cpu0->cpu0_L1D TOTAL        ACCESS:   33969777 HIT:   19612055 MISS:   14357722 MSHR_MERGE:    7798341
cpu0->cpu0_L1D LOAD         ACCESS:   11508234 HIT:   10296100 MISS:    1212134 MSHR_MERGE:      98453
cpu0->cpu0_L1D RFO          ACCESS:          0 HIT:          0 MISS:          0 MSHR_MERGE:          0
cpu0->cpu0_L1D PREFETCH     ACCESS:    2060328 HIT:      12404 MISS:    2047924 MSHR_MERGE:      35646
cpu0->cpu0_L1D WRITE        ACCESS:   17492338 HIT:    7653427 MISS:    9838911 MSHR_MERGE:    7652040
cpu0->cpu0_L1D TRANSLATION  ACCESS:    2908877 HIT:    1650124 MISS:    1258753 MSHR_MERGE:      12202
cpu0->cpu0_L1D PREFETCH REQUESTED:   25625813 ISSUED:    2060320 USEFUL:    1212121 USELESS:     800193 LATE:      32138
cpu0->cpu0_L1D AVERAGE MISS LATENCY: 306.7 cycles
cpu0->cpu0_ITLB TOTAL        ACCESS:    2998603 HIT:    2998603 MISS:          0 MSHR_MERGE:          0
cpu0->cpu0_ITLB LOAD         ACCESS:    2998603 HIT:    2998603 MISS:          0 MSHR_MERGE:          0
cpu0->cpu0_ITLB RFO          ACCESS:          0 HIT:          0 MISS:          0 MSHR_MERGE:          0
cpu0->cpu0_ITLB PREFETCH     ACCESS:          0 HIT:          0 MISS:          0 MSHR_MERGE:          0
cpu0->cpu0_ITLB WRITE        ACCESS:          0 HIT:          0 MISS:          0 MSHR_MERGE:          0
cpu0->cpu0_ITLB TRANSLATION  ACCESS:          0 HIT:          0 MISS:          0 MSHR_MERGE:          0
cpu0->cpu0_ITLB PREFETCH REQUESTED:          0 ISSUED:          0 USEFUL:          0 USELESS:          0 LATE:          0
cpu0->cpu0_ITLB AVERAGE MISS LATENCY: - cycles
cpu0->cpu0_DTLB TOTAL        ACCESS:   28774836 HIT:   19703088 MISS:    9071748 MSHR_MERGE:    7620277
cpu0->cpu0_DTLB LOAD         ACCESS:   28774836 HIT:   19703088 MISS:    9071748 MSHR_MERGE:    7620277
cpu0->cpu0_DTLB RFO          ACCESS:          0 HIT:          0 MISS:          0 MSHR_MERGE:          0
cpu0->cpu0_DTLB PREFETCH     ACCESS:          0 HIT:          0 MISS:          0 MSHR_MERGE:          0
cpu0->cpu0_DTLB WRITE        ACCESS:          0 HIT:          0 MISS:          0 MSHR_MERGE:          0
cpu0->cpu0_DTLB TRANSLATION  ACCESS:          0 HIT:          0 MISS:          0 MSHR_MERGE:          0
cpu0->cpu0_DTLB PREFETCH REQUESTED:          0 ISSUED:          0 USEFUL:          0 USELESS:          0 LATE:          0
cpu0->cpu0_DTLB AVERAGE MISS LATENCY: 306.8 cycles
cpu0->LLC TOTAL        ACCESS:   12036568 HIT:    6658590 MISS:    5377978 MSHR_MERGE:          0
cpu0->LLC LOAD         ACCESS:     756818 HIT:     586570 MISS:     170248 MSHR_MERGE:          0
cpu0->LLC RFO          ACCESS:    2186549 HIT:       2952 MISS:    2183597 MSHR_MERGE:          0
cpu0->LLC PREFETCH     ACCESS:    3692148 HIT:    1977349 MISS:    1714799 MSHR_MERGE:          0
cpu0->LLC WRITE        ACCESS:    4330356 HIT:    3900575 MISS:     429781 MSHR_MERGE:          0
cpu0->LLC TRANSLATION  ACCESS:    1070697 HIT:     191144 MISS:     879553 MSHR_MERGE:          0
cpu0->LLC PREFETCH REQUESTED:          0 ISSUED:          0 USEFUL:          0 USELESS:          0 LATE:          0
cpu0->LLC AVERAGE MISS LATENCY: 350.7 cycles

DRAM Statistics

Channel 0 RQ ROW_BUFFER_HIT:     227584
  ROW_BUFFER_MISS:    4719440
  AVG DBUS CONGESTED CYCLE: 6.962
Channel 0 WQ ROW_BUFFER_HIT:     505078
  ROW_BUFFER_MISS:    3119746
  FULL:          0
Channel 0 REFRESHES ISSUED:      21368

[ROI Statistics]
[System Configuration]
num_cpus 1
cpu_freq 4000
fetch_width 6
decode_width 6
dispatch_width 6
execute_width 6
lq_width 2
sq_width 2
retire_width 6
scheduler_size 128
branch_mispredict_penalty 15
rob_size 352
lq_size 128
sq_size 72
ifetch_buffer_size 64
decode_buffer_size 32
dispatch_buffer_size 32
register_file_size 288
decode_latency 1
dispatch_latency 1
schedule_latency 1
execute_latency 1
page_size 4096
block_size 64
core_0_itlb_set 16
core_0_itlb_way 4
core_0_itlb_rq_size 16
core_0_itlb_wq_size 16
core_0_itlb_pq_size 0
core_0_itlb_mshr_size 8
core_0_itlb_hit_latency 1
core_0_itlb_fill_latency 1
core_0_itlb_max_tag_check 2
core_0_itlb_max_fill 2
core_0_dtlb_set 16
core_0_dtlb_way 4
core_0_dtlb_rq_size 16
core_0_dtlb_wq_size 16
core_0_dtlb_pq_size 0
core_0_dtlb_mshr_size 8
core_0_dtlb_hit_latency 1
core_0_dtlb_fill_latency 1
core_0_dtlb_max_tag_check 2
core_0_dtlb_max_fill 2
core_0_stlb_set 128
core_0_stlb_way 12
core_0_stlb_rq_size 32
core_0_stlb_wq_size 32
core_0_stlb_pq_size 0
core_0_stlb_mshr_size 16
core_0_stlb_hit_latency 4
core_0_stlb_fill_latency 4
core_0_stlb_max_tag_check 1
core_0_stlb_max_fill 1
core_0_l1i_set 64
core_0_l1i_way 8
core_0_l1i_rq_size 64
core_0_l1i_wq_size 64
core_0_l1i_pq_size 32
core_0_l1i_mshr_size 8
core_0_l1i_hit_latency 2
core_0_l1i_fill_latency 2
core_0_l1i_max_tag_check 2
core_0_l1i_max_fill 2
core_0_l1d_set 64
core_0_l1d_way 12
core_0_l1d_rq_size 64
core_0_l1d_wq_size 64
core_0_l1d_pq_size 8
core_0_l1d_mshr_size 16
core_0_l1d_hit_latency 2
core_0_l1d_fill_latency 3
core_0_l1d_max_tag_check 2
core_0_l1d_max_fill 2
core_0_l2c_set 1024
core_0_l2c_way 8
core_0_l2c_rq_size 32
core_0_l2c_wq_size 32
core_0_l2c_pq_size 16
core_0_l2c_mshr_size 32
core_0_l2c_hit_latency 5
core_0_l2c_fill_latency 5
core_0_l2c_max_tag_check 1
core_0_l2c_max_fill 1
llc_set 2048
llc_way 16
llc_rq_size 32
llc_wq_size 32
llc_pq_size 32
llc_mshr_size 64
llc_hit_latency 10
llc_fill_latency 10
llc_max_tag_check 1
llc_max_fill 1
dram_channels 1
dram_ranks 1
dram_bankgroups 8
dram_banks 4
dram_rows 65536
dram_columns 1024
dram_channel_width 8
dram_rq_size 64
dram_wq_size 64
dram_size 17179869184
core_0_itlb_prefetcher no
core_0_dtlb_prefetcher no
core_0_stlb_prefetcher no
core_0_l1i_prefetcher next_line
core_0_l1d_prefetcher sms
core_0_l2c_prefetcher pythia
llc_prefetcher no
llc_replacement drrip

Core_0_instructions 50000002
Core_0_cycles 256409743
Core_0_IPC 0.195
Core_0_branch_prediction_accuracy 95.0839
Core_0_branch_MPKI 6.10944
Core_0_average_ROB_occupancy_at_mispredict 109.26

Core_0_ITLB_total_access 2998603
Core_0_ITLB_total_hit 2998603
Core_0_ITLB_total_miss 0
Core_0_ITLB_total_MPKI 0
Core_0_ITLB_total_miss_rate 0
Core_0_ITLB_demand_access 2998603
Core_0_ITLB_demand_hit 2998603
Core_0_ITLB_demand_miss 0
Core_0_ITLB_demand_MPKI 0
Core_0_ITLB_demand_miss_rate 0
Core_0_ITLB_load_access 2998603
Core_0_ITLB_load_hit 2998603
Core_0_ITLB_load_miss 0
Core_0_ITLB_load_MPKI 0
Core_0_ITLB_load_miss_rate 0
Core_0_ITLB_rfo_access 0
Core_0_ITLB_rfo_hit 0
Core_0_ITLB_rfo_miss 0
Core_0_ITLB_rfo_MPKI 0
Core_0_ITLB_rfo_miss_rate 0
Core_0_ITLB_prefetch_access 0
Core_0_ITLB_prefetch_hit 0
Core_0_ITLB_prefetch_miss 0
Core_0_ITLB_prefetch_MPKI 0
Core_0_ITLB_prefetch_miss_rate 0
Core_0_ITLB_writeback_access 0
Core_0_ITLB_writeback_hit 0
Core_0_ITLB_writeback_miss 0
Core_0_ITLB_writeback_MPKI 0
Core_0_ITLB_writeback_miss_rate 0
Core_0_ITLB_prefetch_requested 0
Core_0_ITLB_prefetch_issued 0
Core_0_ITLB_prefetch_useful 0
Core_0_ITLB_prefetch_useless 0
Core_0_ITLB_prefetch_late 0
Core_0_ITLB_prefetch_accuracy 0
Core_0_ITLB_prefetch_coverage 0

Core_0_DTLB_total_access 28774836
Core_0_DTLB_total_hit 19703088
Core_0_DTLB_total_miss 9071748
Core_0_DTLB_total_MPKI 181.435
Core_0_DTLB_total_miss_rate 0.315267
Core_0_DTLB_demand_access 28774836
Core_0_DTLB_demand_hit 19703088
Core_0_DTLB_demand_miss 9071748
Core_0_DTLB_demand_MPKI 181.435
Core_0_DTLB_demand_miss_rate 0.315267
Core_0_DTLB_load_access 28774836
Core_0_DTLB_load_hit 19703088
Core_0_DTLB_load_miss 9071748
Core_0_DTLB_load_MPKI 181.435
Core_0_DTLB_load_miss_rate 0.315267
Core_0_DTLB_rfo_access 0
Core_0_DTLB_rfo_hit 0
Core_0_DTLB_rfo_miss 0
Core_0_DTLB_rfo_MPKI 0
Core_0_DTLB_rfo_miss_rate 0
Core_0_DTLB_prefetch_access 0
Core_0_DTLB_prefetch_hit 0
Core_0_DTLB_prefetch_miss 0
Core_0_DTLB_prefetch_MPKI 0
Core_0_DTLB_prefetch_miss_rate 0
Core_0_DTLB_writeback_access 0
Core_0_DTLB_writeback_hit 0
Core_0_DTLB_writeback_miss 0
Core_0_DTLB_writeback_MPKI 0
Core_0_DTLB_writeback_miss_rate 0
Core_0_DTLB_prefetch_requested 0
Core_0_DTLB_prefetch_issued 0
Core_0_DTLB_prefetch_useful 0
Core_0_DTLB_prefetch_useless 0
Core_0_DTLB_prefetch_late 0
Core_0_DTLB_prefetch_accuracy 0
Core_0_DTLB_prefetch_coverage 0

Core_0_STLB_total_access 1451471
Core_0_STLB_total_hit 257032
Core_0_STLB_total_miss 1194439
Core_0_STLB_total_MPKI 23.8888
Core_0_STLB_total_miss_rate 0.822916
Core_0_STLB_demand_access 1451471
Core_0_STLB_demand_hit 257032
Core_0_STLB_demand_miss 1194439
Core_0_STLB_demand_MPKI 23.8888
Core_0_STLB_demand_miss_rate 0.822916
Core_0_STLB_load_access 1451471
Core_0_STLB_load_hit 257032
Core_0_STLB_load_miss 1194439
Core_0_STLB_load_MPKI 23.8888
Core_0_STLB_load_miss_rate 0.822916
Core_0_STLB_rfo_access 0
Core_0_STLB_rfo_hit 0
Core_0_STLB_rfo_miss 0
Core_0_STLB_rfo_MPKI 0
Core_0_STLB_rfo_miss_rate 0
Core_0_STLB_prefetch_access 0
Core_0_STLB_prefetch_hit 0
Core_0_STLB_prefetch_miss 0
Core_0_STLB_prefetch_MPKI 0
Core_0_STLB_prefetch_miss_rate 0
Core_0_STLB_writeback_access 0
Core_0_STLB_writeback_hit 0
Core_0_STLB_writeback_miss 0
Core_0_STLB_writeback_MPKI 0
Core_0_STLB_writeback_miss_rate 0
Core_0_STLB_prefetch_requested 0
Core_0_STLB_prefetch_issued 0
Core_0_STLB_prefetch_useful 0
Core_0_STLB_prefetch_useless 0
Core_0_STLB_prefetch_late 0
Core_0_STLB_prefetch_accuracy 0
Core_0_STLB_prefetch_coverage 0

Core_0_L1I_total_access 3014664
Core_0_L1I_total_hit 3014664
Core_0_L1I_total_miss 0
Core_0_L1I_total_MPKI 0
Core_0_L1I_total_miss_rate 0
Core_0_L1I_demand_access 3014664
Core_0_L1I_demand_hit 3014664
Core_0_L1I_demand_miss 0
Core_0_L1I_demand_MPKI 0
Core_0_L1I_demand_miss_rate 0
Core_0_L1I_load_access 3014664
Core_0_L1I_load_hit 3014664
Core_0_L1I_load_miss 0
Core_0_L1I_load_MPKI 0
Core_0_L1I_load_miss_rate 0
Core_0_L1I_rfo_access 0
Core_0_L1I_rfo_hit 0
Core_0_L1I_rfo_miss 0
Core_0_L1I_rfo_MPKI 0
Core_0_L1I_rfo_miss_rate 0
Core_0_L1I_prefetch_access 0
Core_0_L1I_prefetch_hit 0
Core_0_L1I_prefetch_miss 0
Core_0_L1I_prefetch_MPKI 0
Core_0_L1I_prefetch_miss_rate 0
Core_0_L1I_writeback_access 0
Core_0_L1I_writeback_hit 0
Core_0_L1I_writeback_miss 0
Core_0_L1I_writeback_MPKI 0
Core_0_L1I_writeback_miss_rate 0
Core_0_L1I_prefetch_requested 0
Core_0_L1I_prefetch_issued 0
Core_0_L1I_prefetch_useful 0
Core_0_L1I_prefetch_useless 0
Core_0_L1I_prefetch_late 0
Core_0_L1I_prefetch_accuracy 0
Core_0_L1I_prefetch_coverage 0

Core_0_L1D_total_access 31060900
Core_0_L1D_total_hit 17961931
Core_0_L1D_total_miss 13098969
Core_0_L1D_total_MPKI 261.979
Core_0_L1D_total_miss_rate 0.421719
Core_0_L1D_demand_access 11508234
Core_0_L1D_demand_hit 10296100
Core_0_L1D_demand_miss 1212134
Core_0_L1D_demand_MPKI 24.2427
Core_0_L1D_demand_miss_rate 0.105328
Core_0_L1D_load_access 11508234
Core_0_L1D_load_hit 10296100
Core_0_L1D_load_miss 1212134
Core_0_L1D_load_MPKI 24.2427
Core_0_L1D_load_miss_rate 0.105328
Core_0_L1D_rfo_access 0
Core_0_L1D_rfo_hit 0
Core_0_L1D_rfo_miss 0
Core_0_L1D_rfo_MPKI 0
Core_0_L1D_rfo_miss_rate 0
Core_0_L1D_prefetch_access 2060328
Core_0_L1D_prefetch_hit 12404
Core_0_L1D_prefetch_miss 2047924
Core_0_L1D_prefetch_MPKI 40.9585
Core_0_L1D_prefetch_miss_rate 0.99398
Core_0_L1D_writeback_access 17492338
Core_0_L1D_writeback_hit 7653427
Core_0_L1D_writeback_miss 9838911
Core_0_L1D_writeback_MPKI 196.778
Core_0_L1D_writeback_miss_rate 0.56247
Core_0_L1D_prefetch_requested 25625813
Core_0_L1D_prefetch_issued 2060320
Core_0_L1D_prefetch_useful 1212121
Core_0_L1D_prefetch_useless 800193
Core_0_L1D_prefetch_late 32138
Core_0_L1D_prefetch_accuracy 0.588317
Core_0_L1D_prefetch_coverage 0.499997

Core_0_L2C_total_access 16181766
Core_0_L2C_total_hit 7110027
Core_0_L2C_total_miss 9071739
Core_0_L2C_total_MPKI 181.435
Core_0_L2C_total_miss_rate 0.560615
Core_0_L2C_demand_access 3300543
Core_0_L2C_demand_hit 350324
Core_0_L2C_demand_miss 2950219
Core_0_L2C_demand_MPKI 59.0044
Core_0_L2C_demand_miss_rate 0.893859
Core_0_L2C_load_access 1113679
Core_0_L2C_load_hit 350009
Core_0_L2C_load_miss 763670
Core_0_L2C_load_MPKI 15.2734
Core_0_L2C_load_miss_rate 0.685718
Core_0_L2C_rfo_access 2186864
Core_0_L2C_rfo_hit 315
Core_0_L2C_rfo_miss 2186549
Core_0_L2C_rfo_MPKI 43.731
Core_0_L2C_rfo_miss_rate 0.999856
Core_0_L2C_prefetch_access 8368565
Core_0_L2C_prefetch_hit 2249510
Core_0_L2C_prefetch_miss 6119055
Core_0_L2C_prefetch_MPKI 122.381
Core_0_L2C_prefetch_miss_rate 0.731195
Core_0_L2C_writeback_access 4512658
Core_0_L2C_writeback_hit 4510193
Core_0_L2C_writeback_miss 2465
Core_0_L2C_writeback_MPKI 0.0493
Core_0_L2C_writeback_miss_rate 0.000546241
Core_0_L2C_prefetch_requested 8279959
Core_0_L2C_prefetch_issued 6356279
Core_0_L2C_prefetch_useful 1147358
Core_0_L2C_prefetch_useless 1632074
Core_0_L2C_prefetch_late 6851
Core_0_L2C_prefetch_accuracy 0.180508
Core_0_L2C_prefetch_coverage 0.280009

Core_0_LLC_total_access 10965871
Core_0_LLC_total_hit 6467446
Core_0_LLC_total_miss 4498425
Core_0_LLC_total_MPKI 89.9685
Core_0_LLC_total_miss_rate 0.41022
Core_0_LLC_demand_access 2943367
Core_0_LLC_demand_hit 589522
Core_0_LLC_demand_miss 2353845
Core_0_LLC_demand_MPKI 47.0769
Core_0_LLC_demand_miss_rate 0.799712
Core_0_LLC_load_access 756818
Core_0_LLC_load_hit 586570
Core_0_LLC_load_miss 170248
Core_0_LLC_load_MPKI 3.40496
Core_0_LLC_load_miss_rate 0.224952
Core_0_LLC_rfo_access 2186549
Core_0_LLC_rfo_hit 2952
Core_0_LLC_rfo_miss 2183597
Core_0_LLC_rfo_MPKI 43.6719
Core_0_LLC_rfo_miss_rate 0.99865
Core_0_LLC_prefetch_access 3692148
Core_0_LLC_prefetch_hit 1977349
Core_0_LLC_prefetch_miss 1714799
Core_0_LLC_prefetch_MPKI 34.296
Core_0_LLC_prefetch_miss_rate 0.464445
Core_0_LLC_writeback_access 4330356
Core_0_LLC_writeback_hit 3900575
Core_0_LLC_writeback_miss 429781
Core_0_LLC_writeback_MPKI 8.59562
Core_0_LLC_writeback_miss_rate 0.0992484
Core_0_LLC_prefetch_requested 0
Core_0_LLC_prefetch_issued 0
Core_0_LLC_prefetch_useful 0
Core_0_LLC_prefetch_useless 0
Core_0_LLC_prefetch_late 0
Core_0_LLC_prefetch_accuracy 0
Core_0_LLC_prefetch_coverage 0

[DRAM Statistics]
Channel_0_RQ_row_buffer_hit 227584
Channel_0_RQ_row_buffer_miss 4719440
Channel_0_WQ_row_buffer_hit 505078
Channel_0_WQ_row_buffer_miss 3119746
Channel_0_WQ_full 0
Channel_0_dbus_congested 29219449
DRAM_total_RQ_row_buffer_hit 227584
DRAM_total_RQ_row_buffer_miss 4719440
DRAM_total_WQ_row_buffer_hit 505078
DRAM_total_WQ_row_buffer_miss 3119746
DRAM_total_WQ_full 0
DRAM_total_dbus_congested 29219449
DRAM_avg_congested_cycle 6.96219

====== DRAM_RQ_TRAFFIC ========
DRAM_RQ_READ_TRAFFIC_BREAKDOWN:
data_demand_read.count = 2353845
data_demand_read.share = 47.57%

inst_demand_read.count = 0
inst_demand_read.share = 0.00%

cache_inst_prefetch.count = 0
cache_inst_prefetch.share = 0.00%

cache_data_prefetch.count = 1714799
cache_data_prefetch.share = 34.66%

stlb_data_demand.count = 879553
stlb_data_demand.share = 17.78%

stlb_inst_demand.count = 0
stlb_inst_demand.share = 0.00%

stlb_l1i_pref.count = 0
stlb_l1i_pref.share = 0.00%

stlb_l1d_pref.count = 0
stlb_l1d_pref.share = 0.00%

DRAM_RQ_READ_TRAFFIC_SUMMARY:
cache_demand.count = 2353845
cache_demand.share = 47.57%

cache_prefetch.count = 1714799
cache_prefetch.share = 34.66%

stlb_demand.count = 879553
stlb_demand.share = 17.78%

stlb_prefetch.count = 0
stlb_prefetch.share = 0.00%

DRAM_RQ_READ_TRAFFIC_DEBUG:
total_classified_read.count = 4948197
unclassified_read.count = 0
total_read_with_other.count = 4948197

classified_plus_unclassified_check.count = 4948197
dram_rq_read_total_observed.count = 4948197
dram_rq_read_total_observed.per_1K_instructions = 98.9639

STLB_MISS_PTW_DRAM_TOUCH_BREAKDOWN:
stlb_miss_total.count = 1194438

stlb_miss_touch_dram.count = 879490
stlb_miss_touch_dram.share = 73.63%

stlb_miss_no_dram_touch.count = 314948
stlb_miss_no_dram_touch.share = 26.37%

STLB_MISS_PTW_DRAM_TOUCH_DEBUG:
stlb_miss_touch_plus_no_touch.count = 1194438
stlb_miss_total_check.count = 1194438

======STLB miss causes ========
Core_0_STLB_miss_cause_breakdown
Core_0_STLB_cause_Demand_Data_miss 1194439
Core_0_STLB_cause_Demand_Data_miss_rate 0.822916
Core_0_STLB_cause_Demand_Instruction_miss 0
Core_0_STLB_cause_Demand_Instruction_miss_rate 0
Core_0_STLB_cause_L1D_Prefetch_miss 0
Core_0_STLB_cause_L1D_Prefetch_miss_rate 0
Core_0_STLB_cause_L1I_Prefetch_miss 0
Core_0_STLB_cause_L1I_Prefetch_miss_rate 0
Core_0_STLB_cause_Other_miss 0
Core_0_STLB_cause_Other_miss_rate 0
Core_0_STLB_Demand_miss 1194439
Core_0_STLB_Demand_miss_rate 0.822916
Core_0_STLB_L1D_Prefetch_miss 0
Core_0_STLB_L1D_Prefetch_miss_rate 0
Core_0_STLB_Other_miss 0
Core_0_STLB_Other_miss_rate 0
