[VMEM] WARNING: physical memory size is smaller than virtual memory size.

*** ChampSim Multicore Out-of-Order Simulator ***
Warmup Instructions: 20000000
Simulation Instructions: 50000000
Number of CPUs: 1
Page size: 4096
Core 0: /data0/tzh/champsim_traces/SPEC17/605.mcf_s-994B.champsimtrace.xz
Off-chip DRAM Size: 16 GiB Channels: 1 Width: 64-bit Data Rate: 3205 MT/s
Warmup halting CPU 0 at instruction 20000005 cycle 5263416 for remainder of phase
Warmup finished CPU 0 instructions: 20000005 cycles: 5263416 cumulative IPC: 3.8 (Simulation time: 00 hr 01 min 22 sec)
Warmup complete CPU 0 instructions: 20000005 cycles: 5263416 cumulative IPC: 3.8 (Simulation time: 00 hr 01 min 22 sec)
Simulation finished CPU 0 instructions: 50000000 cycles: 166515124 cumulative IPC: 0.3003 (Simulation time: 00 hr 16 min 26 sec)
Simulation complete CPU 0 instructions: 50000000 cycles: 166515124 cumulative IPC: 0.3003 (Simulation time: 00 hr 16 min 26 sec)

ChampSim completed all CPUs

=== Simulation ===
CPU 0 runs /data0/tzh/champsim_traces/SPEC17/605.mcf_s-994B.champsimtrace.xz

Region of Interest Statistics

CPU 0 cumulative IPC: 0.3003 instructions: 50000000 cycles: 166515124
CPU 0 Branch Prediction Accuracy: 94.39% MPKI: 14.14 Average ROB Occupancy at Mispredict: 49.31
Branch type MPKI
BRANCH_DIRECT_JUMP: 0.1366
BRANCH_INDIRECT: 0
BRANCH_CONDITIONAL: 14
BRANCH_DIRECT_CALL: 0
BRANCH_INDIRECT_CALL: 0.00264
BRANCH_RETURN: 4e-05

cpu0->cpu0_STLB TOTAL        ACCESS:     807516 HIT:     367048 MISS:     440468 MSHR_MERGE:          0
cpu0->cpu0_STLB LOAD         ACCESS:     807516 HIT:     367048 MISS:     440468 MSHR_MERGE:          0
cpu0->cpu0_STLB RFO          ACCESS:          0 HIT:          0 MISS:          0 MSHR_MERGE:          0
cpu0->cpu0_STLB PREFETCH     ACCESS:          0 HIT:          0 MISS:          0 MSHR_MERGE:          0
cpu0->cpu0_STLB WRITE        ACCESS:          0 HIT:          0 MISS:          0 MSHR_MERGE:          0
cpu0->cpu0_STLB TRANSLATION  ACCESS:          0 HIT:          0 MISS:          0 MSHR_MERGE:          0
cpu0->cpu0_STLB PREFETCH REQUESTED:          0 ISSUED:          0 USEFUL:          0 USELESS:          0 LATE:          0
cpu0->cpu0_STLB AVERAGE MISS LATENCY: 157.4 cycles
cpu0->cpu0_L2C TOTAL        ACCESS:    7041971 HIT:    2021172 MISS:    5020799 MSHR_MERGE:    1267649
cpu0->cpu0_L2C LOAD         ACCESS:    1641313 HIT:     471108 MISS:    1170205 MSHR_MERGE:      68311
cpu0->cpu0_L2C RFO          ACCESS:      13278 HIT:      10913 MISS:       2365 MSHR_MERGE:          6
cpu0->cpu0_L2C PREFETCH     ACCESS:    4911791 HIT:    1261216 MISS:    3650575 MSHR_MERGE:    1199332
cpu0->cpu0_L2C WRITE        ACCESS:     138617 HIT:     138231 MISS:        386 MSHR_MERGE:          0
cpu0->cpu0_L2C TRANSLATION  ACCESS:     336972 HIT:     139704 MISS:     197268 MSHR_MERGE:          0
cpu0->cpu0_L2C PREFETCH REQUESTED:    4437745 ISSUED:    3987951 USEFUL:     180849 USELESS:    1538333 LATE:      68317
cpu0->cpu0_L2C AVERAGE MISS LATENCY: 209.7 cycles
cpu0->cpu0_L1I TOTAL        ACCESS:      44484 HIT:      44484 MISS:          0 MSHR_MERGE:          0
cpu0->cpu0_L1I LOAD         ACCESS:      44484 HIT:      44484 MISS:          0 MSHR_MERGE:          0
cpu0->cpu0_L1I RFO          ACCESS:          0 HIT:          0 MISS:          0 MSHR_MERGE:          0
cpu0->cpu0_L1I PREFETCH     ACCESS:          0 HIT:          0 MISS:          0 MSHR_MERGE:          0
cpu0->cpu0_L1I WRITE        ACCESS:          0 HIT:          0 MISS:          0 MSHR_MERGE:          0
cpu0->cpu0_L1I TRANSLATION  ACCESS:          0 HIT:          0 MISS:          0 MSHR_MERGE:          0
cpu0->cpu0_L1I PREFETCH REQUESTED:          0 ISSUED:          0 USEFUL:          0 USELESS:          0 LATE:          0
cpu0->cpu0_L1I AVERAGE MISS LATENCY: - cycles
cpu0->cpu0_L1D TOTAL        ACCESS:   22335237 HIT:   18857729 MISS:    3477508 MSHR_MERGE:     562082
cpu0->cpu0_L1D LOAD         ACCESS:   14553662 HIT:   12740067 MISS:    1813595 MSHR_MERGE:     172280
cpu0->cpu0_L1D RFO          ACCESS:          0 HIT:          0 MISS:          0 MSHR_MERGE:          0
cpu0->cpu0_L1D PREFETCH     ACCESS:    1515823 HIT:     228361 MISS:    1287462 MSHR_MERGE:     363622
cpu0->cpu0_L1D WRITE        ACCESS:    5078687 HIT:    5041312 MISS:      37375 MSHR_MERGE:      24076
cpu0->cpu0_L1D TRANSLATION  ACCESS:    1187065 HIT:     847989 MISS:     339076 MSHR_MERGE:       2104
cpu0->cpu0_L1D PREFETCH REQUESTED:    2254030 ISSUED:    1515815 USEFUL:     201216 USELESS:     722652 LATE:      93447
cpu0->cpu0_L1D AVERAGE MISS LATENCY: 151 cycles
cpu0->cpu0_ITLB TOTAL        ACCESS:      40010 HIT:      40010 MISS:          0 MSHR_MERGE:          0
cpu0->cpu0_ITLB LOAD         ACCESS:      40010 HIT:      40010 MISS:          0 MSHR_MERGE:          0
cpu0->cpu0_ITLB RFO          ACCESS:          0 HIT:          0 MISS:          0 MSHR_MERGE:          0
cpu0->cpu0_ITLB PREFETCH     ACCESS:          0 HIT:          0 MISS:          0 MSHR_MERGE:          0
cpu0->cpu0_ITLB WRITE        ACCESS:          0 HIT:          0 MISS:          0 MSHR_MERGE:          0
cpu0->cpu0_ITLB TRANSLATION  ACCESS:          0 HIT:          0 MISS:          0 MSHR_MERGE:          0
cpu0->cpu0_ITLB PREFETCH REQUESTED:          0 ISSUED:          0 USEFUL:          0 USELESS:          0 LATE:          0
cpu0->cpu0_ITLB AVERAGE MISS LATENCY: - cycles
cpu0->cpu0_DTLB TOTAL        ACCESS:   19961601 HIT:   18860757 MISS:    1100844 MSHR_MERGE:     293328
cpu0->cpu0_DTLB LOAD         ACCESS:   19961601 HIT:   18860757 MISS:    1100844 MSHR_MERGE:     293328
cpu0->cpu0_DTLB RFO          ACCESS:          0 HIT:          0 MISS:          0 MSHR_MERGE:          0
cpu0->cpu0_DTLB PREFETCH     ACCESS:          0 HIT:          0 MISS:          0 MSHR_MERGE:          0
cpu0->cpu0_DTLB WRITE        ACCESS:          0 HIT:          0 MISS:          0 MSHR_MERGE:          0
cpu0->cpu0_DTLB TRANSLATION  ACCESS:          0 HIT:          0 MISS:          0 MSHR_MERGE:          0
cpu0->cpu0_DTLB PREFETCH REQUESTED:          0 ISSUED:          0 USEFUL:          0 USELESS:          0 LATE:          0
cpu0->cpu0_DTLB AVERAGE MISS LATENCY: 91.39 cycles
cpu0->LLC TOTAL        ACCESS:    3851854 HIT:     592405 MISS:    3259449 MSHR_MERGE:          0
cpu0->LLC LOAD         ACCESS:    1101894 HIT:     193130 MISS:     908764 MSHR_MERGE:          0
cpu0->LLC RFO          ACCESS:       2359 HIT:       1685 MISS:        674 MSHR_MERGE:          0
cpu0->LLC PREFETCH     ACCESS:    2451243 HIT:     289540 MISS:    2161703 MSHR_MERGE:          0
cpu0->LLC WRITE        ACCESS:      99090 HIT:      65387 MISS:      33703 MSHR_MERGE:          0
cpu0->LLC TRANSLATION  ACCESS:     197268 HIT:      42663 MISS:     154605 MSHR_MERGE:          0
cpu0->LLC PREFETCH REQUESTED:          0 ISSUED:          0 USEFUL:          0 USELESS:          0 LATE:          0
cpu0->LLC AVERAGE MISS LATENCY: 231.3 cycles

DRAM Statistics

Channel 0 RQ ROW_BUFFER_HIT:      18941
  ROW_BUFFER_MISS:    3206333
  AVG DBUS CONGESTED CYCLE: 4.478
Channel 0 WQ ROW_BUFFER_HIT:      18549
  ROW_BUFFER_MISS:      42371
  FULL:          0
Channel 0 REFRESHES ISSUED:      13876

[ROI Statistics]
[System Configuration]
num_cpus 1
cpu_freq 4000
fetch_width 6
decode_width 6
dispatch_width 6
execute_width 6
lq_width 2
sq_width 2
retire_width 6
scheduler_size 128
branch_mispredict_penalty 15
rob_size 352
lq_size 128
sq_size 72
ifetch_buffer_size 64
decode_buffer_size 32
dispatch_buffer_size 32
register_file_size 288
decode_latency 1
dispatch_latency 1
schedule_latency 1
execute_latency 1
page_size 4096
block_size 64
core_0_itlb_set 16
core_0_itlb_way 4
core_0_itlb_rq_size 16
core_0_itlb_wq_size 16
core_0_itlb_pq_size 0
core_0_itlb_mshr_size 8
core_0_itlb_hit_latency 1
core_0_itlb_fill_latency 1
core_0_itlb_max_tag_check 2
core_0_itlb_max_fill 2
core_0_dtlb_set 16
core_0_dtlb_way 4
core_0_dtlb_rq_size 16
core_0_dtlb_wq_size 16
core_0_dtlb_pq_size 0
core_0_dtlb_mshr_size 8
core_0_dtlb_hit_latency 1
core_0_dtlb_fill_latency 1
core_0_dtlb_max_tag_check 2
core_0_dtlb_max_fill 2
core_0_stlb_set 128
core_0_stlb_way 12
core_0_stlb_rq_size 32
core_0_stlb_wq_size 32
core_0_stlb_pq_size 0
core_0_stlb_mshr_size 16
core_0_stlb_hit_latency 4
core_0_stlb_fill_latency 4
core_0_stlb_max_tag_check 1
core_0_stlb_max_fill 1
core_0_l1i_set 64
core_0_l1i_way 8
core_0_l1i_rq_size 64
core_0_l1i_wq_size 64
core_0_l1i_pq_size 32
core_0_l1i_mshr_size 8
core_0_l1i_hit_latency 2
core_0_l1i_fill_latency 2
core_0_l1i_max_tag_check 2
core_0_l1i_max_fill 2
core_0_l1d_set 64
core_0_l1d_way 12
core_0_l1d_rq_size 64
core_0_l1d_wq_size 64
core_0_l1d_pq_size 8
core_0_l1d_mshr_size 16
core_0_l1d_hit_latency 2
core_0_l1d_fill_latency 3
core_0_l1d_max_tag_check 2
core_0_l1d_max_fill 2
core_0_l2c_set 1024
core_0_l2c_way 8
core_0_l2c_rq_size 32
core_0_l2c_wq_size 32
core_0_l2c_pq_size 16
core_0_l2c_mshr_size 32
core_0_l2c_hit_latency 5
core_0_l2c_fill_latency 5
core_0_l2c_max_tag_check 1
core_0_l2c_max_fill 1
llc_set 2048
llc_way 16
llc_rq_size 32
llc_wq_size 32
llc_pq_size 32
llc_mshr_size 64
llc_hit_latency 10
llc_fill_latency 10
llc_max_tag_check 1
llc_max_fill 1
dram_channels 1
dram_ranks 1
dram_bankgroups 8
dram_banks 4
dram_rows 65536
dram_columns 1024
dram_channel_width 8
dram_rq_size 64
dram_wq_size 64
dram_size 17179869184
core_0_itlb_prefetcher no
core_0_dtlb_prefetcher no
core_0_stlb_prefetcher no
core_0_l1i_prefetcher next_line
core_0_l1d_prefetcher sms
core_0_l2c_prefetcher pythia
llc_prefetcher no
llc_replacement drrip

Core_0_instructions 50000000
Core_0_cycles 166515124
Core_0_IPC 0.300273
Core_0_branch_prediction_accuracy 94.391
Core_0_branch_MPKI 14.1351
Core_0_average_ROB_occupancy_at_mispredict 49.3076

Core_0_ITLB_total_access 40010
Core_0_ITLB_total_hit 40010
Core_0_ITLB_total_miss 0
Core_0_ITLB_total_MPKI 0
Core_0_ITLB_total_miss_rate 0
Core_0_ITLB_demand_access 40010
Core_0_ITLB_demand_hit 40010
Core_0_ITLB_demand_miss 0
Core_0_ITLB_demand_MPKI 0
Core_0_ITLB_demand_miss_rate 0
Core_0_ITLB_load_access 40010
Core_0_ITLB_load_hit 40010
Core_0_ITLB_load_miss 0
Core_0_ITLB_load_MPKI 0
Core_0_ITLB_load_miss_rate 0
Core_0_ITLB_rfo_access 0
Core_0_ITLB_rfo_hit 0
Core_0_ITLB_rfo_miss 0
Core_0_ITLB_rfo_MPKI 0
Core_0_ITLB_rfo_miss_rate 0
Core_0_ITLB_prefetch_access 0
Core_0_ITLB_prefetch_hit 0
Core_0_ITLB_prefetch_miss 0
Core_0_ITLB_prefetch_MPKI 0
Core_0_ITLB_prefetch_miss_rate 0
Core_0_ITLB_writeback_access 0
Core_0_ITLB_writeback_hit 0
Core_0_ITLB_writeback_miss 0
Core_0_ITLB_writeback_MPKI 0
Core_0_ITLB_writeback_miss_rate 0
Core_0_ITLB_prefetch_requested 0
Core_0_ITLB_prefetch_issued 0
Core_0_ITLB_prefetch_useful 0
Core_0_ITLB_prefetch_useless 0
Core_0_ITLB_prefetch_late 0
Core_0_ITLB_prefetch_accuracy 0
Core_0_ITLB_prefetch_coverage 0

Core_0_DTLB_total_access 19961601
Core_0_DTLB_total_hit 18860757
Core_0_DTLB_total_miss 1100844
Core_0_DTLB_total_MPKI 22.0169
Core_0_DTLB_total_miss_rate 0.0551481
Core_0_DTLB_demand_access 19961601
Core_0_DTLB_demand_hit 18860757
Core_0_DTLB_demand_miss 1100844
Core_0_DTLB_demand_MPKI 22.0169
Core_0_DTLB_demand_miss_rate 0.0551481
Core_0_DTLB_load_access 19961601
Core_0_DTLB_load_hit 18860757
Core_0_DTLB_load_miss 1100844
Core_0_DTLB_load_MPKI 22.0169
Core_0_DTLB_load_miss_rate 0.0551481
Core_0_DTLB_rfo_access 0
Core_0_DTLB_rfo_hit 0
Core_0_DTLB_rfo_miss 0
Core_0_DTLB_rfo_MPKI 0
Core_0_DTLB_rfo_miss_rate 0
Core_0_DTLB_prefetch_access 0
Core_0_DTLB_prefetch_hit 0
Core_0_DTLB_prefetch_miss 0
Core_0_DTLB_prefetch_MPKI 0
Core_0_DTLB_prefetch_miss_rate 0
Core_0_DTLB_writeback_access 0
Core_0_DTLB_writeback_hit 0
Core_0_DTLB_writeback_miss 0
Core_0_DTLB_writeback_MPKI 0
Core_0_DTLB_writeback_miss_rate 0
Core_0_DTLB_prefetch_requested 0
Core_0_DTLB_prefetch_issued 0
Core_0_DTLB_prefetch_useful 0
Core_0_DTLB_prefetch_useless 0
Core_0_DTLB_prefetch_late 0
Core_0_DTLB_prefetch_accuracy 0
Core_0_DTLB_prefetch_coverage 0

Core_0_STLB_total_access 807516
Core_0_STLB_total_hit 367048
Core_0_STLB_total_miss 440468
Core_0_STLB_total_MPKI 8.80936
Core_0_STLB_total_miss_rate 0.54546
Core_0_STLB_demand_access 807516
Core_0_STLB_demand_hit 367048
Core_0_STLB_demand_miss 440468
Core_0_STLB_demand_MPKI 8.80936
Core_0_STLB_demand_miss_rate 0.54546
Core_0_STLB_load_access 807516
Core_0_STLB_load_hit 367048
Core_0_STLB_load_miss 440468
Core_0_STLB_load_MPKI 8.80936
Core_0_STLB_load_miss_rate 0.54546
Core_0_STLB_rfo_access 0
Core_0_STLB_rfo_hit 0
Core_0_STLB_rfo_miss 0
Core_0_STLB_rfo_MPKI 0
Core_0_STLB_rfo_miss_rate 0
Core_0_STLB_prefetch_access 0
Core_0_STLB_prefetch_hit 0
Core_0_STLB_prefetch_miss 0
Core_0_STLB_prefetch_MPKI 0
Core_0_STLB_prefetch_miss_rate 0
Core_0_STLB_writeback_access 0
Core_0_STLB_writeback_hit 0
Core_0_STLB_writeback_miss 0
Core_0_STLB_writeback_MPKI 0
Core_0_STLB_writeback_miss_rate 0
Core_0_STLB_prefetch_requested 0
Core_0_STLB_prefetch_issued 0
Core_0_STLB_prefetch_useful 0
Core_0_STLB_prefetch_useless 0
Core_0_STLB_prefetch_late 0
Core_0_STLB_prefetch_accuracy 0
Core_0_STLB_prefetch_coverage 0

Core_0_L1I_total_access 44484
Core_0_L1I_total_hit 44484
Core_0_L1I_total_miss 0
Core_0_L1I_total_MPKI 0
Core_0_L1I_total_miss_rate 0
Core_0_L1I_demand_access 44484
Core_0_L1I_demand_hit 44484
Core_0_L1I_demand_miss 0
Core_0_L1I_demand_MPKI 0
Core_0_L1I_demand_miss_rate 0
Core_0_L1I_load_access 44484
Core_0_L1I_load_hit 44484
Core_0_L1I_load_miss 0
Core_0_L1I_load_MPKI 0
Core_0_L1I_load_miss_rate 0
Core_0_L1I_rfo_access 0
Core_0_L1I_rfo_hit 0
Core_0_L1I_rfo_miss 0
Core_0_L1I_rfo_MPKI 0
Core_0_L1I_rfo_miss_rate 0
Core_0_L1I_prefetch_access 0
Core_0_L1I_prefetch_hit 0
Core_0_L1I_prefetch_miss 0
Core_0_L1I_prefetch_MPKI 0
Core_0_L1I_prefetch_miss_rate 0
Core_0_L1I_writeback_access 0
Core_0_L1I_writeback_hit 0
Core_0_L1I_writeback_miss 0
Core_0_L1I_writeback_MPKI 0
Core_0_L1I_writeback_miss_rate 0
Core_0_L1I_prefetch_requested 0
Core_0_L1I_prefetch_issued 0
Core_0_L1I_prefetch_useful 0
Core_0_L1I_prefetch_useless 0
Core_0_L1I_prefetch_late 0
Core_0_L1I_prefetch_accuracy 0
Core_0_L1I_prefetch_coverage 0

Core_0_L1D_total_access 21148172
Core_0_L1D_total_hit 18009740
Core_0_L1D_total_miss 3138432
Core_0_L1D_total_MPKI 62.7686
Core_0_L1D_total_miss_rate 0.148402
Core_0_L1D_demand_access 14553662
Core_0_L1D_demand_hit 12740067
Core_0_L1D_demand_miss 1813595
Core_0_L1D_demand_MPKI 36.2719
Core_0_L1D_demand_miss_rate 0.124614
Core_0_L1D_load_access 14553662
Core_0_L1D_load_hit 12740067
Core_0_L1D_load_miss 1813595
Core_0_L1D_load_MPKI 36.2719
Core_0_L1D_load_miss_rate 0.124614
Core_0_L1D_rfo_access 0
Core_0_L1D_rfo_hit 0
Core_0_L1D_rfo_miss 0
Core_0_L1D_rfo_MPKI 0
Core_0_L1D_rfo_miss_rate 0
Core_0_L1D_prefetch_access 1515823
Core_0_L1D_prefetch_hit 228361
Core_0_L1D_prefetch_miss 1287462
Core_0_L1D_prefetch_MPKI 25.7492
Core_0_L1D_prefetch_miss_rate 0.849349
Core_0_L1D_writeback_access 5078687
Core_0_L1D_writeback_hit 5041312
Core_0_L1D_writeback_miss 37375
Core_0_L1D_writeback_MPKI 0.7475
Core_0_L1D_writeback_miss_rate 0.00735919
Core_0_L1D_prefetch_requested 2254030
Core_0_L1D_prefetch_issued 1515815
Core_0_L1D_prefetch_useful 201216
Core_0_L1D_prefetch_useless 722652
Core_0_L1D_prefetch_late 93447
Core_0_L1D_prefetch_accuracy 0.132744
Core_0_L1D_prefetch_coverage 0.0998684

Core_0_L2C_total_access 6704999
Core_0_L2C_total_hit 1881468
Core_0_L2C_total_miss 4823531
Core_0_L2C_total_MPKI 96.4706
Core_0_L2C_total_miss_rate 0.719393
Core_0_L2C_demand_access 1654591
Core_0_L2C_demand_hit 482021
Core_0_L2C_demand_miss 1172570
Core_0_L2C_demand_MPKI 23.4514
Core_0_L2C_demand_miss_rate 0.708677
Core_0_L2C_load_access 1641313
Core_0_L2C_load_hit 471108
Core_0_L2C_load_miss 1170205
Core_0_L2C_load_MPKI 23.4041
Core_0_L2C_load_miss_rate 0.712969
Core_0_L2C_rfo_access 13278
Core_0_L2C_rfo_hit 10913
Core_0_L2C_rfo_miss 2365
Core_0_L2C_rfo_MPKI 0.0473
Core_0_L2C_rfo_miss_rate 0.178114
Core_0_L2C_prefetch_access 4911791
Core_0_L2C_prefetch_hit 1261216
Core_0_L2C_prefetch_miss 3650575
Core_0_L2C_prefetch_MPKI 73.0115
Core_0_L2C_prefetch_miss_rate 0.743227
Core_0_L2C_writeback_access 138617
Core_0_L2C_writeback_hit 138231
Core_0_L2C_writeback_miss 386
Core_0_L2C_writeback_MPKI 0.00772
Core_0_L2C_writeback_miss_rate 0.00278465
Core_0_L2C_prefetch_requested 4437745
Core_0_L2C_prefetch_issued 3987951
Core_0_L2C_prefetch_useful 180849
Core_0_L2C_prefetch_useless 1538333
Core_0_L2C_prefetch_late 68317
Core_0_L2C_prefetch_accuracy 0.0453489
Core_0_L2C_prefetch_coverage 0.133624

Core_0_LLC_total_access 3654586
Core_0_LLC_total_hit 549742
Core_0_LLC_total_miss 3104844
Core_0_LLC_total_MPKI 62.0969
Core_0_LLC_total_miss_rate 0.849575
Core_0_LLC_demand_access 1104253
Core_0_LLC_demand_hit 194815
Core_0_LLC_demand_miss 909438
Core_0_LLC_demand_MPKI 18.1888
Core_0_LLC_demand_miss_rate 0.823578
Core_0_LLC_load_access 1101894
Core_0_LLC_load_hit 193130
Core_0_LLC_load_miss 908764
Core_0_LLC_load_MPKI 18.1753
Core_0_LLC_load_miss_rate 0.824729
Core_0_LLC_rfo_access 2359
Core_0_LLC_rfo_hit 1685
Core_0_LLC_rfo_miss 674
Core_0_LLC_rfo_MPKI 0.01348
Core_0_LLC_rfo_miss_rate 0.285714
Core_0_LLC_prefetch_access 2451243
Core_0_LLC_prefetch_hit 289540
Core_0_LLC_prefetch_miss 2161703
Core_0_LLC_prefetch_MPKI 43.2341
Core_0_LLC_prefetch_miss_rate 0.88188
Core_0_LLC_writeback_access 99090
Core_0_LLC_writeback_hit 65387
Core_0_LLC_writeback_miss 33703
Core_0_LLC_writeback_MPKI 0.67406
Core_0_LLC_writeback_miss_rate 0.340125
Core_0_LLC_prefetch_requested 0
Core_0_LLC_prefetch_issued 0
Core_0_LLC_prefetch_useful 0
Core_0_LLC_prefetch_useless 0
Core_0_LLC_prefetch_late 0
Core_0_LLC_prefetch_accuracy 0
Core_0_LLC_prefetch_coverage 0

[DRAM Statistics]
Channel_0_RQ_row_buffer_hit 18941
Channel_0_RQ_row_buffer_miss 3206333
Channel_0_WQ_row_buffer_hit 18549
Channel_0_WQ_row_buffer_miss 42371
Channel_0_WQ_full 0
Channel_0_dbus_congested 7138374
DRAM_total_RQ_row_buffer_hit 18941
DRAM_total_RQ_row_buffer_miss 3206333
DRAM_total_WQ_row_buffer_hit 18549
DRAM_total_WQ_row_buffer_miss 42371
DRAM_total_WQ_full 0
DRAM_total_dbus_congested 7138374
DRAM_avg_congested_cycle 4.47759

====== DRAM_RQ_TRAFFIC ========
DRAM_RQ_READ_TRAFFIC_BREAKDOWN:
data_demand_read.count = 909438
data_demand_read.share = 28.19%

inst_demand_read.count = 0
inst_demand_read.share = 0.00%

cache_inst_prefetch.count = 0
cache_inst_prefetch.share = 0.00%

cache_data_prefetch.count = 2161703
cache_data_prefetch.share = 67.01%

stlb_data_demand.count = 154605
stlb_data_demand.share = 4.79%

stlb_inst_demand.count = 0
stlb_inst_demand.share = 0.00%

stlb_l1i_pref.count = 0
stlb_l1i_pref.share = 0.00%

stlb_l1d_pref.count = 0
stlb_l1d_pref.share = 0.00%

DRAM_RQ_READ_TRAFFIC_SUMMARY:
cache_demand.count = 909438
cache_demand.share = 28.19%

cache_prefetch.count = 2161703
cache_prefetch.share = 67.01%

stlb_demand.count = 154605
stlb_demand.share = 4.79%

stlb_prefetch.count = 0
stlb_prefetch.share = 0.00%

DRAM_RQ_READ_TRAFFIC_DEBUG:
total_classified_read.count = 3225746
unclassified_read.count = 0
total_read_with_other.count = 3225746

classified_plus_unclassified_check.count = 3225746
dram_rq_read_total_observed.count = 3225746
dram_rq_read_total_observed.per_1K_instructions = 64.5149

STLB_MISS_PTW_DRAM_TOUCH_BREAKDOWN:
stlb_miss_total.count = 440468

stlb_miss_touch_dram.count = 153593
stlb_miss_touch_dram.share = 34.87%

stlb_miss_no_dram_touch.count = 286875
stlb_miss_no_dram_touch.share = 65.13%

STLB_MISS_PTW_DRAM_TOUCH_DEBUG:
stlb_miss_touch_plus_no_touch.count = 440468
stlb_miss_total_check.count = 440468

======STLB miss causes ========
Core_0_STLB_miss_cause_breakdown
Core_0_STLB_cause_Demand_Data_miss 440468
Core_0_STLB_cause_Demand_Data_miss_rate 0.54546
Core_0_STLB_cause_Demand_Instruction_miss 0
Core_0_STLB_cause_Demand_Instruction_miss_rate 0
Core_0_STLB_cause_L1D_Prefetch_miss 0
Core_0_STLB_cause_L1D_Prefetch_miss_rate 0
Core_0_STLB_cause_L1I_Prefetch_miss 0
Core_0_STLB_cause_L1I_Prefetch_miss_rate 0
Core_0_STLB_cause_Other_miss 0
Core_0_STLB_cause_Other_miss_rate 0
Core_0_STLB_Demand_miss 440468
Core_0_STLB_Demand_miss_rate 0.54546
Core_0_STLB_L1D_Prefetch_miss 0
Core_0_STLB_L1D_Prefetch_miss_rate 0
Core_0_STLB_Other_miss 0
Core_0_STLB_Other_miss_rate 0
