[VMEM] WARNING: physical memory size is smaller than virtual memory size.

*** ChampSim Multicore Out-of-Order Simulator ***
Warmup Instructions: 20000000
Simulation Instructions: 50000000
Number of CPUs: 1
Page size: 4096
Core 0: /data0/tzh/champsim_traces/SPEC17/620.omnetpp_s-141B.champsimtrace.xz
Off-chip DRAM Size: 16 GiB Channels: 1 Width: 64-bit Data Rate: 3205 MT/s
Warmup halting CPU 0 at instruction 20000000 cycle 7907173 for remainder of phase
Warmup finished CPU 0 instructions: 20000000 cycles: 7907173 cumulative IPC: 2.529 (Simulation time: 00 hr 02 min 06 sec)
Warmup complete CPU 0 instructions: 20000000 cycles: 7907173 cumulative IPC: 2.529 (Simulation time: 00 hr 02 min 06 sec)
Simulation finished CPU 0 instructions: 50000001 cycles: 108103557 cumulative IPC: 0.4625 (Simulation time: 00 hr 14 min 30 sec)
Simulation complete CPU 0 instructions: 50000001 cycles: 108103557 cumulative IPC: 0.4625 (Simulation time: 00 hr 14 min 30 sec)

ChampSim completed all CPUs

=== Simulation ===
CPU 0 runs /data0/tzh/champsim_traces/SPEC17/620.omnetpp_s-141B.champsimtrace.xz

Region of Interest Statistics

CPU 0 cumulative IPC: 0.4625 instructions: 50000001 cycles: 108103557
CPU 0 Branch Prediction Accuracy: 95.7% MPKI: 9.03 Average ROB Occupancy at Mispredict: 79.4
Branch type MPKI
BRANCH_DIRECT_JUMP: 0.8235
BRANCH_INDIRECT: 0.3613
BRANCH_CONDITIONAL: 6.534
BRANCH_DIRECT_CALL: 0.00136
BRANCH_INDIRECT_CALL: 0.8598
BRANCH_RETURN: 0.4496

cpu0->cpu0_STLB TOTAL        ACCESS:    1111498 HIT:     867453 MISS:     244045 MSHR_MERGE:          0
cpu0->cpu0_STLB LOAD         ACCESS:    1111498 HIT:     867453 MISS:     244045 MSHR_MERGE:          0
cpu0->cpu0_STLB RFO          ACCESS:          0 HIT:          0 MISS:          0 MSHR_MERGE:          0
cpu0->cpu0_STLB PREFETCH     ACCESS:          0 HIT:          0 MISS:          0 MSHR_MERGE:          0
cpu0->cpu0_STLB WRITE        ACCESS:          0 HIT:          0 MISS:          0 MSHR_MERGE:          0
cpu0->cpu0_STLB TRANSLATION  ACCESS:          0 HIT:          0 MISS:          0 MSHR_MERGE:          0
cpu0->cpu0_STLB PREFETCH REQUESTED:          0 ISSUED:          0 USEFUL:          0 USELESS:          0 LATE:          0
cpu0->cpu0_STLB AVERAGE MISS LATENCY: 97.43 cycles
cpu0->cpu0_L2C TOTAL        ACCESS:    3590040 HIT:    1435709 MISS:    2154331 MSHR_MERGE:     498993
cpu0->cpu0_L2C LOAD         ACCESS:     736504 HIT:     302607 MISS:     433897 MSHR_MERGE:      12672
cpu0->cpu0_L2C RFO          ACCESS:      85252 HIT:      41799 MISS:      43453 MSHR_MERGE:       2816
cpu0->cpu0_L2C PREFETCH     ACCESS:    2069622 HIT:     568517 MISS:    1501105 MSHR_MERGE:     483505
cpu0->cpu0_L2C WRITE        ACCESS:     476822 HIT:     475535 MISS:       1287 MSHR_MERGE:          0
cpu0->cpu0_L2C TRANSLATION  ACCESS:     221840 HIT:      47251 MISS:     174589 MSHR_MERGE:          0
cpu0->cpu0_L2C PREFETCH REQUESTED:    1797119 ISSUED:    1614591 USEFUL:     156742 USELESS:     500155 LATE:      15488
cpu0->cpu0_L2C AVERAGE MISS LATENCY: 139.9 cycles
cpu0->cpu0_L1I TOTAL        ACCESS:    7239450 HIT:    7202125 MISS:      37325 MSHR_MERGE:       9275
cpu0->cpu0_L1I LOAD         ACCESS:    7239450 HIT:    7202125 MISS:      37325 MSHR_MERGE:       9275
cpu0->cpu0_L1I RFO          ACCESS:          0 HIT:          0 MISS:          0 MSHR_MERGE:          0
cpu0->cpu0_L1I PREFETCH     ACCESS:          0 HIT:          0 MISS:          0 MSHR_MERGE:          0
cpu0->cpu0_L1I WRITE        ACCESS:          0 HIT:          0 MISS:          0 MSHR_MERGE:          0
cpu0->cpu0_L1I TRANSLATION  ACCESS:          0 HIT:          0 MISS:          0 MSHR_MERGE:          0
cpu0->cpu0_L1I PREFETCH REQUESTED:          0 ISSUED:          0 USEFUL:          0 USELESS:          0 LATE:          0
cpu0->cpu0_L1I AVERAGE MISS LATENCY: 22.7 cycles
cpu0->cpu0_L1D TOTAL        ACCESS:   20339618 HIT:   18594982 MISS:    1744636 MSHR_MERGE:     274042
cpu0->cpu0_L1D LOAD         ACCESS:    9653243 HIT:    8761881 MISS:     891362 MSHR_MERGE:     182902
cpu0->cpu0_L1D RFO          ACCESS:          0 HIT:          0 MISS:          0 MSHR_MERGE:          0
cpu0->cpu0_L1D PREFETCH     ACCESS:    1270831 HIT:     783308 MISS:     487523 MSHR_MERGE:      32492
cpu0->cpu0_L1D WRITE        ACCESS:    8828787 HIT:    8685269 MISS:     143518 MSHR_MERGE:      58255
cpu0->cpu0_L1D TRANSLATION  ACCESS:     586757 HIT:     364524 MISS:     222233 MSHR_MERGE:        393
cpu0->cpu0_L1D PREFETCH REQUESTED:    1303441 ISSUED:    1270830 USEFUL:     193039 USELESS:     262048 LATE:      10352
cpu0->cpu0_L1D AVERAGE MISS LATENCY: 98.15 cycles
cpu0->cpu0_ITLB TOTAL        ACCESS:    6414522 HIT:    6259936 MISS:     154586 MSHR_MERGE:      75801
cpu0->cpu0_ITLB LOAD         ACCESS:    6414522 HIT:    6259936 MISS:     154586 MSHR_MERGE:      75801
cpu0->cpu0_ITLB RFO          ACCESS:          0 HIT:          0 MISS:          0 MSHR_MERGE:          0
cpu0->cpu0_ITLB PREFETCH     ACCESS:          0 HIT:          0 MISS:          0 MSHR_MERGE:          0
cpu0->cpu0_ITLB WRITE        ACCESS:          0 HIT:          0 MISS:          0 MSHR_MERGE:          0
cpu0->cpu0_ITLB TRANSLATION  ACCESS:          0 HIT:          0 MISS:          0 MSHR_MERGE:          0
cpu0->cpu0_ITLB PREFETCH REQUESTED:          0 ISSUED:          0 USEFUL:          0 USELESS:          0 LATE:          0
cpu0->cpu0_ITLB AVERAGE MISS LATENCY: 5.767 cycles
cpu0->cpu0_DTLB TOTAL        ACCESS:   18335453 HIT:   17068215 MISS:    1267238 MSHR_MERGE:     234525
cpu0->cpu0_DTLB LOAD         ACCESS:   18335453 HIT:   17068215 MISS:    1267238 MSHR_MERGE:     234525
cpu0->cpu0_DTLB RFO          ACCESS:          0 HIT:          0 MISS:          0 MSHR_MERGE:          0
cpu0->cpu0_DTLB PREFETCH     ACCESS:          0 HIT:          0 MISS:          0 MSHR_MERGE:          0
cpu0->cpu0_DTLB WRITE        ACCESS:          0 HIT:          0 MISS:          0 MSHR_MERGE:          0
cpu0->cpu0_DTLB TRANSLATION  ACCESS:          0 HIT:          0 MISS:          0 MSHR_MERGE:          0
cpu0->cpu0_DTLB PREFETCH REQUESTED:          0 ISSUED:          0 USEFUL:          0 USELESS:          0 LATE:          0
cpu0->cpu0_DTLB AVERAGE MISS LATENCY: 28.21 cycles
cpu0->LLC TOTAL        ACCESS:    2026031 HIT:     798440 MISS:    1227591 MSHR_MERGE:          0
cpu0->LLC LOAD         ACCESS:     421225 HIT:     119255 MISS:     301970 MSHR_MERGE:          0
cpu0->LLC RFO          ACCESS:      40637 HIT:      13687 MISS:      26950 MSHR_MERGE:          0
cpu0->LLC PREFETCH     ACCESS:    1017600 HIT:     210465 MISS:     807135 MSHR_MERGE:          0
cpu0->LLC WRITE        ACCESS:     371980 HIT:     342292 MISS:      29688 MSHR_MERGE:          0
cpu0->LLC TRANSLATION  ACCESS:     174589 HIT:     112741 MISS:      61848 MSHR_MERGE:          0
cpu0->LLC PREFETCH REQUESTED:          0 ISSUED:          0 USEFUL:          0 USELESS:          0 LATE:          0
cpu0->LLC AVERAGE MISS LATENCY: 190.2 cycles

DRAM Statistics

Channel 0 RQ ROW_BUFFER_HIT:      19822
  ROW_BUFFER_MISS:    1178006
  AVG DBUS CONGESTED CYCLE: 11.9
Channel 0 WQ ROW_BUFFER_HIT:      80664
  ROW_BUFFER_MISS:     187313
  FULL:          0
Channel 0 REFRESHES ISSUED:       9009

[ROI Statistics]
[System Configuration]
num_cpus 1
cpu_freq 4000
fetch_width 6
decode_width 6
dispatch_width 6
execute_width 6
lq_width 2
sq_width 2
retire_width 6
scheduler_size 128
branch_mispredict_penalty 15
rob_size 352
lq_size 128
sq_size 72
ifetch_buffer_size 64
decode_buffer_size 32
dispatch_buffer_size 32
register_file_size 288
decode_latency 1
dispatch_latency 1
schedule_latency 1
execute_latency 1
page_size 4096
block_size 64
core_0_itlb_set 16
core_0_itlb_way 4
core_0_itlb_rq_size 16
core_0_itlb_wq_size 16
core_0_itlb_pq_size 0
core_0_itlb_mshr_size 8
core_0_itlb_hit_latency 1
core_0_itlb_fill_latency 1
core_0_itlb_max_tag_check 2
core_0_itlb_max_fill 2
core_0_dtlb_set 16
core_0_dtlb_way 4
core_0_dtlb_rq_size 16
core_0_dtlb_wq_size 16
core_0_dtlb_pq_size 0
core_0_dtlb_mshr_size 8
core_0_dtlb_hit_latency 1
core_0_dtlb_fill_latency 1
core_0_dtlb_max_tag_check 2
core_0_dtlb_max_fill 2
core_0_stlb_set 128
core_0_stlb_way 12
core_0_stlb_rq_size 32
core_0_stlb_wq_size 32
core_0_stlb_pq_size 0
core_0_stlb_mshr_size 16
core_0_stlb_hit_latency 4
core_0_stlb_fill_latency 4
core_0_stlb_max_tag_check 1
core_0_stlb_max_fill 1
core_0_l1i_set 64
core_0_l1i_way 8
core_0_l1i_rq_size 64
core_0_l1i_wq_size 64
core_0_l1i_pq_size 32
core_0_l1i_mshr_size 8
core_0_l1i_hit_latency 2
core_0_l1i_fill_latency 2
core_0_l1i_max_tag_check 2
core_0_l1i_max_fill 2
core_0_l1d_set 64
core_0_l1d_way 12
core_0_l1d_rq_size 64
core_0_l1d_wq_size 64
core_0_l1d_pq_size 8
core_0_l1d_mshr_size 16
core_0_l1d_hit_latency 2
core_0_l1d_fill_latency 3
core_0_l1d_max_tag_check 2
core_0_l1d_max_fill 2
core_0_l2c_set 1024
core_0_l2c_way 8
core_0_l2c_rq_size 32
core_0_l2c_wq_size 32
core_0_l2c_pq_size 16
core_0_l2c_mshr_size 32
core_0_l2c_hit_latency 5
core_0_l2c_fill_latency 5
core_0_l2c_max_tag_check 1
core_0_l2c_max_fill 1
llc_set 2048
llc_way 16
llc_rq_size 32
llc_wq_size 32
llc_pq_size 32
llc_mshr_size 64
llc_hit_latency 10
llc_fill_latency 10
llc_max_tag_check 1
llc_max_fill 1
dram_channels 1
dram_ranks 1
dram_bankgroups 8
dram_banks 4
dram_rows 65536
dram_columns 1024
dram_channel_width 8
dram_rq_size 64
dram_wq_size 64
dram_size 17179869184
core_0_itlb_prefetcher no
core_0_dtlb_prefetcher no
core_0_stlb_prefetcher no
core_0_l1i_prefetcher next_line
core_0_l1d_prefetcher sms
core_0_l2c_prefetcher pythia
llc_prefetcher no
llc_replacement drrip

Core_0_instructions 50000001
Core_0_cycles 108103557
Core_0_IPC 0.462519
Core_0_branch_prediction_accuracy 95.7047
Core_0_branch_MPKI 9.02996
Core_0_average_ROB_occupancy_at_mispredict 79.4035

Core_0_ITLB_total_access 6414522
Core_0_ITLB_total_hit 6259936
Core_0_ITLB_total_miss 154586
Core_0_ITLB_total_MPKI 3.09172
Core_0_ITLB_total_miss_rate 0.0240994
Core_0_ITLB_demand_access 6414522
Core_0_ITLB_demand_hit 6259936
Core_0_ITLB_demand_miss 154586
Core_0_ITLB_demand_MPKI 3.09172
Core_0_ITLB_demand_miss_rate 0.0240994
Core_0_ITLB_load_access 6414522
Core_0_ITLB_load_hit 6259936
Core_0_ITLB_load_miss 154586
Core_0_ITLB_load_MPKI 3.09172
Core_0_ITLB_load_miss_rate 0.0240994
Core_0_ITLB_rfo_access 0
Core_0_ITLB_rfo_hit 0
Core_0_ITLB_rfo_miss 0
Core_0_ITLB_rfo_MPKI 0
Core_0_ITLB_rfo_miss_rate 0
Core_0_ITLB_prefetch_access 0
Core_0_ITLB_prefetch_hit 0
Core_0_ITLB_prefetch_miss 0
Core_0_ITLB_prefetch_MPKI 0
Core_0_ITLB_prefetch_miss_rate 0
Core_0_ITLB_writeback_access 0
Core_0_ITLB_writeback_hit 0
Core_0_ITLB_writeback_miss 0
Core_0_ITLB_writeback_MPKI 0
Core_0_ITLB_writeback_miss_rate 0
Core_0_ITLB_prefetch_requested 0
Core_0_ITLB_prefetch_issued 0
Core_0_ITLB_prefetch_useful 0
Core_0_ITLB_prefetch_useless 0
Core_0_ITLB_prefetch_late 0
Core_0_ITLB_prefetch_accuracy 0
Core_0_ITLB_prefetch_coverage 0

Core_0_DTLB_total_access 18335453
Core_0_DTLB_total_hit 17068215
Core_0_DTLB_total_miss 1267238
Core_0_DTLB_total_MPKI 25.3448
Core_0_DTLB_total_miss_rate 0.0691141
Core_0_DTLB_demand_access 18335453
Core_0_DTLB_demand_hit 17068215
Core_0_DTLB_demand_miss 1267238
Core_0_DTLB_demand_MPKI 25.3448
Core_0_DTLB_demand_miss_rate 0.0691141
Core_0_DTLB_load_access 18335453
Core_0_DTLB_load_hit 17068215
Core_0_DTLB_load_miss 1267238
Core_0_DTLB_load_MPKI 25.3448
Core_0_DTLB_load_miss_rate 0.0691141
Core_0_DTLB_rfo_access 0
Core_0_DTLB_rfo_hit 0
Core_0_DTLB_rfo_miss 0
Core_0_DTLB_rfo_MPKI 0
Core_0_DTLB_rfo_miss_rate 0
Core_0_DTLB_prefetch_access 0
Core_0_DTLB_prefetch_hit 0
Core_0_DTLB_prefetch_miss 0
Core_0_DTLB_prefetch_MPKI 0
Core_0_DTLB_prefetch_miss_rate 0
Core_0_DTLB_writeback_access 0
Core_0_DTLB_writeback_hit 0
Core_0_DTLB_writeback_miss 0
Core_0_DTLB_writeback_MPKI 0
Core_0_DTLB_writeback_miss_rate 0
Core_0_DTLB_prefetch_requested 0
Core_0_DTLB_prefetch_issued 0
Core_0_DTLB_prefetch_useful 0
Core_0_DTLB_prefetch_useless 0
Core_0_DTLB_prefetch_late 0
Core_0_DTLB_prefetch_accuracy 0
Core_0_DTLB_prefetch_coverage 0

Core_0_STLB_total_access 1111498
Core_0_STLB_total_hit 867453
Core_0_STLB_total_miss 244045
Core_0_STLB_total_MPKI 4.8809
Core_0_STLB_total_miss_rate 0.219564
Core_0_STLB_demand_access 1111498
Core_0_STLB_demand_hit 867453
Core_0_STLB_demand_miss 244045
Core_0_STLB_demand_MPKI 4.8809
Core_0_STLB_demand_miss_rate 0.219564
Core_0_STLB_load_access 1111498
Core_0_STLB_load_hit 867453
Core_0_STLB_load_miss 244045
Core_0_STLB_load_MPKI 4.8809
Core_0_STLB_load_miss_rate 0.219564
Core_0_STLB_rfo_access 0
Core_0_STLB_rfo_hit 0
Core_0_STLB_rfo_miss 0
Core_0_STLB_rfo_MPKI 0
Core_0_STLB_rfo_miss_rate 0
Core_0_STLB_prefetch_access 0
Core_0_STLB_prefetch_hit 0
Core_0_STLB_prefetch_miss 0
Core_0_STLB_prefetch_MPKI 0
Core_0_STLB_prefetch_miss_rate 0
Core_0_STLB_writeback_access 0
Core_0_STLB_writeback_hit 0
Core_0_STLB_writeback_miss 0
Core_0_STLB_writeback_MPKI 0
Core_0_STLB_writeback_miss_rate 0
Core_0_STLB_prefetch_requested 0
Core_0_STLB_prefetch_issued 0
Core_0_STLB_prefetch_useful 0
Core_0_STLB_prefetch_useless 0
Core_0_STLB_prefetch_late 0
Core_0_STLB_prefetch_accuracy 0
Core_0_STLB_prefetch_coverage 0

Core_0_L1I_total_access 7239450
Core_0_L1I_total_hit 7202125
Core_0_L1I_total_miss 37325
Core_0_L1I_total_MPKI 0.7465
Core_0_L1I_total_miss_rate 0.00515578
Core_0_L1I_demand_access 7239450
Core_0_L1I_demand_hit 7202125
Core_0_L1I_demand_miss 37325
Core_0_L1I_demand_MPKI 0.7465
Core_0_L1I_demand_miss_rate 0.00515578
Core_0_L1I_load_access 7239450
Core_0_L1I_load_hit 7202125
Core_0_L1I_load_miss 37325
Core_0_L1I_load_MPKI 0.7465
Core_0_L1I_load_miss_rate 0.00515578
Core_0_L1I_rfo_access 0
Core_0_L1I_rfo_hit 0
Core_0_L1I_rfo_miss 0
Core_0_L1I_rfo_MPKI 0
Core_0_L1I_rfo_miss_rate 0
Core_0_L1I_prefetch_access 0
Core_0_L1I_prefetch_hit 0
Core_0_L1I_prefetch_miss 0
Core_0_L1I_prefetch_MPKI 0
Core_0_L1I_prefetch_miss_rate 0
Core_0_L1I_writeback_access 0
Core_0_L1I_writeback_hit 0
Core_0_L1I_writeback_miss 0
Core_0_L1I_writeback_MPKI 0
Core_0_L1I_writeback_miss_rate 0
Core_0_L1I_prefetch_requested 0
Core_0_L1I_prefetch_issued 0
Core_0_L1I_prefetch_useful 0
Core_0_L1I_prefetch_useless 0
Core_0_L1I_prefetch_late 0
Core_0_L1I_prefetch_accuracy 0
Core_0_L1I_prefetch_coverage 0

Core_0_L1D_total_access 19752861
Core_0_L1D_total_hit 18230458
Core_0_L1D_total_miss 1522403
Core_0_L1D_total_MPKI 30.4481
Core_0_L1D_total_miss_rate 0.0770725
Core_0_L1D_demand_access 9653243
Core_0_L1D_demand_hit 8761881
Core_0_L1D_demand_miss 891362
Core_0_L1D_demand_MPKI 17.8272
Core_0_L1D_demand_miss_rate 0.0923381
Core_0_L1D_load_access 9653243
Core_0_L1D_load_hit 8761881
Core_0_L1D_load_miss 891362
Core_0_L1D_load_MPKI 17.8272
Core_0_L1D_load_miss_rate 0.0923381
Core_0_L1D_rfo_access 0
Core_0_L1D_rfo_hit 0
Core_0_L1D_rfo_miss 0
Core_0_L1D_rfo_MPKI 0
Core_0_L1D_rfo_miss_rate 0
Core_0_L1D_prefetch_access 1270831
Core_0_L1D_prefetch_hit 783308
Core_0_L1D_prefetch_miss 487523
Core_0_L1D_prefetch_MPKI 9.75046
Core_0_L1D_prefetch_miss_rate 0.383625
Core_0_L1D_writeback_access 8828787
Core_0_L1D_writeback_hit 8685269
Core_0_L1D_writeback_miss 143518
Core_0_L1D_writeback_MPKI 2.87036
Core_0_L1D_writeback_miss_rate 0.0162557
Core_0_L1D_prefetch_requested 1303441
Core_0_L1D_prefetch_issued 1270830
Core_0_L1D_prefetch_useful 193039
Core_0_L1D_prefetch_useless 262048
Core_0_L1D_prefetch_late 10352
Core_0_L1D_prefetch_accuracy 0.1519
Core_0_L1D_prefetch_coverage 0.178014

Core_0_L2C_total_access 3368200
Core_0_L2C_total_hit 1388458
Core_0_L2C_total_miss 1979742
Core_0_L2C_total_MPKI 39.5948
Core_0_L2C_total_miss_rate 0.587774
Core_0_L2C_demand_access 821756
Core_0_L2C_demand_hit 344406
Core_0_L2C_demand_miss 477350
Core_0_L2C_demand_MPKI 9.547
Core_0_L2C_demand_miss_rate 0.58089
Core_0_L2C_load_access 736504
Core_0_L2C_load_hit 302607
Core_0_L2C_load_miss 433897
Core_0_L2C_load_MPKI 8.67794
Core_0_L2C_load_miss_rate 0.589131
Core_0_L2C_rfo_access 85252
Core_0_L2C_rfo_hit 41799
Core_0_L2C_rfo_miss 43453
Core_0_L2C_rfo_MPKI 0.86906
Core_0_L2C_rfo_miss_rate 0.509701
Core_0_L2C_prefetch_access 2069622
Core_0_L2C_prefetch_hit 568517
Core_0_L2C_prefetch_miss 1501105
Core_0_L2C_prefetch_MPKI 30.0221
Core_0_L2C_prefetch_miss_rate 0.725304
Core_0_L2C_writeback_access 476822
Core_0_L2C_writeback_hit 475535
Core_0_L2C_writeback_miss 1287
Core_0_L2C_writeback_MPKI 0.02574
Core_0_L2C_writeback_miss_rate 0.00269912
Core_0_L2C_prefetch_requested 1797119
Core_0_L2C_prefetch_issued 1614591
Core_0_L2C_prefetch_useful 156742
Core_0_L2C_prefetch_useless 500155
Core_0_L2C_prefetch_late 15488
Core_0_L2C_prefetch_accuracy 0.0970785
Core_0_L2C_prefetch_coverage 0.247191

Core_0_LLC_total_access 1851442
Core_0_LLC_total_hit 685699
Core_0_LLC_total_miss 1165743
Core_0_LLC_total_MPKI 23.3149
Core_0_LLC_total_miss_rate 0.629641
Core_0_LLC_demand_access 461862
Core_0_LLC_demand_hit 132942
Core_0_LLC_demand_miss 328920
Core_0_LLC_demand_MPKI 6.5784
Core_0_LLC_demand_miss_rate 0.712161
Core_0_LLC_load_access 421225
Core_0_LLC_load_hit 119255
Core_0_LLC_load_miss 301970
Core_0_LLC_load_MPKI 6.0394
Core_0_LLC_load_miss_rate 0.716885
Core_0_LLC_rfo_access 40637
Core_0_LLC_rfo_hit 13687
Core_0_LLC_rfo_miss 26950
Core_0_LLC_rfo_MPKI 0.539
Core_0_LLC_rfo_miss_rate 0.663189
Core_0_LLC_prefetch_access 1017600
Core_0_LLC_prefetch_hit 210465
Core_0_LLC_prefetch_miss 807135
Core_0_LLC_prefetch_MPKI 16.1427
Core_0_LLC_prefetch_miss_rate 0.793175
Core_0_LLC_writeback_access 371980
Core_0_LLC_writeback_hit 342292
Core_0_LLC_writeback_miss 29688
Core_0_LLC_writeback_MPKI 0.59376
Core_0_LLC_writeback_miss_rate 0.0798107
Core_0_LLC_prefetch_requested 0
Core_0_LLC_prefetch_issued 0
Core_0_LLC_prefetch_useful 0
Core_0_LLC_prefetch_useless 0
Core_0_LLC_prefetch_late 0
Core_0_LLC_prefetch_accuracy 0
Core_0_LLC_prefetch_coverage 0

[DRAM Statistics]
Channel_0_RQ_row_buffer_hit 19822
Channel_0_RQ_row_buffer_miss 1178006
Channel_0_WQ_row_buffer_hit 80664
Channel_0_WQ_row_buffer_miss 187313
Channel_0_WQ_full 0
Channel_0_dbus_congested 4071565
DRAM_total_RQ_row_buffer_hit 19822
DRAM_total_RQ_row_buffer_miss 1178006
DRAM_total_WQ_row_buffer_hit 80664
DRAM_total_WQ_row_buffer_miss 187313
DRAM_total_WQ_full 0
DRAM_total_dbus_congested 4071565
DRAM_avg_congested_cycle 11.9031

====== DRAM_RQ_TRAFFIC ========
DRAM_RQ_READ_TRAFFIC_BREAKDOWN:
data_demand_read.count = 327417
data_demand_read.share = 27.33%

inst_demand_read.count = 1503
inst_demand_read.share = 0.13%

cache_inst_prefetch.count = 0
cache_inst_prefetch.share = 0.00%

cache_data_prefetch.count = 807135
cache_data_prefetch.share = 67.38%

stlb_data_demand.count = 61740
stlb_data_demand.share = 5.15%

stlb_inst_demand.count = 108
stlb_inst_demand.share = 0.01%

stlb_l1i_pref.count = 0
stlb_l1i_pref.share = 0.00%

stlb_l1d_pref.count = 0
stlb_l1d_pref.share = 0.00%

DRAM_RQ_READ_TRAFFIC_SUMMARY:
cache_demand.count = 328920
cache_demand.share = 27.46%

cache_prefetch.count = 807135
cache_prefetch.share = 67.38%

stlb_demand.count = 61848
stlb_demand.share = 5.16%

stlb_prefetch.count = 0
stlb_prefetch.share = 0.00%

DRAM_RQ_READ_TRAFFIC_DEBUG:
total_classified_read.count = 1197903
unclassified_read.count = 0
total_read_with_other.count = 1197903

classified_plus_unclassified_check.count = 1197903
dram_rq_read_total_observed.count = 1197903
dram_rq_read_total_observed.per_1K_instructions = 23.9581

STLB_MISS_PTW_DRAM_TOUCH_BREAKDOWN:
stlb_miss_total.count = 244045

stlb_miss_touch_dram.count = 61826
stlb_miss_touch_dram.share = 25.33%

stlb_miss_no_dram_touch.count = 182219
stlb_miss_no_dram_touch.share = 74.67%

STLB_MISS_PTW_DRAM_TOUCH_DEBUG:
stlb_miss_touch_plus_no_touch.count = 244045
stlb_miss_total_check.count = 244045

======STLB miss causes ========
Core_0_STLB_miss_cause_breakdown
Core_0_STLB_cause_Demand_Data_miss 243201
Core_0_STLB_cause_Demand_Data_miss_rate 0.218805
Core_0_STLB_cause_Demand_Instruction_miss 844
Core_0_STLB_cause_Demand_Instruction_miss_rate 0.000759336
Core_0_STLB_cause_L1D_Prefetch_miss 0
Core_0_STLB_cause_L1D_Prefetch_miss_rate 0
Core_0_STLB_cause_L1I_Prefetch_miss 0
Core_0_STLB_cause_L1I_Prefetch_miss_rate 0
Core_0_STLB_cause_Other_miss 0
Core_0_STLB_cause_Other_miss_rate 0
Core_0_STLB_Demand_miss 244045
Core_0_STLB_Demand_miss_rate 0.219564
Core_0_STLB_L1D_Prefetch_miss 0
Core_0_STLB_L1D_Prefetch_miss_rate 0
Core_0_STLB_Other_miss 0
Core_0_STLB_Other_miss_rate 0
