[VMEM] WARNING: physical memory size is smaller than virtual memory size.

*** ChampSim Multicore Out-of-Order Simulator ***
Warmup Instructions: 20000000
Simulation Instructions: 50000000
Number of CPUs: 1
Page size: 4096
Core 0: /data0/tzh/champsim_traces/Ligra/ligra_PageRankDelta.com-lj.ungraph.gcc_6.3.0_O3.drop_24500M.length_250M.champsimtrace.xz
Off-chip DRAM Size: 16 GiB Channels: 1 Width: 64-bit Data Rate: 3205 MT/s
Warmup halting CPU 0 at instruction 20000003 cycle 4682673 for remainder of phase
Warmup finished CPU 0 instructions: 20000003 cycles: 4682673 cumulative IPC: 4.271 (Simulation time: 00 hr 01 min 05 sec)
Warmup complete CPU 0 instructions: 20000003 cycles: 4682673 cumulative IPC: 4.271 (Simulation time: 00 hr 01 min 05 sec)
Simulation finished CPU 0 instructions: 50000003 cycles: 76240368 cumulative IPC: 0.6558 (Simulation time: 00 hr 10 min 19 sec)
Simulation complete CPU 0 instructions: 50000003 cycles: 76240368 cumulative IPC: 0.6558 (Simulation time: 00 hr 10 min 19 sec)

ChampSim completed all CPUs

=== Simulation ===
CPU 0 runs /data0/tzh/champsim_traces/Ligra/ligra_PageRankDelta.com-lj.ungraph.gcc_6.3.0_O3.drop_24500M.length_250M.champsimtrace.xz

Region of Interest Statistics

CPU 0 cumulative IPC: 0.6558 instructions: 50000003 cycles: 76240368
CPU 0 Branch Prediction Accuracy: 97.34% MPKI: 2.195 Average ROB Occupancy at Mispredict: 197.2
Branch type MPKI
BRANCH_DIRECT_JUMP: 2e-05
BRANCH_INDIRECT: 0
BRANCH_CONDITIONAL: 2.195
BRANCH_DIRECT_CALL: 0
BRANCH_INDIRECT_CALL: 0
BRANCH_RETURN: 0

cpu0->cpu0_STLB TOTAL        ACCESS:     820276 HIT:     455472 MISS:     364804 MSHR_MERGE:          0
cpu0->cpu0_STLB LOAD         ACCESS:     820276 HIT:     455472 MISS:     364804 MSHR_MERGE:          0
cpu0->cpu0_STLB RFO          ACCESS:          0 HIT:          0 MISS:          0 MSHR_MERGE:          0
cpu0->cpu0_STLB PREFETCH     ACCESS:          0 HIT:          0 MISS:          0 MSHR_MERGE:          0
cpu0->cpu0_STLB WRITE        ACCESS:          0 HIT:          0 MISS:          0 MSHR_MERGE:          0
cpu0->cpu0_STLB TRANSLATION  ACCESS:          0 HIT:          0 MISS:          0 MSHR_MERGE:          0
cpu0->cpu0_STLB PREFETCH REQUESTED:          0 ISSUED:          0 USEFUL:          0 USELESS:          0 LATE:          0
cpu0->cpu0_STLB AVERAGE MISS LATENCY: 29.07 cycles
cpu0->cpu0_L2C TOTAL        ACCESS:    4880415 HIT:    1849429 MISS:    3030986 MSHR_MERGE:     801730
cpu0->cpu0_L2C LOAD         ACCESS:    1016011 HIT:     190650 MISS:     825361 MSHR_MERGE:      26472
cpu0->cpu0_L2C RFO          ACCESS:       2417 HIT:       2417 MISS:          0 MSHR_MERGE:          0
cpu0->cpu0_L2C PREFETCH     ACCESS:    2591895 HIT:     469526 MISS:    2122369 MSHR_MERGE:     775258
cpu0->cpu0_L2C WRITE        ACCESS:     988430 HIT:     988318 MISS:        112 MSHR_MERGE:          0
cpu0->cpu0_L2C TRANSLATION  ACCESS:     281662 HIT:     198518 MISS:      83144 MSHR_MERGE:          0
cpu0->cpu0_L2C PREFETCH REQUESTED:    2413546 ISSUED:    2194078 USEFUL:     153314 USELESS:     963107 LATE:      26472
cpu0->cpu0_L2C AVERAGE MISS LATENCY: 240.7 cycles
cpu0->cpu0_L1I TOTAL        ACCESS:    3170054 HIT:    3170050 MISS:          4 MSHR_MERGE:          1
cpu0->cpu0_L1I LOAD         ACCESS:    3170054 HIT:    3170050 MISS:          4 MSHR_MERGE:          1
cpu0->cpu0_L1I RFO          ACCESS:          0 HIT:          0 MISS:          0 MSHR_MERGE:          0
cpu0->cpu0_L1I PREFETCH     ACCESS:          0 HIT:          0 MISS:          0 MSHR_MERGE:          0
cpu0->cpu0_L1I WRITE        ACCESS:          0 HIT:          0 MISS:          0 MSHR_MERGE:          0
cpu0->cpu0_L1I TRANSLATION  ACCESS:          0 HIT:          0 MISS:          0 MSHR_MERGE:          0
cpu0->cpu0_L1I PREFETCH REQUESTED:          0 ISSUED:          0 USEFUL:          0 USELESS:          0 LATE:          0
cpu0->cpu0_L1I AVERAGE MISS LATENCY: 208 cycles
cpu0->cpu0_L1D TOTAL        ACCESS:   16914954 HIT:   15037049 MISS:    1877905 MSHR_MERGE:     179821
cpu0->cpu0_L1D LOAD         ACCESS:   10229977 HIT:    9042733 MISS:    1187244 MSHR_MERGE:     171232
cpu0->cpu0_L1D RFO          ACCESS:          0 HIT:          0 MISS:          0 MSHR_MERGE:          0
cpu0->cpu0_L1D PREFETCH     ACCESS:     430603 HIT:      30035 MISS:     400568 MSHR_MERGE:       2751
cpu0->cpu0_L1D WRITE        ACCESS:    5528820 HIT:    5523244 MISS:       5576 MSHR_MERGE:       2983
cpu0->cpu0_L1D TRANSLATION  ACCESS:     725554 HIT:     441037 MISS:     284517 MSHR_MERGE:       2855
cpu0->cpu0_L1D PREFETCH REQUESTED:    2184987 ISSUED:     430595 USEFUL:     143826 USELESS:     254023 LATE:       1373
cpu0->cpu0_L1D AVERAGE MISS LATENCY: 177.1 cycles
cpu0->cpu0_ITLB TOTAL        ACCESS:    2547771 HIT:    2547771 MISS:          0 MSHR_MERGE:          0
cpu0->cpu0_ITLB LOAD         ACCESS:    2547771 HIT:    2547771 MISS:          0 MSHR_MERGE:          0
cpu0->cpu0_ITLB RFO          ACCESS:          0 HIT:          0 MISS:          0 MSHR_MERGE:          0
cpu0->cpu0_ITLB PREFETCH     ACCESS:          0 HIT:          0 MISS:          0 MSHR_MERGE:          0
cpu0->cpu0_ITLB WRITE        ACCESS:          0 HIT:          0 MISS:          0 MSHR_MERGE:          0
cpu0->cpu0_ITLB TRANSLATION  ACCESS:          0 HIT:          0 MISS:          0 MSHR_MERGE:          0
cpu0->cpu0_ITLB PREFETCH REQUESTED:          0 ISSUED:          0 USEFUL:          0 USELESS:          0 LATE:          0
cpu0->cpu0_ITLB AVERAGE MISS LATENCY: - cycles
cpu0->cpu0_DTLB TOTAL        ACCESS:   15591090 HIT:   14670784 MISS:     920306 MSHR_MERGE:     100030
cpu0->cpu0_DTLB LOAD         ACCESS:   15591090 HIT:   14670784 MISS:     920306 MSHR_MERGE:     100030
cpu0->cpu0_DTLB RFO          ACCESS:          0 HIT:          0 MISS:          0 MSHR_MERGE:          0
cpu0->cpu0_DTLB PREFETCH     ACCESS:          0 HIT:          0 MISS:          0 MSHR_MERGE:          0
cpu0->cpu0_DTLB WRITE        ACCESS:          0 HIT:          0 MISS:          0 MSHR_MERGE:          0
cpu0->cpu0_DTLB TRANSLATION  ACCESS:          0 HIT:          0 MISS:          0 MSHR_MERGE:          0
cpu0->cpu0_DTLB PREFETCH REQUESTED:          0 ISSUED:          0 USEFUL:          0 USELESS:          0 LATE:          0
cpu0->cpu0_DTLB AVERAGE MISS LATENCY: 18.38 cycles
cpu0->LLC TOTAL        ACCESS:    3126972 HIT:     819423 MISS:    2307549 MSHR_MERGE:          0
cpu0->LLC LOAD         ACCESS:     798887 HIT:     181668 MISS:     617219 MSHR_MERGE:          0
cpu0->LLC RFO          ACCESS:          0 HIT:          0 MISS:          0 MSHR_MERGE:          0
cpu0->LLC PREFETCH     ACCESS:    1347111 HIT:     230666 MISS:    1116445 MSHR_MERGE:          0
cpu0->LLC WRITE        ACCESS:     897830 HIT:     327206 MISS:     570624 MSHR_MERGE:          0
cpu0->LLC TRANSLATION  ACCESS:      83144 HIT:      79883 MISS:       3261 MSHR_MERGE:          0
cpu0->LLC PREFETCH REQUESTED:          0 ISSUED:          0 USEFUL:          0 USELESS:          0 LATE:          0
cpu0->LLC AVERAGE MISS LATENCY: 171.1 cycles

DRAM Statistics

Channel 0 RQ ROW_BUFFER_HIT:      37726
  ROW_BUFFER_MISS:    1698670
  AVG DBUS CONGESTED CYCLE: 5.706
Channel 0 WQ ROW_BUFFER_HIT:     117259
  ROW_BUFFER_MISS:     577402
  FULL:          0
Channel 0 REFRESHES ISSUED:       6353

[ROI Statistics]
[System Configuration]
num_cpus 1
cpu_freq 4000
fetch_width 6
decode_width 6
dispatch_width 6
execute_width 6
lq_width 2
sq_width 2
retire_width 6
scheduler_size 128
branch_mispredict_penalty 15
rob_size 352
lq_size 128
sq_size 72
ifetch_buffer_size 64
decode_buffer_size 32
dispatch_buffer_size 32
register_file_size 288
decode_latency 1
dispatch_latency 1
schedule_latency 1
execute_latency 1
page_size 4096
block_size 64
core_0_itlb_set 16
core_0_itlb_way 4
core_0_itlb_rq_size 16
core_0_itlb_wq_size 16
core_0_itlb_pq_size 0
core_0_itlb_mshr_size 8
core_0_itlb_hit_latency 1
core_0_itlb_fill_latency 1
core_0_itlb_max_tag_check 2
core_0_itlb_max_fill 2
core_0_dtlb_set 16
core_0_dtlb_way 4
core_0_dtlb_rq_size 16
core_0_dtlb_wq_size 16
core_0_dtlb_pq_size 0
core_0_dtlb_mshr_size 8
core_0_dtlb_hit_latency 1
core_0_dtlb_fill_latency 1
core_0_dtlb_max_tag_check 2
core_0_dtlb_max_fill 2
core_0_stlb_set 128
core_0_stlb_way 12
core_0_stlb_rq_size 32
core_0_stlb_wq_size 32
core_0_stlb_pq_size 0
core_0_stlb_mshr_size 16
core_0_stlb_hit_latency 4
core_0_stlb_fill_latency 4
core_0_stlb_max_tag_check 1
core_0_stlb_max_fill 1
core_0_l1i_set 64
core_0_l1i_way 8
core_0_l1i_rq_size 64
core_0_l1i_wq_size 64
core_0_l1i_pq_size 32
core_0_l1i_mshr_size 8
core_0_l1i_hit_latency 2
core_0_l1i_fill_latency 2
core_0_l1i_max_tag_check 2
core_0_l1i_max_fill 2
core_0_l1d_set 64
core_0_l1d_way 12
core_0_l1d_rq_size 64
core_0_l1d_wq_size 64
core_0_l1d_pq_size 8
core_0_l1d_mshr_size 16
core_0_l1d_hit_latency 2
core_0_l1d_fill_latency 3
core_0_l1d_max_tag_check 2
core_0_l1d_max_fill 2
core_0_l2c_set 1024
core_0_l2c_way 8
core_0_l2c_rq_size 32
core_0_l2c_wq_size 32
core_0_l2c_pq_size 16
core_0_l2c_mshr_size 32
core_0_l2c_hit_latency 5
core_0_l2c_fill_latency 5
core_0_l2c_max_tag_check 1
core_0_l2c_max_fill 1
llc_set 2048
llc_way 16
llc_rq_size 32
llc_wq_size 32
llc_pq_size 32
llc_mshr_size 64
llc_hit_latency 10
llc_fill_latency 10
llc_max_tag_check 1
llc_max_fill 1
dram_channels 1
dram_ranks 1
dram_bankgroups 8
dram_banks 4
dram_rows 65536
dram_columns 1024
dram_channel_width 8
dram_rq_size 64
dram_wq_size 64
dram_size 17179869184
core_0_itlb_prefetcher no
core_0_dtlb_prefetcher no
core_0_stlb_prefetcher no
core_0_l1i_prefetcher next_line
core_0_l1d_prefetcher sms
core_0_l2c_prefetcher pythia
llc_prefetcher no
llc_replacement drrip

Core_0_instructions 50000003
Core_0_cycles 76240368
Core_0_IPC 0.655821
Core_0_branch_prediction_accuracy 97.3389
Core_0_branch_MPKI 2.19478
Core_0_average_ROB_occupancy_at_mispredict 197.15

Core_0_ITLB_total_access 2547771
Core_0_ITLB_total_hit 2547771
Core_0_ITLB_total_miss 0
Core_0_ITLB_total_MPKI 0
Core_0_ITLB_total_miss_rate 0
Core_0_ITLB_demand_access 2547771
Core_0_ITLB_demand_hit 2547771
Core_0_ITLB_demand_miss 0
Core_0_ITLB_demand_MPKI 0
Core_0_ITLB_demand_miss_rate 0
Core_0_ITLB_load_access 2547771
Core_0_ITLB_load_hit 2547771
Core_0_ITLB_load_miss 0
Core_0_ITLB_load_MPKI 0
Core_0_ITLB_load_miss_rate 0
Core_0_ITLB_rfo_access 0
Core_0_ITLB_rfo_hit 0
Core_0_ITLB_rfo_miss 0
Core_0_ITLB_rfo_MPKI 0
Core_0_ITLB_rfo_miss_rate 0
Core_0_ITLB_prefetch_access 0
Core_0_ITLB_prefetch_hit 0
Core_0_ITLB_prefetch_miss 0
Core_0_ITLB_prefetch_MPKI 0
Core_0_ITLB_prefetch_miss_rate 0
Core_0_ITLB_writeback_access 0
Core_0_ITLB_writeback_hit 0
Core_0_ITLB_writeback_miss 0
Core_0_ITLB_writeback_MPKI 0
Core_0_ITLB_writeback_miss_rate 0
Core_0_ITLB_prefetch_requested 0
Core_0_ITLB_prefetch_issued 0
Core_0_ITLB_prefetch_useful 0
Core_0_ITLB_prefetch_useless 0
Core_0_ITLB_prefetch_late 0
Core_0_ITLB_prefetch_accuracy 0
Core_0_ITLB_prefetch_coverage 0

Core_0_DTLB_total_access 15591090
Core_0_DTLB_total_hit 14670784
Core_0_DTLB_total_miss 920306
Core_0_DTLB_total_MPKI 18.4061
Core_0_DTLB_total_miss_rate 0.0590277
Core_0_DTLB_demand_access 15591090
Core_0_DTLB_demand_hit 14670784
Core_0_DTLB_demand_miss 920306
Core_0_DTLB_demand_MPKI 18.4061
Core_0_DTLB_demand_miss_rate 0.0590277
Core_0_DTLB_load_access 15591090
Core_0_DTLB_load_hit 14670784
Core_0_DTLB_load_miss 920306
Core_0_DTLB_load_MPKI 18.4061
Core_0_DTLB_load_miss_rate 0.0590277
Core_0_DTLB_rfo_access 0
Core_0_DTLB_rfo_hit 0
Core_0_DTLB_rfo_miss 0
Core_0_DTLB_rfo_MPKI 0
Core_0_DTLB_rfo_miss_rate 0
Core_0_DTLB_prefetch_access 0
Core_0_DTLB_prefetch_hit 0
Core_0_DTLB_prefetch_miss 0
Core_0_DTLB_prefetch_MPKI 0
Core_0_DTLB_prefetch_miss_rate 0
Core_0_DTLB_writeback_access 0
Core_0_DTLB_writeback_hit 0
Core_0_DTLB_writeback_miss 0
Core_0_DTLB_writeback_MPKI 0
Core_0_DTLB_writeback_miss_rate 0
Core_0_DTLB_prefetch_requested 0
Core_0_DTLB_prefetch_issued 0
Core_0_DTLB_prefetch_useful 0
Core_0_DTLB_prefetch_useless 0
Core_0_DTLB_prefetch_late 0
Core_0_DTLB_prefetch_accuracy 0
Core_0_DTLB_prefetch_coverage 0

Core_0_STLB_total_access 820276
Core_0_STLB_total_hit 455472
Core_0_STLB_total_miss 364804
Core_0_STLB_total_MPKI 7.29608
Core_0_STLB_total_miss_rate 0.444733
Core_0_STLB_demand_access 820276
Core_0_STLB_demand_hit 455472
Core_0_STLB_demand_miss 364804
Core_0_STLB_demand_MPKI 7.29608
Core_0_STLB_demand_miss_rate 0.444733
Core_0_STLB_load_access 820276
Core_0_STLB_load_hit 455472
Core_0_STLB_load_miss 364804
Core_0_STLB_load_MPKI 7.29608
Core_0_STLB_load_miss_rate 0.444733
Core_0_STLB_rfo_access 0
Core_0_STLB_rfo_hit 0
Core_0_STLB_rfo_miss 0
Core_0_STLB_rfo_MPKI 0
Core_0_STLB_rfo_miss_rate 0
Core_0_STLB_prefetch_access 0
Core_0_STLB_prefetch_hit 0
Core_0_STLB_prefetch_miss 0
Core_0_STLB_prefetch_MPKI 0
Core_0_STLB_prefetch_miss_rate 0
Core_0_STLB_writeback_access 0
Core_0_STLB_writeback_hit 0
Core_0_STLB_writeback_miss 0
Core_0_STLB_writeback_MPKI 0
Core_0_STLB_writeback_miss_rate 0
Core_0_STLB_prefetch_requested 0
Core_0_STLB_prefetch_issued 0
Core_0_STLB_prefetch_useful 0
Core_0_STLB_prefetch_useless 0
Core_0_STLB_prefetch_late 0
Core_0_STLB_prefetch_accuracy 0
Core_0_STLB_prefetch_coverage 0

Core_0_L1I_total_access 3170054
Core_0_L1I_total_hit 3170050
Core_0_L1I_total_miss 4
Core_0_L1I_total_MPKI 8e-05
Core_0_L1I_total_miss_rate 1.26181e-06
Core_0_L1I_demand_access 3170054
Core_0_L1I_demand_hit 3170050
Core_0_L1I_demand_miss 4
Core_0_L1I_demand_MPKI 8e-05
Core_0_L1I_demand_miss_rate 1.26181e-06
Core_0_L1I_load_access 3170054
Core_0_L1I_load_hit 3170050
Core_0_L1I_load_miss 4
Core_0_L1I_load_MPKI 8e-05
Core_0_L1I_load_miss_rate 1.26181e-06
Core_0_L1I_rfo_access 0
Core_0_L1I_rfo_hit 0
Core_0_L1I_rfo_miss 0
Core_0_L1I_rfo_MPKI 0
Core_0_L1I_rfo_miss_rate 0
Core_0_L1I_prefetch_access 0
Core_0_L1I_prefetch_hit 0
Core_0_L1I_prefetch_miss 0
Core_0_L1I_prefetch_MPKI 0
Core_0_L1I_prefetch_miss_rate 0
Core_0_L1I_writeback_access 0
Core_0_L1I_writeback_hit 0
Core_0_L1I_writeback_miss 0
Core_0_L1I_writeback_MPKI 0
Core_0_L1I_writeback_miss_rate 0
Core_0_L1I_prefetch_requested 0
Core_0_L1I_prefetch_issued 0
Core_0_L1I_prefetch_useful 0
Core_0_L1I_prefetch_useless 0
Core_0_L1I_prefetch_late 0
Core_0_L1I_prefetch_accuracy 0
Core_0_L1I_prefetch_coverage 0

Core_0_L1D_total_access 16189400
Core_0_L1D_total_hit 14596012
Core_0_L1D_total_miss 1593388
Core_0_L1D_total_MPKI 31.8678
Core_0_L1D_total_miss_rate 0.0984217
Core_0_L1D_demand_access 10229977
Core_0_L1D_demand_hit 9042733
Core_0_L1D_demand_miss 1187244
Core_0_L1D_demand_MPKI 23.7449
Core_0_L1D_demand_miss_rate 0.116055
Core_0_L1D_load_access 10229977
Core_0_L1D_load_hit 9042733
Core_0_L1D_load_miss 1187244
Core_0_L1D_load_MPKI 23.7449
Core_0_L1D_load_miss_rate 0.116055
Core_0_L1D_rfo_access 0
Core_0_L1D_rfo_hit 0
Core_0_L1D_rfo_miss 0
Core_0_L1D_rfo_MPKI 0
Core_0_L1D_rfo_miss_rate 0
Core_0_L1D_prefetch_access 430603
Core_0_L1D_prefetch_hit 30035
Core_0_L1D_prefetch_miss 400568
Core_0_L1D_prefetch_MPKI 8.01136
Core_0_L1D_prefetch_miss_rate 0.930249
Core_0_L1D_writeback_access 5528820
Core_0_L1D_writeback_hit 5523244
Core_0_L1D_writeback_miss 5576
Core_0_L1D_writeback_MPKI 0.11152
Core_0_L1D_writeback_miss_rate 0.00100853
Core_0_L1D_prefetch_requested 2184987
Core_0_L1D_prefetch_issued 430595
Core_0_L1D_prefetch_useful 143826
Core_0_L1D_prefetch_useless 254023
Core_0_L1D_prefetch_late 1373
Core_0_L1D_prefetch_accuracy 0.334017
Core_0_L1D_prefetch_coverage 0.108053

Core_0_L2C_total_access 4598753
Core_0_L2C_total_hit 1650911
Core_0_L2C_total_miss 2947842
Core_0_L2C_total_MPKI 58.9568
Core_0_L2C_total_miss_rate 0.641009
Core_0_L2C_demand_access 1018428
Core_0_L2C_demand_hit 193067
Core_0_L2C_demand_miss 825361
Core_0_L2C_demand_MPKI 16.5072
Core_0_L2C_demand_miss_rate 0.810426
Core_0_L2C_load_access 1016011
Core_0_L2C_load_hit 190650
Core_0_L2C_load_miss 825361
Core_0_L2C_load_MPKI 16.5072
Core_0_L2C_load_miss_rate 0.812354
Core_0_L2C_rfo_access 2417
Core_0_L2C_rfo_hit 2417
Core_0_L2C_rfo_miss 0
Core_0_L2C_rfo_MPKI 0
Core_0_L2C_rfo_miss_rate 0
Core_0_L2C_prefetch_access 2591895
Core_0_L2C_prefetch_hit 469526
Core_0_L2C_prefetch_miss 2122369
Core_0_L2C_prefetch_MPKI 42.4474
Core_0_L2C_prefetch_miss_rate 0.818848
Core_0_L2C_writeback_access 988430
Core_0_L2C_writeback_hit 988318
Core_0_L2C_writeback_miss 112
Core_0_L2C_writeback_MPKI 0.00224
Core_0_L2C_writeback_miss_rate 0.000113311
Core_0_L2C_prefetch_requested 2413546
Core_0_L2C_prefetch_issued 2194078
Core_0_L2C_prefetch_useful 153314
Core_0_L2C_prefetch_useless 963107
Core_0_L2C_prefetch_late 26472
Core_0_L2C_prefetch_accuracy 0.0698763
Core_0_L2C_prefetch_coverage 0.156655

Core_0_LLC_total_access 3043828
Core_0_LLC_total_hit 739540
Core_0_LLC_total_miss 2304288
Core_0_LLC_total_MPKI 46.0858
Core_0_LLC_total_miss_rate 0.757036
Core_0_LLC_demand_access 798887
Core_0_LLC_demand_hit 181668
Core_0_LLC_demand_miss 617219
Core_0_LLC_demand_MPKI 12.3444
Core_0_LLC_demand_miss_rate 0.772599
Core_0_LLC_load_access 798887
Core_0_LLC_load_hit 181668
Core_0_LLC_load_miss 617219
Core_0_LLC_load_MPKI 12.3444
Core_0_LLC_load_miss_rate 0.772599
Core_0_LLC_rfo_access 0
Core_0_LLC_rfo_hit 0
Core_0_LLC_rfo_miss 0
Core_0_LLC_rfo_MPKI 0
Core_0_LLC_rfo_miss_rate 0
Core_0_LLC_prefetch_access 1347111
Core_0_LLC_prefetch_hit 230666
Core_0_LLC_prefetch_miss 1116445
Core_0_LLC_prefetch_MPKI 22.3289
Core_0_LLC_prefetch_miss_rate 0.82877
Core_0_LLC_writeback_access 897830
Core_0_LLC_writeback_hit 327206
Core_0_LLC_writeback_miss 570624
Core_0_LLC_writeback_MPKI 11.4125
Core_0_LLC_writeback_miss_rate 0.635559
Core_0_LLC_prefetch_requested 0
Core_0_LLC_prefetch_issued 0
Core_0_LLC_prefetch_useful 0
Core_0_LLC_prefetch_useless 0
Core_0_LLC_prefetch_late 0
Core_0_LLC_prefetch_accuracy 0
Core_0_LLC_prefetch_coverage 0

[DRAM Statistics]
Channel_0_RQ_row_buffer_hit 37726
Channel_0_RQ_row_buffer_miss 1698670
Channel_0_WQ_row_buffer_hit 117259
Channel_0_WQ_row_buffer_miss 577402
Channel_0_WQ_full 0
Channel_0_dbus_congested 7130245
DRAM_total_RQ_row_buffer_hit 37726
DRAM_total_RQ_row_buffer_miss 1698670
DRAM_total_WQ_row_buffer_hit 117259
DRAM_total_WQ_row_buffer_miss 577402
DRAM_total_WQ_full 0
DRAM_total_dbus_congested 7130245
DRAM_avg_congested_cycle 5.70599

====== DRAM_RQ_TRAFFIC ========
DRAM_RQ_READ_TRAFFIC_BREAKDOWN:
data_demand_read.count = 617216
data_demand_read.share = 35.53%

inst_demand_read.count = 3
inst_demand_read.share = 0.00%

cache_inst_prefetch.count = 0
cache_inst_prefetch.share = 0.00%

cache_data_prefetch.count = 1116445
cache_data_prefetch.share = 64.28%

stlb_data_demand.count = 3261
stlb_data_demand.share = 0.19%

stlb_inst_demand.count = 0
stlb_inst_demand.share = 0.00%

stlb_l1i_pref.count = 0
stlb_l1i_pref.share = 0.00%

stlb_l1d_pref.count = 0
stlb_l1d_pref.share = 0.00%

DRAM_RQ_READ_TRAFFIC_SUMMARY:
cache_demand.count = 617219
cache_demand.share = 35.54%

cache_prefetch.count = 1116445
cache_prefetch.share = 64.28%

stlb_demand.count = 3261
stlb_demand.share = 0.19%

stlb_prefetch.count = 0
stlb_prefetch.share = 0.00%

DRAM_RQ_READ_TRAFFIC_DEBUG:
total_classified_read.count = 1736925
unclassified_read.count = 0
total_read_with_other.count = 1736925

classified_plus_unclassified_check.count = 1736925
dram_rq_read_total_observed.count = 1736925
dram_rq_read_total_observed.per_1K_instructions = 34.7385

STLB_MISS_PTW_DRAM_TOUCH_BREAKDOWN:
stlb_miss_total.count = 364804

stlb_miss_touch_dram.count = 3254
stlb_miss_touch_dram.share = 0.89%

stlb_miss_no_dram_touch.count = 361550
stlb_miss_no_dram_touch.share = 99.11%

STLB_MISS_PTW_DRAM_TOUCH_DEBUG:
stlb_miss_touch_plus_no_touch.count = 364804
stlb_miss_total_check.count = 364804

======STLB miss causes ========
Core_0_STLB_miss_cause_breakdown
Core_0_STLB_cause_Demand_Data_miss 364804
Core_0_STLB_cause_Demand_Data_miss_rate 0.444733
Core_0_STLB_cause_Demand_Instruction_miss 0
Core_0_STLB_cause_Demand_Instruction_miss_rate 0
Core_0_STLB_cause_L1D_Prefetch_miss 0
Core_0_STLB_cause_L1D_Prefetch_miss_rate 0
Core_0_STLB_cause_L1I_Prefetch_miss 0
Core_0_STLB_cause_L1I_Prefetch_miss_rate 0
Core_0_STLB_cause_Other_miss 0
Core_0_STLB_cause_Other_miss_rate 0
Core_0_STLB_Demand_miss 364804
Core_0_STLB_Demand_miss_rate 0.444733
Core_0_STLB_L1D_Prefetch_miss 0
Core_0_STLB_L1D_Prefetch_miss_rate 0
Core_0_STLB_Other_miss 0
Core_0_STLB_Other_miss_rate 0
