[VMEM] WARNING: physical memory size is smaller than virtual memory size.

*** ChampSim Multicore Out-of-Order Simulator ***
Warmup Instructions: 20000000
Simulation Instructions: 50000000
Number of CPUs: 1
Page size: 4096
STLB ideal mode: all
Core 0: /data0/tzh/champsim_traces/SPEC06/483.xalancbmk-716B.champsimtrace.xz
 L1D Berti prefetcher
Off-chip DRAM Size: 16 GiB Channels: 1 Width: 64-bit Data Rate: 3205 MT/s
Warmup halting CPU 0 at instruction 20000005 cycle 4022550 for remainder of phase
Warmup finished CPU 0 instructions: 20000005 cycles: 4022550 cumulative IPC: 4.972 (Simulation time: 00 hr 00 min 51 sec)
Warmup complete CPU 0 instructions: 20000005 cycles: 4022550 cumulative IPC: 4.972 (Simulation time: 00 hr 00 min 51 sec)
Simulation finished CPU 0 instructions: 50000001 cycles: 29778071 cumulative IPC: 1.679 (Simulation time: 00 hr 05 min 13 sec)
Simulation complete CPU 0 instructions: 50000001 cycles: 29778071 cumulative IPC: 1.679 (Simulation time: 00 hr 05 min 13 sec)

ChampSim completed all CPUs

=== Simulation ===
CPU 0 runs /data0/tzh/champsim_traces/SPEC06/483.xalancbmk-716B.champsimtrace.xz

Region of Interest Statistics

CPU 0 cumulative IPC: 1.679 instructions: 50000001 cycles: 29778071
CPU 0 Branch Prediction Accuracy: 98.2% MPKI: 4.715 Average ROB Occupancy at Mispredict: 54.42
Branch type MPKI
BRANCH_DIRECT_JUMP: 0.0076
BRANCH_INDIRECT: 0.2231
BRANCH_CONDITIONAL: 2.662
BRANCH_DIRECT_CALL: 0.08324
BRANCH_INDIRECT_CALL: 0.3313
BRANCH_RETURN: 1.407

cpu0->cpu0_STLB TOTAL        ACCESS:     420957 HIT:     420957 MISS:          0 MSHR_MERGE:          0
cpu0->cpu0_STLB LOAD         ACCESS:     420957 HIT:     420957 MISS:          0 MSHR_MERGE:          0
cpu0->cpu0_STLB RFO          ACCESS:          0 HIT:          0 MISS:          0 MSHR_MERGE:          0
cpu0->cpu0_STLB PREFETCH     ACCESS:          0 HIT:          0 MISS:          0 MSHR_MERGE:          0
cpu0->cpu0_STLB WRITE        ACCESS:          0 HIT:          0 MISS:          0 MSHR_MERGE:          0
cpu0->cpu0_STLB TRANSLATION  ACCESS:          0 HIT:          0 MISS:          0 MSHR_MERGE:          0
cpu0->cpu0_STLB PREFETCH REQUESTED:          0 ISSUED:          0 USEFUL:          0 USELESS:          0 LATE:          0
cpu0->cpu0_STLB AVERAGE MISS LATENCY: - cycles
cpu0->cpu0_L2C TOTAL        ACCESS:     888456 HIT:     638902 MISS:     249554 MSHR_MERGE:      32438
cpu0->cpu0_L2C LOAD         ACCESS:     220950 HIT:     158625 MISS:      62325 MSHR_MERGE:       3045
cpu0->cpu0_L2C RFO          ACCESS:      53655 HIT:       6209 MISS:      47446 MSHR_MERGE:         59
cpu0->cpu0_L2C PREFETCH     ACCESS:     501088 HIT:     361460 MISS:     139628 MSHR_MERGE:      29334
cpu0->cpu0_L2C WRITE        ACCESS:     112763 HIT:     112608 MISS:        155 MSHR_MERGE:          0
cpu0->cpu0_L2C TRANSLATION  ACCESS:          0 HIT:          0 MISS:          0 MSHR_MERGE:          0
cpu0->cpu0_L2C PREFETCH REQUESTED:     406007 ISSUED:     404648 USEFUL:      30471 USELESS:      59261 LATE:       3104
cpu0->cpu0_L2C AVERAGE MISS LATENCY: 169.3 cycles
cpu0->cpu0_L1I TOTAL        ACCESS:    7429860 HIT:    7383914 MISS:      45946 MSHR_MERGE:       9389
cpu0->cpu0_L1I LOAD         ACCESS:    7429860 HIT:    7383914 MISS:      45946 MSHR_MERGE:       9389
cpu0->cpu0_L1I RFO          ACCESS:          0 HIT:          0 MISS:          0 MSHR_MERGE:          0
cpu0->cpu0_L1I PREFETCH     ACCESS:          0 HIT:          0 MISS:          0 MSHR_MERGE:          0
cpu0->cpu0_L1I WRITE        ACCESS:          0 HIT:          0 MISS:          0 MSHR_MERGE:          0
cpu0->cpu0_L1I TRANSLATION  ACCESS:          0 HIT:          0 MISS:          0 MSHR_MERGE:          0
cpu0->cpu0_L1I PREFETCH REQUESTED:          0 ISSUED:          0 USEFUL:          0 USELESS:          0 LATE:          0
cpu0->cpu0_L1I AVERAGE MISS LATENCY: 26.71 cycles
cpu0->cpu0_L1D TOTAL        ACCESS:   12306810 HIT:   11665641 MISS:     641169 MSHR_MERGE:     306676
cpu0->cpu0_L1D LOAD         ACCESS:    8223585 HIT:    7970289 MISS:     253296 MSHR_MERGE:      68902
cpu0->cpu0_L1D RFO          ACCESS:          0 HIT:          0 MISS:          0 MSHR_MERGE:          0
cpu0->cpu0_L1D PREFETCH     ACCESS:     599004 HIT:     491980 MISS:     107024 MSHR_MERGE:      10583
cpu0->cpu0_L1D WRITE        ACCESS:    3484221 HIT:    3203372 MISS:     280849 MSHR_MERGE:     227191
cpu0->cpu0_L1D TRANSLATION  ACCESS:          0 HIT:          0 MISS:          0 MSHR_MERGE:          0
cpu0->cpu0_L1D PREFETCH REQUESTED:     605614 ISSUED:     599004 USEFUL:      71342 USELESS:      25082 LATE:       6387
cpu0->cpu0_L1D AVERAGE MISS LATENCY: 83.43 cycles
cpu0->cpu0_ITLB TOTAL        ACCESS:    6950362 HIT:    6884763 MISS:      65599 MSHR_MERGE:      33283
cpu0->cpu0_ITLB LOAD         ACCESS:    6950362 HIT:    6884763 MISS:      65599 MSHR_MERGE:      33283
cpu0->cpu0_ITLB RFO          ACCESS:          0 HIT:          0 MISS:          0 MSHR_MERGE:          0
cpu0->cpu0_ITLB PREFETCH     ACCESS:          0 HIT:          0 MISS:          0 MSHR_MERGE:          0
cpu0->cpu0_ITLB WRITE        ACCESS:          0 HIT:          0 MISS:          0 MSHR_MERGE:          0
cpu0->cpu0_ITLB TRANSLATION  ACCESS:          0 HIT:          0 MISS:          0 MSHR_MERGE:          0
cpu0->cpu0_ITLB PREFETCH REQUESTED:          0 ISSUED:          0 USEFUL:          0 USELESS:          0 LATE:          0
cpu0->cpu0_ITLB AVERAGE MISS LATENCY: 5.004 cycles
cpu0->cpu0_DTLB TOTAL        ACCESS:   11728544 HIT:   11113539 MISS:     615005 MSHR_MERGE:     226364
cpu0->cpu0_DTLB LOAD         ACCESS:   11728544 HIT:   11113539 MISS:     615005 MSHR_MERGE:     226364
cpu0->cpu0_DTLB RFO          ACCESS:          0 HIT:          0 MISS:          0 MSHR_MERGE:          0
cpu0->cpu0_DTLB PREFETCH     ACCESS:          0 HIT:          0 MISS:          0 MSHR_MERGE:          0
cpu0->cpu0_DTLB WRITE        ACCESS:          0 HIT:          0 MISS:          0 MSHR_MERGE:          0
cpu0->cpu0_DTLB TRANSLATION  ACCESS:          0 HIT:          0 MISS:          0 MSHR_MERGE:          0
cpu0->cpu0_DTLB PREFETCH REQUESTED:          0 ISSUED:          0 USEFUL:          0 USELESS:          0 LATE:          0
cpu0->cpu0_DTLB AVERAGE MISS LATENCY: 5.005 cycles
cpu0->LLC TOTAL        ACCESS:     314325 HIT:     104713 MISS:     209612 MSHR_MERGE:          0
cpu0->LLC LOAD         ACCESS:      59280 HIT:      21568 MISS:      37712 MSHR_MERGE:          0
cpu0->LLC RFO          ACCESS:      47387 HIT:      11399 MISS:      35988 MSHR_MERGE:          0
cpu0->LLC PREFETCH     ACCESS:     110294 HIT:      19569 MISS:      90725 MSHR_MERGE:          0
cpu0->LLC WRITE        ACCESS:      97364 HIT:      52177 MISS:      45187 MSHR_MERGE:          0
cpu0->LLC TRANSLATION  ACCESS:          0 HIT:          0 MISS:          0 MSHR_MERGE:          0
cpu0->LLC PREFETCH REQUESTED:          0 ISSUED:          0 USEFUL:          0 USELESS:          0 LATE:          0
cpu0->LLC AVERAGE MISS LATENCY: 139.8 cycles

DRAM Statistics

Channel 0 RQ ROW_BUFFER_HIT:       1636
  ROW_BUFFER_MISS:     162772
  AVG DBUS CONGESTED CYCLE: 10.14
Channel 0 WQ ROW_BUFFER_HIT:       8948
  ROW_BUFFER_MISS:      46480
  FULL:          0
Channel 0 REFRESHES ISSUED:       2481

[ROI Statistics]
[System Configuration]
num_cpus 1
cpu_freq 4000
fetch_width 6
decode_width 6
dispatch_width 6
execute_width 6
lq_width 2
sq_width 2
retire_width 6
scheduler_size 128
branch_mispredict_penalty 15
rob_size 352
lq_size 128
sq_size 72
ifetch_buffer_size 64
decode_buffer_size 32
dispatch_buffer_size 32
register_file_size 288
decode_latency 1
dispatch_latency 1
schedule_latency 1
execute_latency 1
page_size 4096
block_size 64
core_0_itlb_set 16
core_0_itlb_way 4
core_0_itlb_rq_size 16
core_0_itlb_wq_size 16
core_0_itlb_pq_size 0
core_0_itlb_mshr_size 8
core_0_itlb_hit_latency 1
core_0_itlb_fill_latency 1
core_0_itlb_max_tag_check 2
core_0_itlb_max_fill 2
core_0_dtlb_set 16
core_0_dtlb_way 4
core_0_dtlb_rq_size 16
core_0_dtlb_wq_size 16
core_0_dtlb_pq_size 0
core_0_dtlb_mshr_size 8
core_0_dtlb_hit_latency 1
core_0_dtlb_fill_latency 1
core_0_dtlb_max_tag_check 2
core_0_dtlb_max_fill 2
core_0_stlb_set 128
core_0_stlb_way 12
core_0_stlb_rq_size 32
core_0_stlb_wq_size 32
core_0_stlb_pq_size 0
core_0_stlb_mshr_size 16
core_0_stlb_hit_latency 4
core_0_stlb_fill_latency 4
core_0_stlb_max_tag_check 1
core_0_stlb_max_fill 1
core_0_l1i_set 64
core_0_l1i_way 8
core_0_l1i_rq_size 64
core_0_l1i_wq_size 64
core_0_l1i_pq_size 32
core_0_l1i_mshr_size 8
core_0_l1i_hit_latency 2
core_0_l1i_fill_latency 2
core_0_l1i_max_tag_check 2
core_0_l1i_max_fill 2
core_0_l1d_set 64
core_0_l1d_way 12
core_0_l1d_rq_size 64
core_0_l1d_wq_size 64
core_0_l1d_pq_size 8
core_0_l1d_mshr_size 16
core_0_l1d_hit_latency 2
core_0_l1d_fill_latency 3
core_0_l1d_max_tag_check 2
core_0_l1d_max_fill 2
core_0_l2c_set 1024
core_0_l2c_way 8
core_0_l2c_rq_size 32
core_0_l2c_wq_size 32
core_0_l2c_pq_size 16
core_0_l2c_mshr_size 32
core_0_l2c_hit_latency 5
core_0_l2c_fill_latency 5
core_0_l2c_max_tag_check 1
core_0_l2c_max_fill 1
llc_set 2048
llc_way 16
llc_rq_size 32
llc_wq_size 32
llc_pq_size 32
llc_mshr_size 64
llc_hit_latency 10
llc_fill_latency 10
llc_max_tag_check 1
llc_max_fill 1
dram_channels 1
dram_ranks 1
dram_bankgroups 8
dram_banks 4
dram_rows 65536
dram_columns 1024
dram_channel_width 8
dram_rq_size 64
dram_wq_size 64
dram_size 17179869184
core_0_itlb_prefetcher no
core_0_dtlb_prefetcher no
core_0_stlb_prefetcher no
core_0_l1i_prefetcher next_line
core_0_l1d_prefetcher berti
core_0_l2c_prefetcher pythia
llc_prefetcher no
llc_replacement drrip

Core_0_instructions 50000001
Core_0_cycles 29778071
Core_0_IPC 1.67909
Core_0_branch_prediction_accuracy 98.2025
Core_0_branch_MPKI 4.71486
Core_0_average_ROB_occupancy_at_mispredict 54.4218

Core_0_ITLB_total_access 6950362
Core_0_ITLB_total_hit 6884763
Core_0_ITLB_total_miss 65599
Core_0_ITLB_total_MPKI 1.31198
Core_0_ITLB_total_miss_rate 0.00943821
Core_0_ITLB_demand_access 6950362
Core_0_ITLB_demand_hit 6884763
Core_0_ITLB_demand_miss 65599
Core_0_ITLB_demand_MPKI 1.31198
Core_0_ITLB_demand_miss_rate 0.00943821
Core_0_ITLB_load_access 6950362
Core_0_ITLB_load_hit 6884763
Core_0_ITLB_load_miss 65599
Core_0_ITLB_load_MPKI 1.31198
Core_0_ITLB_load_miss_rate 0.00943821
Core_0_ITLB_rfo_access 0
Core_0_ITLB_rfo_hit 0
Core_0_ITLB_rfo_miss 0
Core_0_ITLB_rfo_MPKI 0
Core_0_ITLB_rfo_miss_rate 0
Core_0_ITLB_prefetch_access 0
Core_0_ITLB_prefetch_hit 0
Core_0_ITLB_prefetch_miss 0
Core_0_ITLB_prefetch_MPKI 0
Core_0_ITLB_prefetch_miss_rate 0
Core_0_ITLB_writeback_access 0
Core_0_ITLB_writeback_hit 0
Core_0_ITLB_writeback_miss 0
Core_0_ITLB_writeback_MPKI 0
Core_0_ITLB_writeback_miss_rate 0
Core_0_ITLB_prefetch_requested 0
Core_0_ITLB_prefetch_issued 0
Core_0_ITLB_prefetch_useful 0
Core_0_ITLB_prefetch_useless 0
Core_0_ITLB_prefetch_late 0
Core_0_ITLB_prefetch_accuracy 0
Core_0_ITLB_prefetch_coverage 0

Core_0_DTLB_total_access 11728544
Core_0_DTLB_total_hit 11113539
Core_0_DTLB_total_miss 615005
Core_0_DTLB_total_MPKI 12.3001
Core_0_DTLB_total_miss_rate 0.0524366
Core_0_DTLB_demand_access 11728544
Core_0_DTLB_demand_hit 11113539
Core_0_DTLB_demand_miss 615005
Core_0_DTLB_demand_MPKI 12.3001
Core_0_DTLB_demand_miss_rate 0.0524366
Core_0_DTLB_load_access 11728544
Core_0_DTLB_load_hit 11113539
Core_0_DTLB_load_miss 615005
Core_0_DTLB_load_MPKI 12.3001
Core_0_DTLB_load_miss_rate 0.0524366
Core_0_DTLB_rfo_access 0
Core_0_DTLB_rfo_hit 0
Core_0_DTLB_rfo_miss 0
Core_0_DTLB_rfo_MPKI 0
Core_0_DTLB_rfo_miss_rate 0
Core_0_DTLB_prefetch_access 0
Core_0_DTLB_prefetch_hit 0
Core_0_DTLB_prefetch_miss 0
Core_0_DTLB_prefetch_MPKI 0
Core_0_DTLB_prefetch_miss_rate 0
Core_0_DTLB_writeback_access 0
Core_0_DTLB_writeback_hit 0
Core_0_DTLB_writeback_miss 0
Core_0_DTLB_writeback_MPKI 0
Core_0_DTLB_writeback_miss_rate 0
Core_0_DTLB_prefetch_requested 0
Core_0_DTLB_prefetch_issued 0
Core_0_DTLB_prefetch_useful 0
Core_0_DTLB_prefetch_useless 0
Core_0_DTLB_prefetch_late 0
Core_0_DTLB_prefetch_accuracy 0
Core_0_DTLB_prefetch_coverage 0

Core_0_STLB_total_access 420957
Core_0_STLB_total_hit 420957
Core_0_STLB_total_miss 0
Core_0_STLB_total_MPKI 0
Core_0_STLB_total_miss_rate 0
Core_0_STLB_demand_access 420957
Core_0_STLB_demand_hit 420957
Core_0_STLB_demand_miss 0
Core_0_STLB_demand_MPKI 0
Core_0_STLB_demand_miss_rate 0
Core_0_STLB_load_access 420957
Core_0_STLB_load_hit 420957
Core_0_STLB_load_miss 0
Core_0_STLB_load_MPKI 0
Core_0_STLB_load_miss_rate 0
Core_0_STLB_rfo_access 0
Core_0_STLB_rfo_hit 0
Core_0_STLB_rfo_miss 0
Core_0_STLB_rfo_MPKI 0
Core_0_STLB_rfo_miss_rate 0
Core_0_STLB_prefetch_access 0
Core_0_STLB_prefetch_hit 0
Core_0_STLB_prefetch_miss 0
Core_0_STLB_prefetch_MPKI 0
Core_0_STLB_prefetch_miss_rate 0
Core_0_STLB_writeback_access 0
Core_0_STLB_writeback_hit 0
Core_0_STLB_writeback_miss 0
Core_0_STLB_writeback_MPKI 0
Core_0_STLB_writeback_miss_rate 0
Core_0_STLB_prefetch_requested 0
Core_0_STLB_prefetch_issued 0
Core_0_STLB_prefetch_useful 0
Core_0_STLB_prefetch_useless 0
Core_0_STLB_prefetch_late 0
Core_0_STLB_prefetch_accuracy 0
Core_0_STLB_prefetch_coverage 0

Core_0_L1I_total_access 7429860
Core_0_L1I_total_hit 7383914
Core_0_L1I_total_miss 45946
Core_0_L1I_total_MPKI 0.91892
Core_0_L1I_total_miss_rate 0.00618397
Core_0_L1I_demand_access 7429860
Core_0_L1I_demand_hit 7383914
Core_0_L1I_demand_miss 45946
Core_0_L1I_demand_MPKI 0.91892
Core_0_L1I_demand_miss_rate 0.00618397
Core_0_L1I_load_access 7429860
Core_0_L1I_load_hit 7383914
Core_0_L1I_load_miss 45946
Core_0_L1I_load_MPKI 0.91892
Core_0_L1I_load_miss_rate 0.00618397
Core_0_L1I_rfo_access 0
Core_0_L1I_rfo_hit 0
Core_0_L1I_rfo_miss 0
Core_0_L1I_rfo_MPKI 0
Core_0_L1I_rfo_miss_rate 0
Core_0_L1I_prefetch_access 0
Core_0_L1I_prefetch_hit 0
Core_0_L1I_prefetch_miss 0
Core_0_L1I_prefetch_MPKI 0
Core_0_L1I_prefetch_miss_rate 0
Core_0_L1I_writeback_access 0
Core_0_L1I_writeback_hit 0
Core_0_L1I_writeback_miss 0
Core_0_L1I_writeback_MPKI 0
Core_0_L1I_writeback_miss_rate 0
Core_0_L1I_prefetch_requested 0
Core_0_L1I_prefetch_issued 0
Core_0_L1I_prefetch_useful 0
Core_0_L1I_prefetch_useless 0
Core_0_L1I_prefetch_late 0
Core_0_L1I_prefetch_accuracy 0
Core_0_L1I_prefetch_coverage 0

Core_0_L1D_total_access 12306810
Core_0_L1D_total_hit 11665641
Core_0_L1D_total_miss 641169
Core_0_L1D_total_MPKI 12.8234
Core_0_L1D_total_miss_rate 0.0520987
Core_0_L1D_demand_access 8223585
Core_0_L1D_demand_hit 7970289
Core_0_L1D_demand_miss 253296
Core_0_L1D_demand_MPKI 5.06592
Core_0_L1D_demand_miss_rate 0.0308012
Core_0_L1D_load_access 8223585
Core_0_L1D_load_hit 7970289
Core_0_L1D_load_miss 253296
Core_0_L1D_load_MPKI 5.06592
Core_0_L1D_load_miss_rate 0.0308012
Core_0_L1D_rfo_access 0
Core_0_L1D_rfo_hit 0
Core_0_L1D_rfo_miss 0
Core_0_L1D_rfo_MPKI 0
Core_0_L1D_rfo_miss_rate 0
Core_0_L1D_prefetch_access 599004
Core_0_L1D_prefetch_hit 491980
Core_0_L1D_prefetch_miss 107024
Core_0_L1D_prefetch_MPKI 2.14048
Core_0_L1D_prefetch_miss_rate 0.17867
Core_0_L1D_writeback_access 3484221
Core_0_L1D_writeback_hit 3203372
Core_0_L1D_writeback_miss 280849
Core_0_L1D_writeback_MPKI 5.61698
Core_0_L1D_writeback_miss_rate 0.080606
Core_0_L1D_prefetch_requested 605614
Core_0_L1D_prefetch_issued 599004
Core_0_L1D_prefetch_useful 71342
Core_0_L1D_prefetch_useless 25082
Core_0_L1D_prefetch_late 6387
Core_0_L1D_prefetch_accuracy 0.119101
Core_0_L1D_prefetch_coverage 0.219759

Core_0_L2C_total_access 888456
Core_0_L2C_total_hit 638902
Core_0_L2C_total_miss 249554
Core_0_L2C_total_MPKI 4.99108
Core_0_L2C_total_miss_rate 0.280885
Core_0_L2C_demand_access 274605
Core_0_L2C_demand_hit 164834
Core_0_L2C_demand_miss 109771
Core_0_L2C_demand_MPKI 2.19542
Core_0_L2C_demand_miss_rate 0.399741
Core_0_L2C_load_access 220950
Core_0_L2C_load_hit 158625
Core_0_L2C_load_miss 62325
Core_0_L2C_load_MPKI 1.2465
Core_0_L2C_load_miss_rate 0.282077
Core_0_L2C_rfo_access 53655
Core_0_L2C_rfo_hit 6209
Core_0_L2C_rfo_miss 47446
Core_0_L2C_rfo_MPKI 0.94892
Core_0_L2C_rfo_miss_rate 0.884279
Core_0_L2C_prefetch_access 501088
Core_0_L2C_prefetch_hit 361460
Core_0_L2C_prefetch_miss 139628
Core_0_L2C_prefetch_MPKI 2.79256
Core_0_L2C_prefetch_miss_rate 0.27865
Core_0_L2C_writeback_access 112763
Core_0_L2C_writeback_hit 112608
Core_0_L2C_writeback_miss 155
Core_0_L2C_writeback_MPKI 0.0031
Core_0_L2C_writeback_miss_rate 0.00137456
Core_0_L2C_prefetch_requested 406007
Core_0_L2C_prefetch_issued 404648
Core_0_L2C_prefetch_useful 30471
Core_0_L2C_prefetch_useless 59261
Core_0_L2C_prefetch_late 3104
Core_0_L2C_prefetch_accuracy 0.0753025
Core_0_L2C_prefetch_coverage 0.217274

Core_0_LLC_total_access 314325
Core_0_LLC_total_hit 104713
Core_0_LLC_total_miss 209612
Core_0_LLC_total_MPKI 4.19224
Core_0_LLC_total_miss_rate 0.666864
Core_0_LLC_demand_access 106667
Core_0_LLC_demand_hit 32967
Core_0_LLC_demand_miss 73700
Core_0_LLC_demand_MPKI 1.474
Core_0_LLC_demand_miss_rate 0.690935
Core_0_LLC_load_access 59280
Core_0_LLC_load_hit 21568
Core_0_LLC_load_miss 37712
Core_0_LLC_load_MPKI 0.75424
Core_0_LLC_load_miss_rate 0.636167
Core_0_LLC_rfo_access 47387
Core_0_LLC_rfo_hit 11399
Core_0_LLC_rfo_miss 35988
Core_0_LLC_rfo_MPKI 0.71976
Core_0_LLC_rfo_miss_rate 0.759449
Core_0_LLC_prefetch_access 110294
Core_0_LLC_prefetch_hit 19569
Core_0_LLC_prefetch_miss 90725
Core_0_LLC_prefetch_MPKI 1.8145
Core_0_LLC_prefetch_miss_rate 0.822574
Core_0_LLC_writeback_access 97364
Core_0_LLC_writeback_hit 52177
Core_0_LLC_writeback_miss 45187
Core_0_LLC_writeback_MPKI 0.90374
Core_0_LLC_writeback_miss_rate 0.464104
Core_0_LLC_prefetch_requested 0
Core_0_LLC_prefetch_issued 0
Core_0_LLC_prefetch_useful 0
Core_0_LLC_prefetch_useless 0
Core_0_LLC_prefetch_late 0
Core_0_LLC_prefetch_accuracy 0
Core_0_LLC_prefetch_coverage 0

[DRAM Statistics]
Channel_0_RQ_row_buffer_hit 1636
Channel_0_RQ_row_buffer_miss 162772
Channel_0_WQ_row_buffer_hit 8948
Channel_0_WQ_row_buffer_miss 46480
Channel_0_WQ_full 0
Channel_0_dbus_congested 470025
DRAM_total_RQ_row_buffer_hit 1636
DRAM_total_RQ_row_buffer_miss 162772
DRAM_total_WQ_row_buffer_hit 8948
DRAM_total_WQ_row_buffer_miss 46480
DRAM_total_WQ_full 0
DRAM_total_dbus_congested 470025
DRAM_avg_congested_cycle 10.142

======STLB miss causes ========
Core_0_STLB_miss_cause_breakdown
Core_0_STLB_cause_Demand_Data_miss 0
Core_0_STLB_cause_Demand_Data_miss_rate 0
Core_0_STLB_cause_Demand_Instruction_miss 0
Core_0_STLB_cause_Demand_Instruction_miss_rate 0
Core_0_STLB_cause_L1D_Prefetch_miss 0
Core_0_STLB_cause_L1D_Prefetch_miss_rate 0
Core_0_STLB_cause_L1I_Prefetch_miss 0
Core_0_STLB_cause_L1I_Prefetch_miss_rate 0
Core_0_STLB_cause_Other_miss 0
Core_0_STLB_cause_Other_miss_rate 0
Core_0_STLB_Demand_miss 0
Core_0_STLB_Demand_miss_rate 0
Core_0_STLB_L1D_Prefetch_miss 0
Core_0_STLB_L1D_Prefetch_miss_rate 0
Core_0_STLB_Other_miss 0
Core_0_STLB_Other_miss_rate 0
