[VMEM] WARNING: physical memory size is smaller than virtual memory size.

*** ChampSim Multicore Out-of-Order Simulator ***
Warmup Instructions: 20000000
Simulation Instructions: 50000000
Number of CPUs: 1
Page size: 4096
STLB ideal mode: all
Core 0: /data0/tzh/champsim_traces/SPEC17/620.omnetpp_s-141B.champsimtrace.xz
 L1D Berti prefetcher
Off-chip DRAM Size: 16 GiB Channels: 1 Width: 64-bit Data Rate: 3205 MT/s
Warmup halting CPU 0 at instruction 20000001 cycle 4812034 for remainder of phase
Warmup finished CPU 0 instructions: 20000001 cycles: 4812034 cumulative IPC: 4.156 (Simulation time: 00 hr 01 min 22 sec)
Warmup complete CPU 0 instructions: 20000001 cycles: 4812034 cumulative IPC: 4.156 (Simulation time: 00 hr 01 min 22 sec)
Simulation finished CPU 0 instructions: 50000000 cycles: 93255397 cumulative IPC: 0.5362 (Simulation time: 00 hr 11 min 02 sec)
Simulation complete CPU 0 instructions: 50000000 cycles: 93255397 cumulative IPC: 0.5362 (Simulation time: 00 hr 11 min 02 sec)

ChampSim completed all CPUs

=== Simulation ===
CPU 0 runs /data0/tzh/champsim_traces/SPEC17/620.omnetpp_s-141B.champsimtrace.xz

Region of Interest Statistics

CPU 0 cumulative IPC: 0.5362 instructions: 50000000 cycles: 93255397
CPU 0 Branch Prediction Accuracy: 95.7% MPKI: 9.03 Average ROB Occupancy at Mispredict: 75.45
Branch type MPKI
BRANCH_DIRECT_JUMP: 0.8235
BRANCH_INDIRECT: 0.3613
BRANCH_CONDITIONAL: 6.535
BRANCH_DIRECT_CALL: 0.00136
BRANCH_INDIRECT_CALL: 0.8598
BRANCH_RETURN: 0.4496

cpu0->cpu0_STLB TOTAL        ACCESS:    1151850 HIT:    1151850 MISS:          0 MSHR_MERGE:          0
cpu0->cpu0_STLB LOAD         ACCESS:    1151850 HIT:    1151850 MISS:          0 MSHR_MERGE:          0
cpu0->cpu0_STLB RFO          ACCESS:          0 HIT:          0 MISS:          0 MSHR_MERGE:          0
cpu0->cpu0_STLB PREFETCH     ACCESS:          0 HIT:          0 MISS:          0 MSHR_MERGE:          0
cpu0->cpu0_STLB WRITE        ACCESS:          0 HIT:          0 MISS:          0 MSHR_MERGE:          0
cpu0->cpu0_STLB TRANSLATION  ACCESS:          0 HIT:          0 MISS:          0 MSHR_MERGE:          0
cpu0->cpu0_STLB PREFETCH REQUESTED:          0 ISSUED:          0 USEFUL:          0 USELESS:          0 LATE:          0
cpu0->cpu0_STLB AVERAGE MISS LATENCY: - cycles
cpu0->cpu0_L2C TOTAL        ACCESS:    3122837 HIT:    1376229 MISS:    1746608 MSHR_MERGE:     287276
cpu0->cpu0_L2C LOAD         ACCESS:     760447 HIT:     299408 MISS:     461039 MSHR_MERGE:      14979
cpu0->cpu0_L2C RFO          ACCESS:     113457 HIT:      46451 MISS:      67006 MSHR_MERGE:       2623
cpu0->cpu0_L2C PREFETCH     ACCESS:    1783925 HIT:     566468 MISS:    1217457 MSHR_MERGE:     269674
cpu0->cpu0_L2C WRITE        ACCESS:     465008 HIT:     463902 MISS:       1106 MSHR_MERGE:          0
cpu0->cpu0_L2C TRANSLATION  ACCESS:          0 HIT:          0 MISS:          0 MSHR_MERGE:          0
cpu0->cpu0_L2C PREFETCH REQUESTED:    1423080 ISSUED:    1417540 USEFUL:     220527 USELESS:     505963 LATE:      17602
cpu0->cpu0_L2C AVERAGE MISS LATENCY: 163.3 cycles
cpu0->cpu0_L1I TOTAL        ACCESS:    7273363 HIT:    7236123 MISS:      37240 MSHR_MERGE:       9177
cpu0->cpu0_L1I LOAD         ACCESS:    7273363 HIT:    7236123 MISS:      37240 MSHR_MERGE:       9177
cpu0->cpu0_L1I RFO          ACCESS:          0 HIT:          0 MISS:          0 MSHR_MERGE:          0
cpu0->cpu0_L1I PREFETCH     ACCESS:          0 HIT:          0 MISS:          0 MSHR_MERGE:          0
cpu0->cpu0_L1I WRITE        ACCESS:          0 HIT:          0 MISS:          0 MSHR_MERGE:          0
cpu0->cpu0_L1I TRANSLATION  ACCESS:          0 HIT:          0 MISS:          0 MSHR_MERGE:          0
cpu0->cpu0_L1I PREFETCH REQUESTED:          0 ISSUED:          0 USEFUL:          0 USELESS:          0 LATE:          0
cpu0->cpu0_L1I AVERAGE MISS LATENCY: 21.27 cycles
cpu0->cpu0_L1D TOTAL        ACCESS:   19512752 HIT:   17878098 MISS:    1634654 MSHR_MERGE:     422422
cpu0->cpu0_L1D LOAD         ACCESS:    9663740 HIT:    8720547 MISS:     943193 MSHR_MERGE:     210804
cpu0->cpu0_L1D RFO          ACCESS:          0 HIT:          0 MISS:          0 MSHR_MERGE:          0
cpu0->cpu0_L1D PREFETCH     ACCESS:    1003931 HIT:     623211 MISS:     380720 MSHR_MERGE:      14337
cpu0->cpu0_L1D WRITE        ACCESS:    8845081 HIT:    8534340 MISS:     310741 MSHR_MERGE:     197281
cpu0->cpu0_L1D TRANSLATION  ACCESS:          0 HIT:          0 MISS:          0 MSHR_MERGE:          0
cpu0->cpu0_L1D PREFETCH REQUESTED:    1010713 ISSUED:    1003923 USEFUL:     110408 USELESS:     255878 LATE:      14735
cpu0->cpu0_L1D AVERAGE MISS LATENCY: 110.6 cycles
cpu0->cpu0_ITLB TOTAL        ACCESS:    6445384 HIT:    6290997 MISS:     154387 MSHR_MERGE:      75602
cpu0->cpu0_ITLB LOAD         ACCESS:    6445384 HIT:    6290997 MISS:     154387 MSHR_MERGE:      75602
cpu0->cpu0_ITLB RFO          ACCESS:          0 HIT:          0 MISS:          0 MSHR_MERGE:          0
cpu0->cpu0_ITLB PREFETCH     ACCESS:          0 HIT:          0 MISS:          0 MSHR_MERGE:          0
cpu0->cpu0_ITLB WRITE        ACCESS:          0 HIT:          0 MISS:          0 MSHR_MERGE:          0
cpu0->cpu0_ITLB TRANSLATION  ACCESS:          0 HIT:          0 MISS:          0 MSHR_MERGE:          0
cpu0->cpu0_ITLB PREFETCH REQUESTED:          0 ISSUED:          0 USEFUL:          0 USELESS:          0 LATE:          0
cpu0->cpu0_ITLB AVERAGE MISS LATENCY: 5.01 cycles
cpu0->cpu0_DTLB TOTAL        ACCESS:   18277338 HIT:   16997608 MISS:    1279730 MSHR_MERGE:     206666
cpu0->cpu0_DTLB LOAD         ACCESS:   18277338 HIT:   16997608 MISS:    1279730 MSHR_MERGE:     206666
cpu0->cpu0_DTLB RFO          ACCESS:          0 HIT:          0 MISS:          0 MSHR_MERGE:          0
cpu0->cpu0_DTLB PREFETCH     ACCESS:          0 HIT:          0 MISS:          0 MSHR_MERGE:          0
cpu0->cpu0_DTLB WRITE        ACCESS:          0 HIT:          0 MISS:          0 MSHR_MERGE:          0
cpu0->cpu0_DTLB TRANSLATION  ACCESS:          0 HIT:          0 MISS:          0 MSHR_MERGE:          0
cpu0->cpu0_DTLB PREFETCH REQUESTED:          0 ISSUED:          0 USEFUL:          0 USELESS:          0 LATE:          0
cpu0->cpu0_DTLB AVERAGE MISS LATENCY: 5.004 cycles
cpu0->LLC TOTAL        ACCESS:    1825868 HIT:     647393 MISS:    1178475 MSHR_MERGE:          0
cpu0->LLC LOAD         ACCESS:     446060 HIT:     125740 MISS:     320320 MSHR_MERGE:          0
cpu0->LLC RFO          ACCESS:      64383 HIT:      18397 MISS:      45986 MSHR_MERGE:          0
cpu0->LLC PREFETCH     ACCESS:     947783 HIT:     175194 MISS:     772589 MSHR_MERGE:          0
cpu0->LLC WRITE        ACCESS:     367642 HIT:     328062 MISS:      39580 MSHR_MERGE:          0
cpu0->LLC TRANSLATION  ACCESS:          0 HIT:          0 MISS:          0 MSHR_MERGE:          0
cpu0->LLC PREFETCH REQUESTED:          0 ISSUED:          0 USEFUL:          0 USELESS:          0 LATE:          0
cpu0->LLC AVERAGE MISS LATENCY: 188.8 cycles

DRAM Statistics

Channel 0 RQ ROW_BUFFER_HIT:      21997
  ROW_BUFFER_MISS:    1116826
  AVG DBUS CONGESTED CYCLE: 11.31
Channel 0 WQ ROW_BUFFER_HIT:      75844
  ROW_BUFFER_MISS:     187977
  FULL:          0
Channel 0 REFRESHES ISSUED:       7771

[ROI Statistics]
[System Configuration]
num_cpus 1
cpu_freq 4000
fetch_width 6
decode_width 6
dispatch_width 6
execute_width 6
lq_width 2
sq_width 2
retire_width 6
scheduler_size 128
branch_mispredict_penalty 15
rob_size 352
lq_size 128
sq_size 72
ifetch_buffer_size 64
decode_buffer_size 32
dispatch_buffer_size 32
register_file_size 288
decode_latency 1
dispatch_latency 1
schedule_latency 1
execute_latency 1
page_size 4096
block_size 64
core_0_itlb_set 16
core_0_itlb_way 4
core_0_itlb_rq_size 16
core_0_itlb_wq_size 16
core_0_itlb_pq_size 0
core_0_itlb_mshr_size 8
core_0_itlb_hit_latency 1
core_0_itlb_fill_latency 1
core_0_itlb_max_tag_check 2
core_0_itlb_max_fill 2
core_0_dtlb_set 16
core_0_dtlb_way 4
core_0_dtlb_rq_size 16
core_0_dtlb_wq_size 16
core_0_dtlb_pq_size 0
core_0_dtlb_mshr_size 8
core_0_dtlb_hit_latency 1
core_0_dtlb_fill_latency 1
core_0_dtlb_max_tag_check 2
core_0_dtlb_max_fill 2
core_0_stlb_set 128
core_0_stlb_way 12
core_0_stlb_rq_size 32
core_0_stlb_wq_size 32
core_0_stlb_pq_size 0
core_0_stlb_mshr_size 16
core_0_stlb_hit_latency 4
core_0_stlb_fill_latency 4
core_0_stlb_max_tag_check 1
core_0_stlb_max_fill 1
core_0_l1i_set 64
core_0_l1i_way 8
core_0_l1i_rq_size 64
core_0_l1i_wq_size 64
core_0_l1i_pq_size 32
core_0_l1i_mshr_size 8
core_0_l1i_hit_latency 2
core_0_l1i_fill_latency 2
core_0_l1i_max_tag_check 2
core_0_l1i_max_fill 2
core_0_l1d_set 64
core_0_l1d_way 12
core_0_l1d_rq_size 64
core_0_l1d_wq_size 64
core_0_l1d_pq_size 8
core_0_l1d_mshr_size 16
core_0_l1d_hit_latency 2
core_0_l1d_fill_latency 3
core_0_l1d_max_tag_check 2
core_0_l1d_max_fill 2
core_0_l2c_set 1024
core_0_l2c_way 8
core_0_l2c_rq_size 32
core_0_l2c_wq_size 32
core_0_l2c_pq_size 16
core_0_l2c_mshr_size 32
core_0_l2c_hit_latency 5
core_0_l2c_fill_latency 5
core_0_l2c_max_tag_check 1
core_0_l2c_max_fill 1
llc_set 2048
llc_way 16
llc_rq_size 32
llc_wq_size 32
llc_pq_size 32
llc_mshr_size 64
llc_hit_latency 10
llc_fill_latency 10
llc_max_tag_check 1
llc_max_fill 1
dram_channels 1
dram_ranks 1
dram_bankgroups 8
dram_banks 4
dram_rows 65536
dram_columns 1024
dram_channel_width 8
dram_rq_size 64
dram_wq_size 64
dram_size 17179869184
core_0_itlb_prefetcher no
core_0_dtlb_prefetcher no
core_0_stlb_prefetcher no
core_0_l1i_prefetcher next_line
core_0_l1d_prefetcher berti
core_0_l2c_prefetcher pythia
llc_prefetcher no
llc_replacement drrip

Core_0_instructions 50000000
Core_0_cycles 93255397
Core_0_IPC 0.536162
Core_0_branch_prediction_accuracy 95.7046
Core_0_branch_MPKI 9.0301
Core_0_average_ROB_occupancy_at_mispredict 75.4532

Core_0_ITLB_total_access 6445384
Core_0_ITLB_total_hit 6290997
Core_0_ITLB_total_miss 154387
Core_0_ITLB_total_MPKI 3.08774
Core_0_ITLB_total_miss_rate 0.0239531
Core_0_ITLB_demand_access 6445384
Core_0_ITLB_demand_hit 6290997
Core_0_ITLB_demand_miss 154387
Core_0_ITLB_demand_MPKI 3.08774
Core_0_ITLB_demand_miss_rate 0.0239531
Core_0_ITLB_load_access 6445384
Core_0_ITLB_load_hit 6290997
Core_0_ITLB_load_miss 154387
Core_0_ITLB_load_MPKI 3.08774
Core_0_ITLB_load_miss_rate 0.0239531
Core_0_ITLB_rfo_access 0
Core_0_ITLB_rfo_hit 0
Core_0_ITLB_rfo_miss 0
Core_0_ITLB_rfo_MPKI 0
Core_0_ITLB_rfo_miss_rate 0
Core_0_ITLB_prefetch_access 0
Core_0_ITLB_prefetch_hit 0
Core_0_ITLB_prefetch_miss 0
Core_0_ITLB_prefetch_MPKI 0
Core_0_ITLB_prefetch_miss_rate 0
Core_0_ITLB_writeback_access 0
Core_0_ITLB_writeback_hit 0
Core_0_ITLB_writeback_miss 0
Core_0_ITLB_writeback_MPKI 0
Core_0_ITLB_writeback_miss_rate 0
Core_0_ITLB_prefetch_requested 0
Core_0_ITLB_prefetch_issued 0
Core_0_ITLB_prefetch_useful 0
Core_0_ITLB_prefetch_useless 0
Core_0_ITLB_prefetch_late 0
Core_0_ITLB_prefetch_accuracy 0
Core_0_ITLB_prefetch_coverage 0

Core_0_DTLB_total_access 18277338
Core_0_DTLB_total_hit 16997608
Core_0_DTLB_total_miss 1279730
Core_0_DTLB_total_MPKI 25.5946
Core_0_DTLB_total_miss_rate 0.0700173
Core_0_DTLB_demand_access 18277338
Core_0_DTLB_demand_hit 16997608
Core_0_DTLB_demand_miss 1279730
Core_0_DTLB_demand_MPKI 25.5946
Core_0_DTLB_demand_miss_rate 0.0700173
Core_0_DTLB_load_access 18277338
Core_0_DTLB_load_hit 16997608
Core_0_DTLB_load_miss 1279730
Core_0_DTLB_load_MPKI 25.5946
Core_0_DTLB_load_miss_rate 0.0700173
Core_0_DTLB_rfo_access 0
Core_0_DTLB_rfo_hit 0
Core_0_DTLB_rfo_miss 0
Core_0_DTLB_rfo_MPKI 0
Core_0_DTLB_rfo_miss_rate 0
Core_0_DTLB_prefetch_access 0
Core_0_DTLB_prefetch_hit 0
Core_0_DTLB_prefetch_miss 0
Core_0_DTLB_prefetch_MPKI 0
Core_0_DTLB_prefetch_miss_rate 0
Core_0_DTLB_writeback_access 0
Core_0_DTLB_writeback_hit 0
Core_0_DTLB_writeback_miss 0
Core_0_DTLB_writeback_MPKI 0
Core_0_DTLB_writeback_miss_rate 0
Core_0_DTLB_prefetch_requested 0
Core_0_DTLB_prefetch_issued 0
Core_0_DTLB_prefetch_useful 0
Core_0_DTLB_prefetch_useless 0
Core_0_DTLB_prefetch_late 0
Core_0_DTLB_prefetch_accuracy 0
Core_0_DTLB_prefetch_coverage 0

Core_0_STLB_total_access 1151850
Core_0_STLB_total_hit 1151850
Core_0_STLB_total_miss 0
Core_0_STLB_total_MPKI 0
Core_0_STLB_total_miss_rate 0
Core_0_STLB_demand_access 1151850
Core_0_STLB_demand_hit 1151850
Core_0_STLB_demand_miss 0
Core_0_STLB_demand_MPKI 0
Core_0_STLB_demand_miss_rate 0
Core_0_STLB_load_access 1151850
Core_0_STLB_load_hit 1151850
Core_0_STLB_load_miss 0
Core_0_STLB_load_MPKI 0
Core_0_STLB_load_miss_rate 0
Core_0_STLB_rfo_access 0
Core_0_STLB_rfo_hit 0
Core_0_STLB_rfo_miss 0
Core_0_STLB_rfo_MPKI 0
Core_0_STLB_rfo_miss_rate 0
Core_0_STLB_prefetch_access 0
Core_0_STLB_prefetch_hit 0
Core_0_STLB_prefetch_miss 0
Core_0_STLB_prefetch_MPKI 0
Core_0_STLB_prefetch_miss_rate 0
Core_0_STLB_writeback_access 0
Core_0_STLB_writeback_hit 0
Core_0_STLB_writeback_miss 0
Core_0_STLB_writeback_MPKI 0
Core_0_STLB_writeback_miss_rate 0
Core_0_STLB_prefetch_requested 0
Core_0_STLB_prefetch_issued 0
Core_0_STLB_prefetch_useful 0
Core_0_STLB_prefetch_useless 0
Core_0_STLB_prefetch_late 0
Core_0_STLB_prefetch_accuracy 0
Core_0_STLB_prefetch_coverage 0

Core_0_L1I_total_access 7273363
Core_0_L1I_total_hit 7236123
Core_0_L1I_total_miss 37240
Core_0_L1I_total_MPKI 0.7448
Core_0_L1I_total_miss_rate 0.00512005
Core_0_L1I_demand_access 7273363
Core_0_L1I_demand_hit 7236123
Core_0_L1I_demand_miss 37240
Core_0_L1I_demand_MPKI 0.7448
Core_0_L1I_demand_miss_rate 0.00512005
Core_0_L1I_load_access 7273363
Core_0_L1I_load_hit 7236123
Core_0_L1I_load_miss 37240
Core_0_L1I_load_MPKI 0.7448
Core_0_L1I_load_miss_rate 0.00512005
Core_0_L1I_rfo_access 0
Core_0_L1I_rfo_hit 0
Core_0_L1I_rfo_miss 0
Core_0_L1I_rfo_MPKI 0
Core_0_L1I_rfo_miss_rate 0
Core_0_L1I_prefetch_access 0
Core_0_L1I_prefetch_hit 0
Core_0_L1I_prefetch_miss 0
Core_0_L1I_prefetch_MPKI 0
Core_0_L1I_prefetch_miss_rate 0
Core_0_L1I_writeback_access 0
Core_0_L1I_writeback_hit 0
Core_0_L1I_writeback_miss 0
Core_0_L1I_writeback_MPKI 0
Core_0_L1I_writeback_miss_rate 0
Core_0_L1I_prefetch_requested 0
Core_0_L1I_prefetch_issued 0
Core_0_L1I_prefetch_useful 0
Core_0_L1I_prefetch_useless 0
Core_0_L1I_prefetch_late 0
Core_0_L1I_prefetch_accuracy 0
Core_0_L1I_prefetch_coverage 0

Core_0_L1D_total_access 19512752
Core_0_L1D_total_hit 17878098
Core_0_L1D_total_miss 1634654
Core_0_L1D_total_MPKI 32.6931
Core_0_L1D_total_miss_rate 0.0837736
Core_0_L1D_demand_access 9663740
Core_0_L1D_demand_hit 8720547
Core_0_L1D_demand_miss 943193
Core_0_L1D_demand_MPKI 18.8639
Core_0_L1D_demand_miss_rate 0.0976012
Core_0_L1D_load_access 9663740
Core_0_L1D_load_hit 8720547
Core_0_L1D_load_miss 943193
Core_0_L1D_load_MPKI 18.8639
Core_0_L1D_load_miss_rate 0.0976012
Core_0_L1D_rfo_access 0
Core_0_L1D_rfo_hit 0
Core_0_L1D_rfo_miss 0
Core_0_L1D_rfo_MPKI 0
Core_0_L1D_rfo_miss_rate 0
Core_0_L1D_prefetch_access 1003931
Core_0_L1D_prefetch_hit 623211
Core_0_L1D_prefetch_miss 380720
Core_0_L1D_prefetch_MPKI 7.6144
Core_0_L1D_prefetch_miss_rate 0.379229
Core_0_L1D_writeback_access 8845081
Core_0_L1D_writeback_hit 8534340
Core_0_L1D_writeback_miss 310741
Core_0_L1D_writeback_MPKI 6.21482
Core_0_L1D_writeback_miss_rate 0.0351315
Core_0_L1D_prefetch_requested 1010713
Core_0_L1D_prefetch_issued 1003923
Core_0_L1D_prefetch_useful 110408
Core_0_L1D_prefetch_useless 255878
Core_0_L1D_prefetch_late 14735
Core_0_L1D_prefetch_accuracy 0.109977
Core_0_L1D_prefetch_coverage 0.104791

Core_0_L2C_total_access 3122837
Core_0_L2C_total_hit 1376229
Core_0_L2C_total_miss 1746608
Core_0_L2C_total_MPKI 34.9322
Core_0_L2C_total_miss_rate 0.559302
Core_0_L2C_demand_access 873904
Core_0_L2C_demand_hit 345859
Core_0_L2C_demand_miss 528045
Core_0_L2C_demand_MPKI 10.5609
Core_0_L2C_demand_miss_rate 0.604237
Core_0_L2C_load_access 760447
Core_0_L2C_load_hit 299408
Core_0_L2C_load_miss 461039
Core_0_L2C_load_MPKI 9.22078
Core_0_L2C_load_miss_rate 0.606274
Core_0_L2C_rfo_access 113457
Core_0_L2C_rfo_hit 46451
Core_0_L2C_rfo_miss 67006
Core_0_L2C_rfo_MPKI 1.34012
Core_0_L2C_rfo_miss_rate 0.590585
Core_0_L2C_prefetch_access 1783925
Core_0_L2C_prefetch_hit 566468
Core_0_L2C_prefetch_miss 1217457
Core_0_L2C_prefetch_MPKI 24.3491
Core_0_L2C_prefetch_miss_rate 0.68246
Core_0_L2C_writeback_access 465008
Core_0_L2C_writeback_hit 463902
Core_0_L2C_writeback_miss 1106
Core_0_L2C_writeback_MPKI 0.02212
Core_0_L2C_writeback_miss_rate 0.00237845
Core_0_L2C_prefetch_requested 1423080
Core_0_L2C_prefetch_issued 1417540
Core_0_L2C_prefetch_useful 220527
Core_0_L2C_prefetch_useless 505963
Core_0_L2C_prefetch_late 17602
Core_0_L2C_prefetch_accuracy 0.15557
Core_0_L2C_prefetch_coverage 0.294597

Core_0_LLC_total_access 1825868
Core_0_LLC_total_hit 647393
Core_0_LLC_total_miss 1178475
Core_0_LLC_total_MPKI 23.5695
Core_0_LLC_total_miss_rate 0.645433
Core_0_LLC_demand_access 510443
Core_0_LLC_demand_hit 144137
Core_0_LLC_demand_miss 366306
Core_0_LLC_demand_MPKI 7.32612
Core_0_LLC_demand_miss_rate 0.717624
Core_0_LLC_load_access 446060
Core_0_LLC_load_hit 125740
Core_0_LLC_load_miss 320320
Core_0_LLC_load_MPKI 6.4064
Core_0_LLC_load_miss_rate 0.71811
Core_0_LLC_rfo_access 64383
Core_0_LLC_rfo_hit 18397
Core_0_LLC_rfo_miss 45986
Core_0_LLC_rfo_MPKI 0.91972
Core_0_LLC_rfo_miss_rate 0.714257
Core_0_LLC_prefetch_access 947783
Core_0_LLC_prefetch_hit 175194
Core_0_LLC_prefetch_miss 772589
Core_0_LLC_prefetch_MPKI 15.4518
Core_0_LLC_prefetch_miss_rate 0.815154
Core_0_LLC_writeback_access 367642
Core_0_LLC_writeback_hit 328062
Core_0_LLC_writeback_miss 39580
Core_0_LLC_writeback_MPKI 0.7916
Core_0_LLC_writeback_miss_rate 0.107659
Core_0_LLC_prefetch_requested 0
Core_0_LLC_prefetch_issued 0
Core_0_LLC_prefetch_useful 0
Core_0_LLC_prefetch_useless 0
Core_0_LLC_prefetch_late 0
Core_0_LLC_prefetch_accuracy 0
Core_0_LLC_prefetch_coverage 0

[DRAM Statistics]
Channel_0_RQ_row_buffer_hit 21997
Channel_0_RQ_row_buffer_miss 1116826
Channel_0_WQ_row_buffer_hit 75844
Channel_0_WQ_row_buffer_miss 187977
Channel_0_WQ_full 0
Channel_0_dbus_congested 3600013
DRAM_total_RQ_row_buffer_hit 21997
DRAM_total_RQ_row_buffer_miss 1116826
DRAM_total_WQ_row_buffer_hit 75844
DRAM_total_WQ_row_buffer_miss 187977
DRAM_total_WQ_full 0
DRAM_total_dbus_congested 3600013
DRAM_avg_congested_cycle 11.3127

======STLB miss causes ========
Core_0_STLB_miss_cause_breakdown
Core_0_STLB_cause_Demand_Data_miss 0
Core_0_STLB_cause_Demand_Data_miss_rate 0
Core_0_STLB_cause_Demand_Instruction_miss 0
Core_0_STLB_cause_Demand_Instruction_miss_rate 0
Core_0_STLB_cause_L1D_Prefetch_miss 0
Core_0_STLB_cause_L1D_Prefetch_miss_rate 0
Core_0_STLB_cause_L1I_Prefetch_miss 0
Core_0_STLB_cause_L1I_Prefetch_miss_rate 0
Core_0_STLB_cause_Other_miss 0
Core_0_STLB_cause_Other_miss_rate 0
Core_0_STLB_Demand_miss 0
Core_0_STLB_Demand_miss_rate 0
Core_0_STLB_L1D_Prefetch_miss 0
Core_0_STLB_L1D_Prefetch_miss_rate 0
Core_0_STLB_Other_miss 0
Core_0_STLB_Other_miss_rate 0
