[VMEM] WARNING: physical memory size is smaller than virtual memory size.

*** ChampSim Multicore Out-of-Order Simulator ***
Warmup Instructions: 20000000
Simulation Instructions: 50000000
Number of CPUs: 1
Page size: 4096
STLB ideal mode: demand
STLB ideal fill: on
Core 0: /data0/tzh/champsim_traces/SPEC06/429.mcf-22B.champsimtrace.xz
 L1D Berti prefetcher
Off-chip DRAM Size: 16 GiB Channels: 1 Width: 64-bit Data Rate: 3205 MT/s
Warmup halting CPU 0 at instruction 20000001 cycle 6247419 for remainder of phase
Warmup finished CPU 0 instructions: 20000001 cycles: 6247419 cumulative IPC: 3.201 (Simulation time: 00 hr 01 min 16 sec)
Warmup complete CPU 0 instructions: 20000001 cycles: 6247419 cumulative IPC: 3.201 (Simulation time: 00 hr 01 min 16 sec)
Simulation finished CPU 0 instructions: 50000001 cycles: 63865226 cumulative IPC: 0.7829 (Simulation time: 00 hr 09 min 40 sec)
Simulation complete CPU 0 instructions: 50000001 cycles: 63865226 cumulative IPC: 0.7829 (Simulation time: 00 hr 09 min 40 sec)

ChampSim completed all CPUs

=== Simulation ===
CPU 0 runs /data0/tzh/champsim_traces/SPEC06/429.mcf-22B.champsimtrace.xz

Region of Interest Statistics

CPU 0 cumulative IPC: 0.7829 instructions: 50000001 cycles: 63865226
CPU 0 Branch Prediction Accuracy: 98.75% MPKI: 1.081 Average ROB Occupancy at Mispredict: 123.6
Branch type MPKI
BRANCH_DIRECT_JUMP: 0
BRANCH_INDIRECT: 0
BRANCH_CONDITIONAL: 1.081
BRANCH_DIRECT_CALL: 0
BRANCH_INDIRECT_CALL: 0
BRANCH_RETURN: 0

cpu0->cpu0_STLB TOTAL        ACCESS:     251906 HIT:     234920 MISS:      16986 MSHR_MERGE:          0
cpu0->cpu0_STLB LOAD         ACCESS:     251906 HIT:     234920 MISS:      16986 MSHR_MERGE:          0
cpu0->cpu0_STLB RFO          ACCESS:          0 HIT:          0 MISS:          0 MSHR_MERGE:          0
cpu0->cpu0_STLB PREFETCH     ACCESS:          0 HIT:          0 MISS:          0 MSHR_MERGE:          0
cpu0->cpu0_STLB WRITE        ACCESS:          0 HIT:          0 MISS:          0 MSHR_MERGE:          0
cpu0->cpu0_STLB TRANSLATION  ACCESS:          0 HIT:          0 MISS:          0 MSHR_MERGE:          0
cpu0->cpu0_STLB PREFETCH REQUESTED:          0 ISSUED:          0 USEFUL:          0 USELESS:          0 LATE:          0
cpu0->cpu0_STLB AVERAGE MISS LATENCY: 409.9 cycles
cpu0->cpu0_L2C TOTAL        ACCESS:    2253834 HIT:     775246 MISS:    1478588 MSHR_MERGE:       8651
cpu0->cpu0_L2C LOAD         ACCESS:     848175 HIT:      45798 MISS:     802377 MSHR_MERGE:        131
cpu0->cpu0_L2C RFO          ACCESS:       2245 HIT:       2235 MISS:         10 MSHR_MERGE:          0
cpu0->cpu0_L2C PREFETCH     ACCESS:     701908 HIT:      36992 MISS:     664916 MSHR_MERGE:       8520
cpu0->cpu0_L2C WRITE        ACCESS:     688228 HIT:     687178 MISS:       1050 MSHR_MERGE:          0
cpu0->cpu0_L2C TRANSLATION  ACCESS:      13278 HIT:       3043 MISS:      10235 MSHR_MERGE:          0
cpu0->cpu0_L2C PREFETCH REQUESTED:      67649 ISSUED:      67649 USEFUL:      15408 USELESS:      18871 LATE:        131
cpu0->cpu0_L2C AVERAGE MISS LATENCY: 346.6 cycles
cpu0->cpu0_L1I TOTAL        ACCESS:    6998077 HIT:    6998077 MISS:          0 MSHR_MERGE:          0
cpu0->cpu0_L1I LOAD         ACCESS:    6998077 HIT:    6998077 MISS:          0 MSHR_MERGE:          0
cpu0->cpu0_L1I RFO          ACCESS:          0 HIT:          0 MISS:          0 MSHR_MERGE:          0
cpu0->cpu0_L1I PREFETCH     ACCESS:          0 HIT:          0 MISS:          0 MSHR_MERGE:          0
cpu0->cpu0_L1I WRITE        ACCESS:          0 HIT:          0 MISS:          0 MSHR_MERGE:          0
cpu0->cpu0_L1I TRANSLATION  ACCESS:          0 HIT:          0 MISS:          0 MSHR_MERGE:          0
cpu0->cpu0_L1I PREFETCH REQUESTED:          0 ISSUED:          0 USEFUL:          0 USELESS:          0 LATE:          0
cpu0->cpu0_L1I AVERAGE MISS LATENCY: - cycles
cpu0->cpu0_L1D TOTAL        ACCESS:   16004531 HIT:   14171930 MISS:    1832601 MSHR_MERGE:     334627
cpu0->cpu0_L1D LOAD         ACCESS:    6372334 HIT:    5221340 MISS:    1150994 MSHR_MERGE:     302807
cpu0->cpu0_L1D RFO          ACCESS:          0 HIT:          0 MISS:          0 MSHR_MERGE:          0
cpu0->cpu0_L1D PREFETCH     ACCESS:     897557 HIT:     237389 MISS:     660168 MSHR_MERGE:      25909
cpu0->cpu0_L1D WRITE        ACCESS:    8698762 HIT:    8690602 MISS:       8160 MSHR_MERGE:       5910
cpu0->cpu0_L1D TRANSLATION  ACCESS:      35878 HIT:      22599 MISS:      13279 MSHR_MERGE:          1
cpu0->cpu0_L1D PREFETCH REQUESTED:     929323 ISSUED:     897549 USEFUL:     395327 USELESS:     238833 LATE:      35332
cpu0->cpu0_L1D AVERAGE MISS LATENCY: 329 cycles
cpu0->cpu0_ITLB TOTAL        ACCESS:    5623288 HIT:    5623288 MISS:          0 MSHR_MERGE:          0
cpu0->cpu0_ITLB LOAD         ACCESS:    5623288 HIT:    5623288 MISS:          0 MSHR_MERGE:          0
cpu0->cpu0_ITLB RFO          ACCESS:          0 HIT:          0 MISS:          0 MSHR_MERGE:          0
cpu0->cpu0_ITLB PREFETCH     ACCESS:          0 HIT:          0 MISS:          0 MSHR_MERGE:          0
cpu0->cpu0_ITLB WRITE        ACCESS:          0 HIT:          0 MISS:          0 MSHR_MERGE:          0
cpu0->cpu0_ITLB TRANSLATION  ACCESS:          0 HIT:          0 MISS:          0 MSHR_MERGE:          0
cpu0->cpu0_ITLB PREFETCH REQUESTED:          0 ISSUED:          0 USEFUL:          0 USELESS:          0 LATE:          0
cpu0->cpu0_ITLB AVERAGE MISS LATENCY: - cycles
cpu0->cpu0_DTLB TOTAL        ACCESS:   14364941 HIT:   13889866 MISS:     475075 MSHR_MERGE:     223169
cpu0->cpu0_DTLB LOAD         ACCESS:   14364941 HIT:   13889866 MISS:     475075 MSHR_MERGE:     223169
cpu0->cpu0_DTLB RFO          ACCESS:          0 HIT:          0 MISS:          0 MSHR_MERGE:          0
cpu0->cpu0_DTLB PREFETCH     ACCESS:          0 HIT:          0 MISS:          0 MSHR_MERGE:          0
cpu0->cpu0_DTLB WRITE        ACCESS:          0 HIT:          0 MISS:          0 MSHR_MERGE:          0
cpu0->cpu0_DTLB TRANSLATION  ACCESS:          0 HIT:          0 MISS:          0 MSHR_MERGE:          0
cpu0->cpu0_DTLB PREFETCH REQUESTED:          0 ISSUED:          0 USEFUL:          0 USELESS:          0 LATE:          0
cpu0->cpu0_DTLB AVERAGE MISS LATENCY: 32.71 cycles
cpu0->LLC TOTAL        ACCESS:    2130434 HIT:     411445 MISS:    1718989 MSHR_MERGE:        248
cpu0->LLC LOAD         ACCESS:     802245 HIT:      22345 MISS:     779900 MSHR_MERGE:          6
cpu0->LLC RFO          ACCESS:         10 HIT:          2 MISS:          8 MSHR_MERGE:          0
cpu0->LLC PREFETCH     ACCESS:     656396 HIT:      11419 MISS:     644977 MSHR_MERGE:        242
cpu0->LLC WRITE        ACCESS:     661548 HIT:     377213 MISS:     284335 MSHR_MERGE:          0
cpu0->LLC TRANSLATION  ACCESS:      10235 HIT:        466 MISS:       9769 MSHR_MERGE:          0
cpu0->LLC PREFETCH REQUESTED:          0 ISSUED:          0 USEFUL:          0 USELESS:          0 LATE:          0
cpu0->LLC AVERAGE MISS LATENCY: 252.8 cycles

DRAM Statistics

Channel 0 RQ ROW_BUFFER_HIT:      32600
  ROW_BUFFER_MISS:    1401753
  AVG DBUS CONGESTED CYCLE: 6.295
Channel 0 WQ ROW_BUFFER_HIT:     106237
  ROW_BUFFER_MISS:     520435
  FULL:          0
Channel 0 REFRESHES ISSUED:       5322

[ROI Statistics]
[System Configuration]
num_cpus 1
cpu_freq 4000
fetch_width 6
decode_width 6
dispatch_width 6
execute_width 6
lq_width 2
sq_width 2
retire_width 6
scheduler_size 128
branch_mispredict_penalty 15
rob_size 352
lq_size 128
sq_size 72
ifetch_buffer_size 64
decode_buffer_size 32
dispatch_buffer_size 32
register_file_size 288
decode_latency 1
dispatch_latency 1
schedule_latency 1
execute_latency 1
page_size 4096
block_size 64
core_0_itlb_set 16
core_0_itlb_way 4
core_0_itlb_rq_size 16
core_0_itlb_wq_size 16
core_0_itlb_pq_size 0
core_0_itlb_mshr_size 8
core_0_itlb_hit_latency 1
core_0_itlb_fill_latency 1
core_0_itlb_max_tag_check 2
core_0_itlb_max_fill 2
core_0_dtlb_set 16
core_0_dtlb_way 4
core_0_dtlb_rq_size 16
core_0_dtlb_wq_size 16
core_0_dtlb_pq_size 0
core_0_dtlb_mshr_size 8
core_0_dtlb_hit_latency 1
core_0_dtlb_fill_latency 1
core_0_dtlb_max_tag_check 2
core_0_dtlb_max_fill 2
core_0_stlb_set 128
core_0_stlb_way 12
core_0_stlb_rq_size 32
core_0_stlb_wq_size 32
core_0_stlb_pq_size 0
core_0_stlb_mshr_size 16
core_0_stlb_hit_latency 4
core_0_stlb_fill_latency 4
core_0_stlb_max_tag_check 1
core_0_stlb_max_fill 1
core_0_l1i_set 64
core_0_l1i_way 8
core_0_l1i_rq_size 64
core_0_l1i_wq_size 64
core_0_l1i_pq_size 32
core_0_l1i_mshr_size 8
core_0_l1i_hit_latency 2
core_0_l1i_fill_latency 2
core_0_l1i_max_tag_check 2
core_0_l1i_max_fill 2
core_0_l1d_set 64
core_0_l1d_way 12
core_0_l1d_rq_size 64
core_0_l1d_wq_size 64
core_0_l1d_pq_size 8
core_0_l1d_mshr_size 16
core_0_l1d_hit_latency 2
core_0_l1d_fill_latency 3
core_0_l1d_max_tag_check 2
core_0_l1d_max_fill 2
core_0_l2c_set 1024
core_0_l2c_way 8
core_0_l2c_rq_size 32
core_0_l2c_wq_size 32
core_0_l2c_pq_size 16
core_0_l2c_mshr_size 32
core_0_l2c_hit_latency 5
core_0_l2c_fill_latency 5
core_0_l2c_max_tag_check 1
core_0_l2c_max_fill 1
llc_set 2048
llc_way 16
llc_rq_size 32
llc_wq_size 32
llc_pq_size 32
llc_mshr_size 64
llc_hit_latency 10
llc_fill_latency 10
llc_max_tag_check 1
llc_max_fill 1
dram_channels 1
dram_ranks 1
dram_bankgroups 8
dram_banks 4
dram_rows 65536
dram_columns 1024
dram_channel_width 8
dram_rq_size 64
dram_wq_size 64
dram_size 17179869184
core_0_itlb_prefetcher no
core_0_dtlb_prefetcher no
core_0_stlb_prefetcher no
core_0_l1i_prefetcher next_line
core_0_l1d_prefetcher berti
core_0_l2c_prefetcher ip_stride
llc_prefetcher no
llc_replacement drrip

Core_0_instructions 50000001
Core_0_cycles 63865226
Core_0_IPC 0.782899
Core_0_branch_prediction_accuracy 98.7481
Core_0_branch_MPKI 1.0806
Core_0_average_ROB_occupancy_at_mispredict 123.629

Core_0_ITLB_total_access 5623288
Core_0_ITLB_total_hit 5623288
Core_0_ITLB_total_miss 0
Core_0_ITLB_total_MPKI 0
Core_0_ITLB_total_miss_rate 0
Core_0_ITLB_demand_access 5623288
Core_0_ITLB_demand_hit 5623288
Core_0_ITLB_demand_miss 0
Core_0_ITLB_demand_MPKI 0
Core_0_ITLB_demand_miss_rate 0
Core_0_ITLB_load_access 5623288
Core_0_ITLB_load_hit 5623288
Core_0_ITLB_load_miss 0
Core_0_ITLB_load_MPKI 0
Core_0_ITLB_load_miss_rate 0
Core_0_ITLB_rfo_access 0
Core_0_ITLB_rfo_hit 0
Core_0_ITLB_rfo_miss 0
Core_0_ITLB_rfo_MPKI 0
Core_0_ITLB_rfo_miss_rate 0
Core_0_ITLB_prefetch_access 0
Core_0_ITLB_prefetch_hit 0
Core_0_ITLB_prefetch_miss 0
Core_0_ITLB_prefetch_MPKI 0
Core_0_ITLB_prefetch_miss_rate 0
Core_0_ITLB_writeback_access 0
Core_0_ITLB_writeback_hit 0
Core_0_ITLB_writeback_miss 0
Core_0_ITLB_writeback_MPKI 0
Core_0_ITLB_writeback_miss_rate 0
Core_0_ITLB_prefetch_requested 0
Core_0_ITLB_prefetch_issued 0
Core_0_ITLB_prefetch_useful 0
Core_0_ITLB_prefetch_useless 0
Core_0_ITLB_prefetch_late 0
Core_0_ITLB_prefetch_accuracy 0
Core_0_ITLB_prefetch_coverage 0

Core_0_DTLB_total_access 14364941
Core_0_DTLB_total_hit 13889866
Core_0_DTLB_total_miss 475075
Core_0_DTLB_total_MPKI 9.5015
Core_0_DTLB_total_miss_rate 0.0330718
Core_0_DTLB_demand_access 14364941
Core_0_DTLB_demand_hit 13889866
Core_0_DTLB_demand_miss 475075
Core_0_DTLB_demand_MPKI 9.5015
Core_0_DTLB_demand_miss_rate 0.0330718
Core_0_DTLB_load_access 14364941
Core_0_DTLB_load_hit 13889866
Core_0_DTLB_load_miss 475075
Core_0_DTLB_load_MPKI 9.5015
Core_0_DTLB_load_miss_rate 0.0330718
Core_0_DTLB_rfo_access 0
Core_0_DTLB_rfo_hit 0
Core_0_DTLB_rfo_miss 0
Core_0_DTLB_rfo_MPKI 0
Core_0_DTLB_rfo_miss_rate 0
Core_0_DTLB_prefetch_access 0
Core_0_DTLB_prefetch_hit 0
Core_0_DTLB_prefetch_miss 0
Core_0_DTLB_prefetch_MPKI 0
Core_0_DTLB_prefetch_miss_rate 0
Core_0_DTLB_writeback_access 0
Core_0_DTLB_writeback_hit 0
Core_0_DTLB_writeback_miss 0
Core_0_DTLB_writeback_MPKI 0
Core_0_DTLB_writeback_miss_rate 0
Core_0_DTLB_prefetch_requested 0
Core_0_DTLB_prefetch_issued 0
Core_0_DTLB_prefetch_useful 0
Core_0_DTLB_prefetch_useless 0
Core_0_DTLB_prefetch_late 0
Core_0_DTLB_prefetch_accuracy 0
Core_0_DTLB_prefetch_coverage 0

Core_0_STLB_total_access 251906
Core_0_STLB_total_hit 234920
Core_0_STLB_total_miss 16986
Core_0_STLB_total_MPKI 0.33972
Core_0_STLB_total_miss_rate 0.0674299
Core_0_STLB_demand_access 251906
Core_0_STLB_demand_hit 234920
Core_0_STLB_demand_miss 16986
Core_0_STLB_demand_MPKI 0.33972
Core_0_STLB_demand_miss_rate 0.0674299
Core_0_STLB_load_access 251906
Core_0_STLB_load_hit 234920
Core_0_STLB_load_miss 16986
Core_0_STLB_load_MPKI 0.33972
Core_0_STLB_load_miss_rate 0.0674299
Core_0_STLB_rfo_access 0
Core_0_STLB_rfo_hit 0
Core_0_STLB_rfo_miss 0
Core_0_STLB_rfo_MPKI 0
Core_0_STLB_rfo_miss_rate 0
Core_0_STLB_prefetch_access 0
Core_0_STLB_prefetch_hit 0
Core_0_STLB_prefetch_miss 0
Core_0_STLB_prefetch_MPKI 0
Core_0_STLB_prefetch_miss_rate 0
Core_0_STLB_writeback_access 0
Core_0_STLB_writeback_hit 0
Core_0_STLB_writeback_miss 0
Core_0_STLB_writeback_MPKI 0
Core_0_STLB_writeback_miss_rate 0
Core_0_STLB_prefetch_requested 0
Core_0_STLB_prefetch_issued 0
Core_0_STLB_prefetch_useful 0
Core_0_STLB_prefetch_useless 0
Core_0_STLB_prefetch_late 0
Core_0_STLB_prefetch_accuracy 0
Core_0_STLB_prefetch_coverage 0

Core_0_L1I_total_access 6998077
Core_0_L1I_total_hit 6998077
Core_0_L1I_total_miss 0
Core_0_L1I_total_MPKI 0
Core_0_L1I_total_miss_rate 0
Core_0_L1I_demand_access 6998077
Core_0_L1I_demand_hit 6998077
Core_0_L1I_demand_miss 0
Core_0_L1I_demand_MPKI 0
Core_0_L1I_demand_miss_rate 0
Core_0_L1I_load_access 6998077
Core_0_L1I_load_hit 6998077
Core_0_L1I_load_miss 0
Core_0_L1I_load_MPKI 0
Core_0_L1I_load_miss_rate 0
Core_0_L1I_rfo_access 0
Core_0_L1I_rfo_hit 0
Core_0_L1I_rfo_miss 0
Core_0_L1I_rfo_MPKI 0
Core_0_L1I_rfo_miss_rate 0
Core_0_L1I_prefetch_access 0
Core_0_L1I_prefetch_hit 0
Core_0_L1I_prefetch_miss 0
Core_0_L1I_prefetch_MPKI 0
Core_0_L1I_prefetch_miss_rate 0
Core_0_L1I_writeback_access 0
Core_0_L1I_writeback_hit 0
Core_0_L1I_writeback_miss 0
Core_0_L1I_writeback_MPKI 0
Core_0_L1I_writeback_miss_rate 0
Core_0_L1I_prefetch_requested 0
Core_0_L1I_prefetch_issued 0
Core_0_L1I_prefetch_useful 0
Core_0_L1I_prefetch_useless 0
Core_0_L1I_prefetch_late 0
Core_0_L1I_prefetch_accuracy 0
Core_0_L1I_prefetch_coverage 0

Core_0_L1D_total_access 15968653
Core_0_L1D_total_hit 14149331
Core_0_L1D_total_miss 1819322
Core_0_L1D_total_MPKI 36.3864
Core_0_L1D_total_miss_rate 0.113931
Core_0_L1D_demand_access 6372334
Core_0_L1D_demand_hit 5221340
Core_0_L1D_demand_miss 1150994
Core_0_L1D_demand_MPKI 23.0199
Core_0_L1D_demand_miss_rate 0.180624
Core_0_L1D_load_access 6372334
Core_0_L1D_load_hit 5221340
Core_0_L1D_load_miss 1150994
Core_0_L1D_load_MPKI 23.0199
Core_0_L1D_load_miss_rate 0.180624
Core_0_L1D_rfo_access 0
Core_0_L1D_rfo_hit 0
Core_0_L1D_rfo_miss 0
Core_0_L1D_rfo_MPKI 0
Core_0_L1D_rfo_miss_rate 0
Core_0_L1D_prefetch_access 897557
Core_0_L1D_prefetch_hit 237389
Core_0_L1D_prefetch_miss 660168
Core_0_L1D_prefetch_MPKI 13.2034
Core_0_L1D_prefetch_miss_rate 0.735517
Core_0_L1D_writeback_access 8698762
Core_0_L1D_writeback_hit 8690602
Core_0_L1D_writeback_miss 8160
Core_0_L1D_writeback_MPKI 0.1632
Core_0_L1D_writeback_miss_rate 0.000938065
Core_0_L1D_prefetch_requested 929323
Core_0_L1D_prefetch_issued 897549
Core_0_L1D_prefetch_useful 395327
Core_0_L1D_prefetch_useless 238833
Core_0_L1D_prefetch_late 35332
Core_0_L1D_prefetch_accuracy 0.440452
Core_0_L1D_prefetch_coverage 0.255656

Core_0_L2C_total_access 2240556
Core_0_L2C_total_hit 772203
Core_0_L2C_total_miss 1468353
Core_0_L2C_total_MPKI 29.3671
Core_0_L2C_total_miss_rate 0.655352
Core_0_L2C_demand_access 850420
Core_0_L2C_demand_hit 48033
Core_0_L2C_demand_miss 802387
Core_0_L2C_demand_MPKI 16.0477
Core_0_L2C_demand_miss_rate 0.943518
Core_0_L2C_load_access 848175
Core_0_L2C_load_hit 45798
Core_0_L2C_load_miss 802377
Core_0_L2C_load_MPKI 16.0475
Core_0_L2C_load_miss_rate 0.946004
Core_0_L2C_rfo_access 2245
Core_0_L2C_rfo_hit 2235
Core_0_L2C_rfo_miss 10
Core_0_L2C_rfo_MPKI 0.0002
Core_0_L2C_rfo_miss_rate 0.00445434
Core_0_L2C_prefetch_access 701908
Core_0_L2C_prefetch_hit 36992
Core_0_L2C_prefetch_miss 664916
Core_0_L2C_prefetch_MPKI 13.2983
Core_0_L2C_prefetch_miss_rate 0.947298
Core_0_L2C_writeback_access 688228
Core_0_L2C_writeback_hit 687178
Core_0_L2C_writeback_miss 1050
Core_0_L2C_writeback_MPKI 0.021
Core_0_L2C_writeback_miss_rate 0.00152566
Core_0_L2C_prefetch_requested 67649
Core_0_L2C_prefetch_issued 67649
Core_0_L2C_prefetch_useful 15408
Core_0_L2C_prefetch_useless 18871
Core_0_L2C_prefetch_late 131
Core_0_L2C_prefetch_accuracy 0.227764
Core_0_L2C_prefetch_coverage 0.0188409

Core_0_LLC_total_access 2120199
Core_0_LLC_total_hit 410979
Core_0_LLC_total_miss 1709220
Core_0_LLC_total_MPKI 34.1844
Core_0_LLC_total_miss_rate 0.80616
Core_0_LLC_demand_access 802255
Core_0_LLC_demand_hit 22347
Core_0_LLC_demand_miss 779908
Core_0_LLC_demand_MPKI 15.5982
Core_0_LLC_demand_miss_rate 0.972145
Core_0_LLC_load_access 802245
Core_0_LLC_load_hit 22345
Core_0_LLC_load_miss 779900
Core_0_LLC_load_MPKI 15.598
Core_0_LLC_load_miss_rate 0.972147
Core_0_LLC_rfo_access 10
Core_0_LLC_rfo_hit 2
Core_0_LLC_rfo_miss 8
Core_0_LLC_rfo_MPKI 0.00016
Core_0_LLC_rfo_miss_rate 0.8
Core_0_LLC_prefetch_access 656396
Core_0_LLC_prefetch_hit 11419
Core_0_LLC_prefetch_miss 644977
Core_0_LLC_prefetch_MPKI 12.8995
Core_0_LLC_prefetch_miss_rate 0.982603
Core_0_LLC_writeback_access 661548
Core_0_LLC_writeback_hit 377213
Core_0_LLC_writeback_miss 284335
Core_0_LLC_writeback_MPKI 5.6867
Core_0_LLC_writeback_miss_rate 0.429803
Core_0_LLC_prefetch_requested 0
Core_0_LLC_prefetch_issued 0
Core_0_LLC_prefetch_useful 0
Core_0_LLC_prefetch_useless 0
Core_0_LLC_prefetch_late 0
Core_0_LLC_prefetch_accuracy 0
Core_0_LLC_prefetch_coverage 0

[DRAM Statistics]
Channel_0_RQ_row_buffer_hit 32600
Channel_0_RQ_row_buffer_miss 1401753
Channel_0_WQ_row_buffer_hit 106237
Channel_0_WQ_row_buffer_miss 520435
Channel_0_WQ_full 0
Channel_0_dbus_congested 6123687
DRAM_total_RQ_row_buffer_hit 32600
DRAM_total_RQ_row_buffer_miss 1401753
DRAM_total_WQ_row_buffer_hit 106237
DRAM_total_WQ_row_buffer_miss 520435
DRAM_total_WQ_full 0
DRAM_total_dbus_congested 6123687
DRAM_avg_congested_cycle 6.29525

======STLB miss causes ========
Core_0_STLB_miss_cause_breakdown
Core_0_STLB_cause_Demand_Data_miss 0
Core_0_STLB_cause_Demand_Data_miss_rate 0
Core_0_STLB_cause_Demand_Instruction_miss 0
Core_0_STLB_cause_Demand_Instruction_miss_rate 0
Core_0_STLB_cause_L1D_Prefetch_miss 16986
Core_0_STLB_cause_L1D_Prefetch_miss_rate 0.0674299
Core_0_STLB_cause_L1I_Prefetch_miss 0
Core_0_STLB_cause_L1I_Prefetch_miss_rate 0
Core_0_STLB_cause_Other_miss 0
Core_0_STLB_cause_Other_miss_rate 0
Core_0_STLB_Demand_miss 0
Core_0_STLB_Demand_miss_rate 0
Core_0_STLB_L1D_Prefetch_miss 16986
Core_0_STLB_L1D_Prefetch_miss_rate 0.0674299
Core_0_STLB_Other_miss 0
Core_0_STLB_Other_miss_rate 0
