[VMEM] WARNING: physical memory size is smaller than virtual memory size.

*** ChampSim Multicore Out-of-Order Simulator ***
Warmup Instructions: 20000000
Simulation Instructions: 50000000
Number of CPUs: 1
Page size: 4096
STLB ideal mode: demand
STLB ideal fill: on
Core 0: /data0/tzh/champsim_traces/SPEC06/429.mcf-192B.champsimtrace.xz
 L1D Berti prefetcher
Off-chip DRAM Size: 16 GiB Channels: 1 Width: 64-bit Data Rate: 3205 MT/s
Warmup halting CPU 0 at instruction 20000005 cycle 4010666 for remainder of phase
Warmup finished CPU 0 instructions: 20000005 cycles: 4010666 cumulative IPC: 4.987 (Simulation time: 00 hr 01 min 15 sec)
Warmup complete CPU 0 instructions: 20000005 cycles: 4010666 cumulative IPC: 4.987 (Simulation time: 00 hr 01 min 15 sec)
Simulation finished CPU 0 instructions: 50000000 cycles: 398426932 cumulative IPC: 0.1255 (Simulation time: 00 hr 25 min 26 sec)
Simulation complete CPU 0 instructions: 50000000 cycles: 398426932 cumulative IPC: 0.1255 (Simulation time: 00 hr 25 min 26 sec)

ChampSim completed all CPUs

=== Simulation ===
CPU 0 runs /data0/tzh/champsim_traces/SPEC06/429.mcf-192B.champsimtrace.xz

Region of Interest Statistics

CPU 0 cumulative IPC: 0.1255 instructions: 50000000 cycles: 398426932
CPU 0 Branch Prediction Accuracy: 91.85% MPKI: 19.58 Average ROB Occupancy at Mispredict: 30.64
Branch type MPKI
BRANCH_DIRECT_JUMP: 0.02388
BRANCH_INDIRECT: 0
BRANCH_CONDITIONAL: 19.56
BRANCH_DIRECT_CALL: 0
BRANCH_INDIRECT_CALL: 0
BRANCH_RETURN: 0

cpu0->cpu0_STLB TOTAL        ACCESS:    7433342 HIT:    7428866 MISS:       4476 MSHR_MERGE:          0
cpu0->cpu0_STLB LOAD         ACCESS:    7433342 HIT:    7428866 MISS:       4476 MSHR_MERGE:          0
cpu0->cpu0_STLB RFO          ACCESS:          0 HIT:          0 MISS:          0 MSHR_MERGE:          0
cpu0->cpu0_STLB PREFETCH     ACCESS:          0 HIT:          0 MISS:          0 MSHR_MERGE:          0
cpu0->cpu0_STLB WRITE        ACCESS:          0 HIT:          0 MISS:          0 MSHR_MERGE:          0
cpu0->cpu0_STLB TRANSLATION  ACCESS:          0 HIT:          0 MISS:          0 MSHR_MERGE:          0
cpu0->cpu0_STLB PREFETCH REQUESTED:          0 ISSUED:          0 USEFUL:          0 USELESS:          0 LATE:          0
cpu0->cpu0_STLB AVERAGE MISS LATENCY: 118.9 cycles
cpu0->cpu0_L2C TOTAL        ACCESS:    7432690 HIT:    2030717 MISS:    5401973 MSHR_MERGE:         19
cpu0->cpu0_L2C LOAD         ACCESS:    7077123 HIT:    1968825 MISS:    5108298 MSHR_MERGE:         13
cpu0->cpu0_L2C RFO          ACCESS:       1046 HIT:        332 MISS:        714 MSHR_MERGE:          0
cpu0->cpu0_L2C PREFETCH     ACCESS:     337373 HIT:      48679 MISS:     288694 MSHR_MERGE:          6
cpu0->cpu0_L2C WRITE        ACCESS:      12663 HIT:      12663 MISS:          0 MSHR_MERGE:          0
cpu0->cpu0_L2C TRANSLATION  ACCESS:       4485 HIT:        218 MISS:       4267 MSHR_MERGE:          0
cpu0->cpu0_L2C PREFETCH REQUESTED:        483 ISSUED:        483 USEFUL:         72 USELESS:        240 LATE:         13
cpu0->cpu0_L2C AVERAGE MISS LATENCY: 131.8 cycles
cpu0->cpu0_L1I TOTAL        ACCESS:      26800 HIT:      26800 MISS:          0 MSHR_MERGE:          0
cpu0->cpu0_L1I LOAD         ACCESS:      26800 HIT:      26800 MISS:          0 MSHR_MERGE:          0
cpu0->cpu0_L1I RFO          ACCESS:          0 HIT:          0 MISS:          0 MSHR_MERGE:          0
cpu0->cpu0_L1I PREFETCH     ACCESS:          0 HIT:          0 MISS:          0 MSHR_MERGE:          0
cpu0->cpu0_L1I WRITE        ACCESS:          0 HIT:          0 MISS:          0 MSHR_MERGE:          0
cpu0->cpu0_L1I TRANSLATION  ACCESS:          0 HIT:          0 MISS:          0 MSHR_MERGE:          0
cpu0->cpu0_L1I PREFETCH REQUESTED:          0 ISSUED:          0 USEFUL:          0 USELESS:          0 LATE:          0
cpu0->cpu0_L1I AVERAGE MISS LATENCY: - cycles
cpu0->cpu0_L1D TOTAL        ACCESS:   12686184 HIT:    3366189 MISS:    9319995 MSHR_MERGE:    1900452
cpu0->cpu0_L1D LOAD         ACCESS:   12258886 HIT:    3282692 MISS:    8976194 MSHR_MERGE:    1899072
cpu0->cpu0_L1D RFO          ACCESS:          0 HIT:          0 MISS:          0 MSHR_MERGE:          0
cpu0->cpu0_L1D PREFETCH     ACCESS:     375494 HIT:      37751 MISS:     337743 MSHR_MERGE:        853
cpu0->cpu0_L1D WRITE        ACCESS:      42813 HIT:      41246 MISS:       1567 MSHR_MERGE:        521
cpu0->cpu0_L1D TRANSLATION  ACCESS:       8991 HIT:       4500 MISS:       4491 MSHR_MERGE:          6
cpu0->cpu0_L1D PREFETCH REQUESTED:     375596 ISSUED:     375494 USEFUL:       8874 USELESS:     328009 LATE:        177
cpu0->cpu0_L1D AVERAGE MISS LATENCY: 103.9 cycles
cpu0->cpu0_ITLB TOTAL        ACCESS:      24151 HIT:      24151 MISS:          0 MSHR_MERGE:          0
cpu0->cpu0_ITLB LOAD         ACCESS:      24151 HIT:      24151 MISS:          0 MSHR_MERGE:          0
cpu0->cpu0_ITLB RFO          ACCESS:          0 HIT:          0 MISS:          0 MSHR_MERGE:          0
cpu0->cpu0_ITLB PREFETCH     ACCESS:          0 HIT:          0 MISS:          0 MSHR_MERGE:          0
cpu0->cpu0_ITLB WRITE        ACCESS:          0 HIT:          0 MISS:          0 MSHR_MERGE:          0
cpu0->cpu0_ITLB TRANSLATION  ACCESS:          0 HIT:          0 MISS:          0 MSHR_MERGE:          0
cpu0->cpu0_ITLB PREFETCH REQUESTED:          0 ISSUED:          0 USEFUL:          0 USELESS:          0 LATE:          0
cpu0->cpu0_ITLB AVERAGE MISS LATENCY: - cycles
cpu0->cpu0_DTLB TOTAL        ACCESS:   12668651 HIT:    3350444 MISS:    9318207 MSHR_MERGE:    1884866
cpu0->cpu0_DTLB LOAD         ACCESS:   12668651 HIT:    3350444 MISS:    9318207 MSHR_MERGE:    1884866
cpu0->cpu0_DTLB RFO          ACCESS:          0 HIT:          0 MISS:          0 MSHR_MERGE:          0
cpu0->cpu0_DTLB PREFETCH     ACCESS:          0 HIT:          0 MISS:          0 MSHR_MERGE:          0
cpu0->cpu0_DTLB WRITE        ACCESS:          0 HIT:          0 MISS:          0 MSHR_MERGE:          0
cpu0->cpu0_DTLB TRANSLATION  ACCESS:          0 HIT:          0 MISS:          0 MSHR_MERGE:          0
cpu0->cpu0_DTLB PREFETCH REQUESTED:          0 ISSUED:          0 USEFUL:          0 USELESS:          0 LATE:          0
cpu0->cpu0_DTLB AVERAGE MISS LATENCY: 5.073 cycles
cpu0->LLC TOTAL        ACCESS:    5412187 HIT:    2318119 MISS:    3094068 MSHR_MERGE:          0
cpu0->LLC LOAD         ACCESS:    5108285 HIT:    2202452 MISS:    2905833 MSHR_MERGE:          0
cpu0->LLC RFO          ACCESS:        714 HIT:        456 MISS:        258 MSHR_MERGE:          0
cpu0->LLC PREFETCH     ACCESS:     288688 HIT:     104605 MISS:     184083 MSHR_MERGE:          0
cpu0->LLC WRITE        ACCESS:      10233 HIT:       8151 MISS:       2082 MSHR_MERGE:          0
cpu0->LLC TRANSLATION  ACCESS:       4267 HIT:       2455 MISS:       1812 MSHR_MERGE:          0
cpu0->LLC PREFETCH REQUESTED:          0 ISSUED:          0 USEFUL:          0 USELESS:          0 LATE:          0
cpu0->LLC AVERAGE MISS LATENCY: 204.2 cycles

DRAM Statistics

Channel 0 RQ ROW_BUFFER_HIT:        323
  ROW_BUFFER_MISS:    3091662
  AVG DBUS CONGESTED CYCLE: 3.105
Channel 0 WQ ROW_BUFFER_HIT:        506
  ROW_BUFFER_MISS:       2075
  FULL:          0
Channel 0 REFRESHES ISSUED:      33202

[ROI Statistics]
[System Configuration]
num_cpus 1
cpu_freq 4000
fetch_width 6
decode_width 6
dispatch_width 6
execute_width 6
lq_width 2
sq_width 2
retire_width 6
scheduler_size 128
branch_mispredict_penalty 15
rob_size 352
lq_size 128
sq_size 72
ifetch_buffer_size 64
decode_buffer_size 32
dispatch_buffer_size 32
register_file_size 288
decode_latency 1
dispatch_latency 1
schedule_latency 1
execute_latency 1
page_size 4096
block_size 64
core_0_itlb_set 16
core_0_itlb_way 4
core_0_itlb_rq_size 16
core_0_itlb_wq_size 16
core_0_itlb_pq_size 0
core_0_itlb_mshr_size 8
core_0_itlb_hit_latency 1
core_0_itlb_fill_latency 1
core_0_itlb_max_tag_check 2
core_0_itlb_max_fill 2
core_0_dtlb_set 16
core_0_dtlb_way 4
core_0_dtlb_rq_size 16
core_0_dtlb_wq_size 16
core_0_dtlb_pq_size 0
core_0_dtlb_mshr_size 8
core_0_dtlb_hit_latency 1
core_0_dtlb_fill_latency 1
core_0_dtlb_max_tag_check 2
core_0_dtlb_max_fill 2
core_0_stlb_set 128
core_0_stlb_way 12
core_0_stlb_rq_size 32
core_0_stlb_wq_size 32
core_0_stlb_pq_size 0
core_0_stlb_mshr_size 16
core_0_stlb_hit_latency 4
core_0_stlb_fill_latency 4
core_0_stlb_max_tag_check 1
core_0_stlb_max_fill 1
core_0_l1i_set 64
core_0_l1i_way 8
core_0_l1i_rq_size 64
core_0_l1i_wq_size 64
core_0_l1i_pq_size 32
core_0_l1i_mshr_size 8
core_0_l1i_hit_latency 2
core_0_l1i_fill_latency 2
core_0_l1i_max_tag_check 2
core_0_l1i_max_fill 2
core_0_l1d_set 64
core_0_l1d_way 12
core_0_l1d_rq_size 64
core_0_l1d_wq_size 64
core_0_l1d_pq_size 8
core_0_l1d_mshr_size 16
core_0_l1d_hit_latency 2
core_0_l1d_fill_latency 3
core_0_l1d_max_tag_check 2
core_0_l1d_max_fill 2
core_0_l2c_set 1024
core_0_l2c_way 8
core_0_l2c_rq_size 32
core_0_l2c_wq_size 32
core_0_l2c_pq_size 16
core_0_l2c_mshr_size 32
core_0_l2c_hit_latency 5
core_0_l2c_fill_latency 5
core_0_l2c_max_tag_check 1
core_0_l2c_max_fill 1
llc_set 2048
llc_way 16
llc_rq_size 32
llc_wq_size 32
llc_pq_size 32
llc_mshr_size 64
llc_hit_latency 10
llc_fill_latency 10
llc_max_tag_check 1
llc_max_fill 1
dram_channels 1
dram_ranks 1
dram_bankgroups 8
dram_banks 4
dram_rows 65536
dram_columns 1024
dram_channel_width 8
dram_rq_size 64
dram_wq_size 64
dram_size 17179869184
core_0_itlb_prefetcher no
core_0_dtlb_prefetcher no
core_0_stlb_prefetcher no
core_0_l1i_prefetcher next_line
core_0_l1d_prefetcher berti
core_0_l2c_prefetcher ip_stride
llc_prefetcher no
llc_replacement drrip

Core_0_instructions 50000000
Core_0_cycles 398426932
Core_0_IPC 0.125494
Core_0_branch_prediction_accuracy 91.8483
Core_0_branch_MPKI 19.5804
Core_0_average_ROB_occupancy_at_mispredict 30.6353

Core_0_ITLB_total_access 24151
Core_0_ITLB_total_hit 24151
Core_0_ITLB_total_miss 0
Core_0_ITLB_total_MPKI 0
Core_0_ITLB_total_miss_rate 0
Core_0_ITLB_demand_access 24151
Core_0_ITLB_demand_hit 24151
Core_0_ITLB_demand_miss 0
Core_0_ITLB_demand_MPKI 0
Core_0_ITLB_demand_miss_rate 0
Core_0_ITLB_load_access 24151
Core_0_ITLB_load_hit 24151
Core_0_ITLB_load_miss 0
Core_0_ITLB_load_MPKI 0
Core_0_ITLB_load_miss_rate 0
Core_0_ITLB_rfo_access 0
Core_0_ITLB_rfo_hit 0
Core_0_ITLB_rfo_miss 0
Core_0_ITLB_rfo_MPKI 0
Core_0_ITLB_rfo_miss_rate 0
Core_0_ITLB_prefetch_access 0
Core_0_ITLB_prefetch_hit 0
Core_0_ITLB_prefetch_miss 0
Core_0_ITLB_prefetch_MPKI 0
Core_0_ITLB_prefetch_miss_rate 0
Core_0_ITLB_writeback_access 0
Core_0_ITLB_writeback_hit 0
Core_0_ITLB_writeback_miss 0
Core_0_ITLB_writeback_MPKI 0
Core_0_ITLB_writeback_miss_rate 0
Core_0_ITLB_prefetch_requested 0
Core_0_ITLB_prefetch_issued 0
Core_0_ITLB_prefetch_useful 0
Core_0_ITLB_prefetch_useless 0
Core_0_ITLB_prefetch_late 0
Core_0_ITLB_prefetch_accuracy 0
Core_0_ITLB_prefetch_coverage 0

Core_0_DTLB_total_access 12668651
Core_0_DTLB_total_hit 3350444
Core_0_DTLB_total_miss 9318207
Core_0_DTLB_total_MPKI 186.364
Core_0_DTLB_total_miss_rate 0.735533
Core_0_DTLB_demand_access 12668651
Core_0_DTLB_demand_hit 3350444
Core_0_DTLB_demand_miss 9318207
Core_0_DTLB_demand_MPKI 186.364
Core_0_DTLB_demand_miss_rate 0.735533
Core_0_DTLB_load_access 12668651
Core_0_DTLB_load_hit 3350444
Core_0_DTLB_load_miss 9318207
Core_0_DTLB_load_MPKI 186.364
Core_0_DTLB_load_miss_rate 0.735533
Core_0_DTLB_rfo_access 0
Core_0_DTLB_rfo_hit 0
Core_0_DTLB_rfo_miss 0
Core_0_DTLB_rfo_MPKI 0
Core_0_DTLB_rfo_miss_rate 0
Core_0_DTLB_prefetch_access 0
Core_0_DTLB_prefetch_hit 0
Core_0_DTLB_prefetch_miss 0
Core_0_DTLB_prefetch_MPKI 0
Core_0_DTLB_prefetch_miss_rate 0
Core_0_DTLB_writeback_access 0
Core_0_DTLB_writeback_hit 0
Core_0_DTLB_writeback_miss 0
Core_0_DTLB_writeback_MPKI 0
Core_0_DTLB_writeback_miss_rate 0
Core_0_DTLB_prefetch_requested 0
Core_0_DTLB_prefetch_issued 0
Core_0_DTLB_prefetch_useful 0
Core_0_DTLB_prefetch_useless 0
Core_0_DTLB_prefetch_late 0
Core_0_DTLB_prefetch_accuracy 0
Core_0_DTLB_prefetch_coverage 0

Core_0_STLB_total_access 7433342
Core_0_STLB_total_hit 7428866
Core_0_STLB_total_miss 4476
Core_0_STLB_total_MPKI 0.08952
Core_0_STLB_total_miss_rate 0.000602152
Core_0_STLB_demand_access 7433342
Core_0_STLB_demand_hit 7428866
Core_0_STLB_demand_miss 4476
Core_0_STLB_demand_MPKI 0.08952
Core_0_STLB_demand_miss_rate 0.000602152
Core_0_STLB_load_access 7433342
Core_0_STLB_load_hit 7428866
Core_0_STLB_load_miss 4476
Core_0_STLB_load_MPKI 0.08952
Core_0_STLB_load_miss_rate 0.000602152
Core_0_STLB_rfo_access 0
Core_0_STLB_rfo_hit 0
Core_0_STLB_rfo_miss 0
Core_0_STLB_rfo_MPKI 0
Core_0_STLB_rfo_miss_rate 0
Core_0_STLB_prefetch_access 0
Core_0_STLB_prefetch_hit 0
Core_0_STLB_prefetch_miss 0
Core_0_STLB_prefetch_MPKI 0
Core_0_STLB_prefetch_miss_rate 0
Core_0_STLB_writeback_access 0
Core_0_STLB_writeback_hit 0
Core_0_STLB_writeback_miss 0
Core_0_STLB_writeback_MPKI 0
Core_0_STLB_writeback_miss_rate 0
Core_0_STLB_prefetch_requested 0
Core_0_STLB_prefetch_issued 0
Core_0_STLB_prefetch_useful 0
Core_0_STLB_prefetch_useless 0
Core_0_STLB_prefetch_late 0
Core_0_STLB_prefetch_accuracy 0
Core_0_STLB_prefetch_coverage 0

Core_0_L1I_total_access 26800
Core_0_L1I_total_hit 26800
Core_0_L1I_total_miss 0
Core_0_L1I_total_MPKI 0
Core_0_L1I_total_miss_rate 0
Core_0_L1I_demand_access 26800
Core_0_L1I_demand_hit 26800
Core_0_L1I_demand_miss 0
Core_0_L1I_demand_MPKI 0
Core_0_L1I_demand_miss_rate 0
Core_0_L1I_load_access 26800
Core_0_L1I_load_hit 26800
Core_0_L1I_load_miss 0
Core_0_L1I_load_MPKI 0
Core_0_L1I_load_miss_rate 0
Core_0_L1I_rfo_access 0
Core_0_L1I_rfo_hit 0
Core_0_L1I_rfo_miss 0
Core_0_L1I_rfo_MPKI 0
Core_0_L1I_rfo_miss_rate 0
Core_0_L1I_prefetch_access 0
Core_0_L1I_prefetch_hit 0
Core_0_L1I_prefetch_miss 0
Core_0_L1I_prefetch_MPKI 0
Core_0_L1I_prefetch_miss_rate 0
Core_0_L1I_writeback_access 0
Core_0_L1I_writeback_hit 0
Core_0_L1I_writeback_miss 0
Core_0_L1I_writeback_MPKI 0
Core_0_L1I_writeback_miss_rate 0
Core_0_L1I_prefetch_requested 0
Core_0_L1I_prefetch_issued 0
Core_0_L1I_prefetch_useful 0
Core_0_L1I_prefetch_useless 0
Core_0_L1I_prefetch_late 0
Core_0_L1I_prefetch_accuracy 0
Core_0_L1I_prefetch_coverage 0

Core_0_L1D_total_access 12677193
Core_0_L1D_total_hit 3361689
Core_0_L1D_total_miss 9315504
Core_0_L1D_total_MPKI 186.31
Core_0_L1D_total_miss_rate 0.734824
Core_0_L1D_demand_access 12258886
Core_0_L1D_demand_hit 3282692
Core_0_L1D_demand_miss 8976194
Core_0_L1D_demand_MPKI 179.524
Core_0_L1D_demand_miss_rate 0.732219
Core_0_L1D_load_access 12258886
Core_0_L1D_load_hit 3282692
Core_0_L1D_load_miss 8976194
Core_0_L1D_load_MPKI 179.524
Core_0_L1D_load_miss_rate 0.732219
Core_0_L1D_rfo_access 0
Core_0_L1D_rfo_hit 0
Core_0_L1D_rfo_miss 0
Core_0_L1D_rfo_MPKI 0
Core_0_L1D_rfo_miss_rate 0
Core_0_L1D_prefetch_access 375494
Core_0_L1D_prefetch_hit 37751
Core_0_L1D_prefetch_miss 337743
Core_0_L1D_prefetch_MPKI 6.75486
Core_0_L1D_prefetch_miss_rate 0.899463
Core_0_L1D_writeback_access 42813
Core_0_L1D_writeback_hit 41246
Core_0_L1D_writeback_miss 1567
Core_0_L1D_writeback_MPKI 0.03134
Core_0_L1D_writeback_miss_rate 0.036601
Core_0_L1D_prefetch_requested 375596
Core_0_L1D_prefetch_issued 375494
Core_0_L1D_prefetch_useful 8874
Core_0_L1D_prefetch_useless 328009
Core_0_L1D_prefetch_late 177
Core_0_L1D_prefetch_accuracy 0.0236329
Core_0_L1D_prefetch_coverage 0.000987639

Core_0_L2C_total_access 7428205
Core_0_L2C_total_hit 2030499
Core_0_L2C_total_miss 5397706
Core_0_L2C_total_MPKI 107.954
Core_0_L2C_total_miss_rate 0.72665
Core_0_L2C_demand_access 7078169
Core_0_L2C_demand_hit 1969157
Core_0_L2C_demand_miss 5109012
Core_0_L2C_demand_MPKI 102.18
Core_0_L2C_demand_miss_rate 0.721799
Core_0_L2C_load_access 7077123
Core_0_L2C_load_hit 1968825
Core_0_L2C_load_miss 5108298
Core_0_L2C_load_MPKI 102.166
Core_0_L2C_load_miss_rate 0.721804
Core_0_L2C_rfo_access 1046
Core_0_L2C_rfo_hit 332
Core_0_L2C_rfo_miss 714
Core_0_L2C_rfo_MPKI 0.01428
Core_0_L2C_rfo_miss_rate 0.6826
Core_0_L2C_prefetch_access 337373
Core_0_L2C_prefetch_hit 48679
Core_0_L2C_prefetch_miss 288694
Core_0_L2C_prefetch_MPKI 5.77388
Core_0_L2C_prefetch_miss_rate 0.855712
Core_0_L2C_writeback_access 12663
Core_0_L2C_writeback_hit 12663
Core_0_L2C_writeback_miss 0
Core_0_L2C_writeback_MPKI 0
Core_0_L2C_writeback_miss_rate 0
Core_0_L2C_prefetch_requested 483
Core_0_L2C_prefetch_issued 483
Core_0_L2C_prefetch_useful 72
Core_0_L2C_prefetch_useless 240
Core_0_L2C_prefetch_late 13
Core_0_L2C_prefetch_accuracy 0.149068
Core_0_L2C_prefetch_coverage 1.40925e-05

Core_0_LLC_total_access 5407920
Core_0_LLC_total_hit 2315664
Core_0_LLC_total_miss 3092256
Core_0_LLC_total_MPKI 61.8451
Core_0_LLC_total_miss_rate 0.571801
Core_0_LLC_demand_access 5108999
Core_0_LLC_demand_hit 2202908
Core_0_LLC_demand_miss 2906091
Core_0_LLC_demand_MPKI 58.1218
Core_0_LLC_demand_miss_rate 0.568818
Core_0_LLC_load_access 5108285
Core_0_LLC_load_hit 2202452
Core_0_LLC_load_miss 2905833
Core_0_LLC_load_MPKI 58.1167
Core_0_LLC_load_miss_rate 0.568847
Core_0_LLC_rfo_access 714
Core_0_LLC_rfo_hit 456
Core_0_LLC_rfo_miss 258
Core_0_LLC_rfo_MPKI 0.00516
Core_0_LLC_rfo_miss_rate 0.361345
Core_0_LLC_prefetch_access 288688
Core_0_LLC_prefetch_hit 104605
Core_0_LLC_prefetch_miss 184083
Core_0_LLC_prefetch_MPKI 3.68166
Core_0_LLC_prefetch_miss_rate 0.637654
Core_0_LLC_writeback_access 10233
Core_0_LLC_writeback_hit 8151
Core_0_LLC_writeback_miss 2082
Core_0_LLC_writeback_MPKI 0.04164
Core_0_LLC_writeback_miss_rate 0.203459
Core_0_LLC_prefetch_requested 0
Core_0_LLC_prefetch_issued 0
Core_0_LLC_prefetch_useful 0
Core_0_LLC_prefetch_useless 0
Core_0_LLC_prefetch_late 0
Core_0_LLC_prefetch_accuracy 0
Core_0_LLC_prefetch_coverage 0

[DRAM Statistics]
Channel_0_RQ_row_buffer_hit 323
Channel_0_RQ_row_buffer_miss 3091662
Channel_0_WQ_row_buffer_hit 506
Channel_0_WQ_row_buffer_miss 2075
Channel_0_WQ_full 0
Channel_0_dbus_congested 3111739
DRAM_total_RQ_row_buffer_hit 323
DRAM_total_RQ_row_buffer_miss 3091662
DRAM_total_WQ_row_buffer_hit 506
DRAM_total_WQ_row_buffer_miss 2075
DRAM_total_WQ_full 0
DRAM_total_dbus_congested 3111739
DRAM_avg_congested_cycle 3.10541

======STLB miss causes ========
Core_0_STLB_miss_cause_breakdown
Core_0_STLB_cause_Demand_Data_miss 0
Core_0_STLB_cause_Demand_Data_miss_rate 0
Core_0_STLB_cause_Demand_Instruction_miss 0
Core_0_STLB_cause_Demand_Instruction_miss_rate 0
Core_0_STLB_cause_L1D_Prefetch_miss 4476
Core_0_STLB_cause_L1D_Prefetch_miss_rate 0.000602152
Core_0_STLB_cause_L1I_Prefetch_miss 0
Core_0_STLB_cause_L1I_Prefetch_miss_rate 0
Core_0_STLB_cause_Other_miss 0
Core_0_STLB_cause_Other_miss_rate 0
Core_0_STLB_Demand_miss 0
Core_0_STLB_Demand_miss_rate 0
Core_0_STLB_L1D_Prefetch_miss 4476
Core_0_STLB_L1D_Prefetch_miss_rate 0.000602152
Core_0_STLB_Other_miss 0
Core_0_STLB_Other_miss_rate 0
