[VMEM] WARNING: physical memory size is smaller than virtual memory size.

*** ChampSim Multicore Out-of-Order Simulator ***
Warmup Instructions: 20000000
Simulation Instructions: 50000000
Number of CPUs: 1
Page size: 4096
STLB ideal mode: demand
STLB ideal fill: on
Core 0: /data0/tzh/champsim_traces/Ligra/ligra_Components.com-lj.ungraph.gcc_6.3.0_O3.drop_6250M.length_250M.champsimtrace.xz
 L1D Berti prefetcher
Off-chip DRAM Size: 16 GiB Channels: 1 Width: 64-bit Data Rate: 3205 MT/s
Warmup halting CPU 0 at instruction 20000004 cycle 5715196 for remainder of phase
Warmup finished CPU 0 instructions: 20000004 cycles: 5715196 cumulative IPC: 3.499 (Simulation time: 00 hr 00 min 51 sec)
Warmup complete CPU 0 instructions: 20000004 cycles: 5715196 cumulative IPC: 3.499 (Simulation time: 00 hr 00 min 51 sec)
Simulation finished CPU 0 instructions: 50000001 cycles: 115169094 cumulative IPC: 0.4341 (Simulation time: 00 hr 15 min 33 sec)
Simulation complete CPU 0 instructions: 50000001 cycles: 115169094 cumulative IPC: 0.4341 (Simulation time: 00 hr 15 min 33 sec)

ChampSim completed all CPUs

=== Simulation ===
CPU 0 runs /data0/tzh/champsim_traces/Ligra/ligra_Components.com-lj.ungraph.gcc_6.3.0_O3.drop_6250M.length_250M.champsimtrace.xz

Region of Interest Statistics

CPU 0 cumulative IPC: 0.4341 instructions: 50000001 cycles: 115169094
CPU 0 Branch Prediction Accuracy: 100% MPKI: 0 Average ROB Occupancy at Mispredict: -
Branch type MPKI
BRANCH_DIRECT_JUMP: 0
BRANCH_INDIRECT: 0
BRANCH_CONDITIONAL: 0
BRANCH_DIRECT_CALL: 0
BRANCH_INDIRECT_CALL: 0
BRANCH_RETURN: 0

cpu0->cpu0_STLB TOTAL        ACCESS:      55804 HIT:      55804 MISS:          0 MSHR_MERGE:          0
cpu0->cpu0_STLB LOAD         ACCESS:      55804 HIT:      55804 MISS:          0 MSHR_MERGE:          0
cpu0->cpu0_STLB RFO          ACCESS:          0 HIT:          0 MISS:          0 MSHR_MERGE:          0
cpu0->cpu0_STLB PREFETCH     ACCESS:          0 HIT:          0 MISS:          0 MSHR_MERGE:          0
cpu0->cpu0_STLB WRITE        ACCESS:          0 HIT:          0 MISS:          0 MSHR_MERGE:          0
cpu0->cpu0_STLB TRANSLATION  ACCESS:          0 HIT:          0 MISS:          0 MSHR_MERGE:          0
cpu0->cpu0_STLB PREFETCH REQUESTED:          0 ISSUED:          0 USEFUL:          0 USELESS:          0 LATE:          0
cpu0->cpu0_STLB AVERAGE MISS LATENCY: - cycles
cpu0->cpu0_L2C TOTAL        ACCESS:    8627870 HIT:    2026446 MISS:    6601424 MSHR_MERGE:    1915697
cpu0->cpu0_L2C LOAD         ACCESS:     827398 HIT:      60668 MISS:     766730 MSHR_MERGE:     422769
cpu0->cpu0_L2C RFO          ACCESS:    1785708 HIT:          0 MISS:    1785708 MSHR_MERGE:          0
cpu0->cpu0_L2C PREFETCH     ACCESS:    4229063 HIT:     180077 MISS:    4048986 MSHR_MERGE:    1492928
cpu0->cpu0_L2C WRITE        ACCESS:    1785701 HIT:    1785701 MISS:          0 MSHR_MERGE:          0
cpu0->cpu0_L2C TRANSLATION  ACCESS:          0 HIT:          0 MISS:          0 MSHR_MERGE:          0
cpu0->cpu0_L2C PREFETCH REQUESTED:    3270735 ISSUED:    3270735 USEFUL:     517133 USELESS:     396646 LATE:     422769
cpu0->cpu0_L2C AVERAGE MISS LATENCY: 496.4 cycles
cpu0->cpu0_L1I TOTAL        ACCESS:    6066315 HIT:    6066315 MISS:          0 MSHR_MERGE:          0
cpu0->cpu0_L1I LOAD         ACCESS:    6066315 HIT:    6066315 MISS:          0 MSHR_MERGE:          0
cpu0->cpu0_L1I RFO          ACCESS:          0 HIT:          0 MISS:          0 MSHR_MERGE:          0
cpu0->cpu0_L1I PREFETCH     ACCESS:          0 HIT:          0 MISS:          0 MSHR_MERGE:          0
cpu0->cpu0_L1I WRITE        ACCESS:          0 HIT:          0 MISS:          0 MSHR_MERGE:          0
cpu0->cpu0_L1I TRANSLATION  ACCESS:          0 HIT:          0 MISS:          0 MSHR_MERGE:          0
cpu0->cpu0_L1I PREFETCH REQUESTED:          0 ISSUED:          0 USEFUL:          0 USELESS:          0 LATE:          0
cpu0->cpu0_L1I AVERAGE MISS LATENCY: - cycles
cpu0->cpu0_L1D TOTAL        ACCESS:   11645815 HIT:    1162333 MISS:   10483482 MSHR_MERGE:    6912046
cpu0->cpu0_L1D LOAD         ACCESS:    3168791 HIT:     993456 MISS:    2175335 MSHR_MERGE:    1347937
cpu0->cpu0_L1D RFO          ACCESS:          0 HIT:          0 MISS:          0 MSHR_MERGE:          0
cpu0->cpu0_L1D PREFETCH     ACCESS:    1334184 HIT:     120524 MISS:    1213660 MSHR_MERGE:     255332
cpu0->cpu0_L1D WRITE        ACCESS:    7142840 HIT:      48353 MISS:    7094487 MSHR_MERGE:    5308777
cpu0->cpu0_L1D TRANSLATION  ACCESS:          0 HIT:          0 MISS:          0 MSHR_MERGE:          0
cpu0->cpu0_L1D PREFETCH REQUESTED:    1696052 ISSUED:    1334180 USEFUL:     958319 USELESS:          8 LATE:     529987
cpu0->cpu0_L1D AVERAGE MISS LATENCY: 459.5 cycles
cpu0->cpu0_ITLB TOTAL        ACCESS:    6066315 HIT:    6066315 MISS:          0 MSHR_MERGE:          0
cpu0->cpu0_ITLB LOAD         ACCESS:    6066315 HIT:    6066315 MISS:          0 MSHR_MERGE:          0
cpu0->cpu0_ITLB RFO          ACCESS:          0 HIT:          0 MISS:          0 MSHR_MERGE:          0
cpu0->cpu0_ITLB PREFETCH     ACCESS:          0 HIT:          0 MISS:          0 MSHR_MERGE:          0
cpu0->cpu0_ITLB WRITE        ACCESS:          0 HIT:          0 MISS:          0 MSHR_MERGE:          0
cpu0->cpu0_ITLB TRANSLATION  ACCESS:          0 HIT:          0 MISS:          0 MSHR_MERGE:          0
cpu0->cpu0_ITLB PREFETCH REQUESTED:          0 ISSUED:          0 USEFUL:          0 USELESS:          0 LATE:          0
cpu0->cpu0_ITLB AVERAGE MISS LATENCY: - cycles
cpu0->cpu0_DTLB TOTAL        ACCESS:   10587725 HIT:   10411696 MISS:     176029 MSHR_MERGE:     120225
cpu0->cpu0_DTLB LOAD         ACCESS:   10587725 HIT:   10411696 MISS:     176029 MSHR_MERGE:     120225
cpu0->cpu0_DTLB RFO          ACCESS:          0 HIT:          0 MISS:          0 MSHR_MERGE:          0
cpu0->cpu0_DTLB PREFETCH     ACCESS:          0 HIT:          0 MISS:          0 MSHR_MERGE:          0
cpu0->cpu0_DTLB WRITE        ACCESS:          0 HIT:          0 MISS:          0 MSHR_MERGE:          0
cpu0->cpu0_DTLB TRANSLATION  ACCESS:          0 HIT:          0 MISS:          0 MSHR_MERGE:          0
cpu0->cpu0_DTLB PREFETCH REQUESTED:          0 ISSUED:          0 USEFUL:          0 USELESS:          0 LATE:          0
cpu0->cpu0_DTLB AVERAGE MISS LATENCY: 5 cycles
cpu0->LLC TOTAL        ACCESS:    6471498 HIT:    1242381 MISS:    5229117 MSHR_MERGE:    1029542
cpu0->LLC LOAD         ACCESS:     343961 HIT:      33900 MISS:     310061 MSHR_MERGE:     121600
cpu0->LLC RFO          ACCESS:    1785706 HIT:          0 MISS:    1785706 MSHR_MERGE:          0
cpu0->LLC PREFETCH     ACCESS:    2556052 HIT:      50839 MISS:    2505213 MSHR_MERGE:     907942
cpu0->LLC WRITE        ACCESS:    1785779 HIT:    1157642 MISS:     628137 MSHR_MERGE:          0
cpu0->LLC TRANSLATION  ACCESS:          0 HIT:          0 MISS:          0 MSHR_MERGE:          0
cpu0->LLC PREFETCH REQUESTED:          0 ISSUED:          0 USEFUL:          0 USELESS:          0 LATE:          0
cpu0->LLC AVERAGE MISS LATENCY: 396.1 cycles

DRAM Statistics

Channel 0 RQ ROW_BUFFER_HIT:     252639
  ROW_BUFFER_MISS:    3318792
  AVG DBUS CONGESTED CYCLE: 6.843
Channel 0 WQ ROW_BUFFER_HIT:     100191
  ROW_BUFFER_MISS:    1696844
  FULL:         42
Channel 0 REFRESHES ISSUED:       9597

[ROI Statistics]
[System Configuration]
num_cpus 1
cpu_freq 4000
fetch_width 6
decode_width 6
dispatch_width 6
execute_width 6
lq_width 2
sq_width 2
retire_width 6
scheduler_size 128
branch_mispredict_penalty 15
rob_size 352
lq_size 128
sq_size 72
ifetch_buffer_size 64
decode_buffer_size 32
dispatch_buffer_size 32
register_file_size 288
decode_latency 1
dispatch_latency 1
schedule_latency 1
execute_latency 1
page_size 4096
block_size 64
core_0_itlb_set 16
core_0_itlb_way 4
core_0_itlb_rq_size 16
core_0_itlb_wq_size 16
core_0_itlb_pq_size 0
core_0_itlb_mshr_size 8
core_0_itlb_hit_latency 1
core_0_itlb_fill_latency 1
core_0_itlb_max_tag_check 2
core_0_itlb_max_fill 2
core_0_dtlb_set 16
core_0_dtlb_way 4
core_0_dtlb_rq_size 16
core_0_dtlb_wq_size 16
core_0_dtlb_pq_size 0
core_0_dtlb_mshr_size 8
core_0_dtlb_hit_latency 1
core_0_dtlb_fill_latency 1
core_0_dtlb_max_tag_check 2
core_0_dtlb_max_fill 2
core_0_stlb_set 128
core_0_stlb_way 12
core_0_stlb_rq_size 32
core_0_stlb_wq_size 32
core_0_stlb_pq_size 0
core_0_stlb_mshr_size 16
core_0_stlb_hit_latency 4
core_0_stlb_fill_latency 4
core_0_stlb_max_tag_check 1
core_0_stlb_max_fill 1
core_0_l1i_set 64
core_0_l1i_way 8
core_0_l1i_rq_size 64
core_0_l1i_wq_size 64
core_0_l1i_pq_size 32
core_0_l1i_mshr_size 8
core_0_l1i_hit_latency 2
core_0_l1i_fill_latency 2
core_0_l1i_max_tag_check 2
core_0_l1i_max_fill 2
core_0_l1d_set 64
core_0_l1d_way 12
core_0_l1d_rq_size 64
core_0_l1d_wq_size 64
core_0_l1d_pq_size 8
core_0_l1d_mshr_size 16
core_0_l1d_hit_latency 2
core_0_l1d_fill_latency 3
core_0_l1d_max_tag_check 2
core_0_l1d_max_fill 2
core_0_l2c_set 1024
core_0_l2c_way 8
core_0_l2c_rq_size 32
core_0_l2c_wq_size 32
core_0_l2c_pq_size 16
core_0_l2c_mshr_size 32
core_0_l2c_hit_latency 5
core_0_l2c_fill_latency 5
core_0_l2c_max_tag_check 1
core_0_l2c_max_fill 1
llc_set 2048
llc_way 16
llc_rq_size 32
llc_wq_size 32
llc_pq_size 32
llc_mshr_size 64
llc_hit_latency 10
llc_fill_latency 10
llc_max_tag_check 1
llc_max_fill 1
dram_channels 1
dram_ranks 1
dram_bankgroups 8
dram_banks 4
dram_rows 65536
dram_columns 1024
dram_channel_width 8
dram_rq_size 64
dram_wq_size 64
dram_size 17179869184
core_0_itlb_prefetcher no
core_0_dtlb_prefetcher no
core_0_stlb_prefetcher no
core_0_l1i_prefetcher next_line
core_0_l1d_prefetcher berti
core_0_l2c_prefetcher ip_stride
llc_prefetcher no
llc_replacement drrip

Core_0_instructions 50000001
Core_0_cycles 115169094
Core_0_IPC 0.434144
Core_0_branch_prediction_accuracy 100
Core_0_branch_MPKI 0
Core_0_average_ROB_occupancy_at_mispredict 0

Core_0_ITLB_total_access 6066315
Core_0_ITLB_total_hit 6066315
Core_0_ITLB_total_miss 0
Core_0_ITLB_total_MPKI 0
Core_0_ITLB_total_miss_rate 0
Core_0_ITLB_demand_access 6066315
Core_0_ITLB_demand_hit 6066315
Core_0_ITLB_demand_miss 0
Core_0_ITLB_demand_MPKI 0
Core_0_ITLB_demand_miss_rate 0
Core_0_ITLB_load_access 6066315
Core_0_ITLB_load_hit 6066315
Core_0_ITLB_load_miss 0
Core_0_ITLB_load_MPKI 0
Core_0_ITLB_load_miss_rate 0
Core_0_ITLB_rfo_access 0
Core_0_ITLB_rfo_hit 0
Core_0_ITLB_rfo_miss 0
Core_0_ITLB_rfo_MPKI 0
Core_0_ITLB_rfo_miss_rate 0
Core_0_ITLB_prefetch_access 0
Core_0_ITLB_prefetch_hit 0
Core_0_ITLB_prefetch_miss 0
Core_0_ITLB_prefetch_MPKI 0
Core_0_ITLB_prefetch_miss_rate 0
Core_0_ITLB_writeback_access 0
Core_0_ITLB_writeback_hit 0
Core_0_ITLB_writeback_miss 0
Core_0_ITLB_writeback_MPKI 0
Core_0_ITLB_writeback_miss_rate 0
Core_0_ITLB_prefetch_requested 0
Core_0_ITLB_prefetch_issued 0
Core_0_ITLB_prefetch_useful 0
Core_0_ITLB_prefetch_useless 0
Core_0_ITLB_prefetch_late 0
Core_0_ITLB_prefetch_accuracy 0
Core_0_ITLB_prefetch_coverage 0

Core_0_DTLB_total_access 10587725
Core_0_DTLB_total_hit 10411696
Core_0_DTLB_total_miss 176029
Core_0_DTLB_total_MPKI 3.52058
Core_0_DTLB_total_miss_rate 0.0166258
Core_0_DTLB_demand_access 10587725
Core_0_DTLB_demand_hit 10411696
Core_0_DTLB_demand_miss 176029
Core_0_DTLB_demand_MPKI 3.52058
Core_0_DTLB_demand_miss_rate 0.0166258
Core_0_DTLB_load_access 10587725
Core_0_DTLB_load_hit 10411696
Core_0_DTLB_load_miss 176029
Core_0_DTLB_load_MPKI 3.52058
Core_0_DTLB_load_miss_rate 0.0166258
Core_0_DTLB_rfo_access 0
Core_0_DTLB_rfo_hit 0
Core_0_DTLB_rfo_miss 0
Core_0_DTLB_rfo_MPKI 0
Core_0_DTLB_rfo_miss_rate 0
Core_0_DTLB_prefetch_access 0
Core_0_DTLB_prefetch_hit 0
Core_0_DTLB_prefetch_miss 0
Core_0_DTLB_prefetch_MPKI 0
Core_0_DTLB_prefetch_miss_rate 0
Core_0_DTLB_writeback_access 0
Core_0_DTLB_writeback_hit 0
Core_0_DTLB_writeback_miss 0
Core_0_DTLB_writeback_MPKI 0
Core_0_DTLB_writeback_miss_rate 0
Core_0_DTLB_prefetch_requested 0
Core_0_DTLB_prefetch_issued 0
Core_0_DTLB_prefetch_useful 0
Core_0_DTLB_prefetch_useless 0
Core_0_DTLB_prefetch_late 0
Core_0_DTLB_prefetch_accuracy 0
Core_0_DTLB_prefetch_coverage 0

Core_0_STLB_total_access 55804
Core_0_STLB_total_hit 55804
Core_0_STLB_total_miss 0
Core_0_STLB_total_MPKI 0
Core_0_STLB_total_miss_rate 0
Core_0_STLB_demand_access 55804
Core_0_STLB_demand_hit 55804
Core_0_STLB_demand_miss 0
Core_0_STLB_demand_MPKI 0
Core_0_STLB_demand_miss_rate 0
Core_0_STLB_load_access 55804
Core_0_STLB_load_hit 55804
Core_0_STLB_load_miss 0
Core_0_STLB_load_MPKI 0
Core_0_STLB_load_miss_rate 0
Core_0_STLB_rfo_access 0
Core_0_STLB_rfo_hit 0
Core_0_STLB_rfo_miss 0
Core_0_STLB_rfo_MPKI 0
Core_0_STLB_rfo_miss_rate 0
Core_0_STLB_prefetch_access 0
Core_0_STLB_prefetch_hit 0
Core_0_STLB_prefetch_miss 0
Core_0_STLB_prefetch_MPKI 0
Core_0_STLB_prefetch_miss_rate 0
Core_0_STLB_writeback_access 0
Core_0_STLB_writeback_hit 0
Core_0_STLB_writeback_miss 0
Core_0_STLB_writeback_MPKI 0
Core_0_STLB_writeback_miss_rate 0
Core_0_STLB_prefetch_requested 0
Core_0_STLB_prefetch_issued 0
Core_0_STLB_prefetch_useful 0
Core_0_STLB_prefetch_useless 0
Core_0_STLB_prefetch_late 0
Core_0_STLB_prefetch_accuracy 0
Core_0_STLB_prefetch_coverage 0

Core_0_L1I_total_access 6066315
Core_0_L1I_total_hit 6066315
Core_0_L1I_total_miss 0
Core_0_L1I_total_MPKI 0
Core_0_L1I_total_miss_rate 0
Core_0_L1I_demand_access 6066315
Core_0_L1I_demand_hit 6066315
Core_0_L1I_demand_miss 0
Core_0_L1I_demand_MPKI 0
Core_0_L1I_demand_miss_rate 0
Core_0_L1I_load_access 6066315
Core_0_L1I_load_hit 6066315
Core_0_L1I_load_miss 0
Core_0_L1I_load_MPKI 0
Core_0_L1I_load_miss_rate 0
Core_0_L1I_rfo_access 0
Core_0_L1I_rfo_hit 0
Core_0_L1I_rfo_miss 0
Core_0_L1I_rfo_MPKI 0
Core_0_L1I_rfo_miss_rate 0
Core_0_L1I_prefetch_access 0
Core_0_L1I_prefetch_hit 0
Core_0_L1I_prefetch_miss 0
Core_0_L1I_prefetch_MPKI 0
Core_0_L1I_prefetch_miss_rate 0
Core_0_L1I_writeback_access 0
Core_0_L1I_writeback_hit 0
Core_0_L1I_writeback_miss 0
Core_0_L1I_writeback_MPKI 0
Core_0_L1I_writeback_miss_rate 0
Core_0_L1I_prefetch_requested 0
Core_0_L1I_prefetch_issued 0
Core_0_L1I_prefetch_useful 0
Core_0_L1I_prefetch_useless 0
Core_0_L1I_prefetch_late 0
Core_0_L1I_prefetch_accuracy 0
Core_0_L1I_prefetch_coverage 0

Core_0_L1D_total_access 11645815
Core_0_L1D_total_hit 1162333
Core_0_L1D_total_miss 10483482
Core_0_L1D_total_MPKI 209.67
Core_0_L1D_total_miss_rate 0.900193
Core_0_L1D_demand_access 3168791
Core_0_L1D_demand_hit 993456
Core_0_L1D_demand_miss 2175335
Core_0_L1D_demand_MPKI 43.5067
Core_0_L1D_demand_miss_rate 0.686487
Core_0_L1D_load_access 3168791
Core_0_L1D_load_hit 993456
Core_0_L1D_load_miss 2175335
Core_0_L1D_load_MPKI 43.5067
Core_0_L1D_load_miss_rate 0.686487
Core_0_L1D_rfo_access 0
Core_0_L1D_rfo_hit 0
Core_0_L1D_rfo_miss 0
Core_0_L1D_rfo_MPKI 0
Core_0_L1D_rfo_miss_rate 0
Core_0_L1D_prefetch_access 1334184
Core_0_L1D_prefetch_hit 120524
Core_0_L1D_prefetch_miss 1213660
Core_0_L1D_prefetch_MPKI 24.2732
Core_0_L1D_prefetch_miss_rate 0.909665
Core_0_L1D_writeback_access 7142840
Core_0_L1D_writeback_hit 48353
Core_0_L1D_writeback_miss 7094487
Core_0_L1D_writeback_MPKI 141.89
Core_0_L1D_writeback_miss_rate 0.993231
Core_0_L1D_prefetch_requested 1696052
Core_0_L1D_prefetch_issued 1334180
Core_0_L1D_prefetch_useful 958319
Core_0_L1D_prefetch_useless 8
Core_0_L1D_prefetch_late 529987
Core_0_L1D_prefetch_accuracy 0.718283
Core_0_L1D_prefetch_coverage 0.305815

Core_0_L2C_total_access 8627870
Core_0_L2C_total_hit 2026446
Core_0_L2C_total_miss 6601424
Core_0_L2C_total_MPKI 132.028
Core_0_L2C_total_miss_rate 0.765128
Core_0_L2C_demand_access 2613106
Core_0_L2C_demand_hit 60668
Core_0_L2C_demand_miss 2552438
Core_0_L2C_demand_MPKI 51.0488
Core_0_L2C_demand_miss_rate 0.976783
Core_0_L2C_load_access 827398
Core_0_L2C_load_hit 60668
Core_0_L2C_load_miss 766730
Core_0_L2C_load_MPKI 15.3346
Core_0_L2C_load_miss_rate 0.926676
Core_0_L2C_rfo_access 1785708
Core_0_L2C_rfo_hit 0
Core_0_L2C_rfo_miss 1785708
Core_0_L2C_rfo_MPKI 35.7142
Core_0_L2C_rfo_miss_rate 1
Core_0_L2C_prefetch_access 4229063
Core_0_L2C_prefetch_hit 180077
Core_0_L2C_prefetch_miss 4048986
Core_0_L2C_prefetch_MPKI 80.9797
Core_0_L2C_prefetch_miss_rate 0.957419
Core_0_L2C_writeback_access 1785701
Core_0_L2C_writeback_hit 1785701
Core_0_L2C_writeback_miss 0
Core_0_L2C_writeback_MPKI 0
Core_0_L2C_writeback_miss_rate 0
Core_0_L2C_prefetch_requested 3270735
Core_0_L2C_prefetch_issued 3270735
Core_0_L2C_prefetch_useful 517133
Core_0_L2C_prefetch_useless 396646
Core_0_L2C_prefetch_late 422769
Core_0_L2C_prefetch_accuracy 0.158109
Core_0_L2C_prefetch_coverage 0.168471

Core_0_LLC_total_access 6471498
Core_0_LLC_total_hit 1242381
Core_0_LLC_total_miss 5229117
Core_0_LLC_total_MPKI 104.582
Core_0_LLC_total_miss_rate 0.808023
Core_0_LLC_demand_access 2129667
Core_0_LLC_demand_hit 33900
Core_0_LLC_demand_miss 2095767
Core_0_LLC_demand_MPKI 41.9153
Core_0_LLC_demand_miss_rate 0.984082
Core_0_LLC_load_access 343961
Core_0_LLC_load_hit 33900
Core_0_LLC_load_miss 310061
Core_0_LLC_load_MPKI 6.20122
Core_0_LLC_load_miss_rate 0.901442
Core_0_LLC_rfo_access 1785706
Core_0_LLC_rfo_hit 0
Core_0_LLC_rfo_miss 1785706
Core_0_LLC_rfo_MPKI 35.7141
Core_0_LLC_rfo_miss_rate 1
Core_0_LLC_prefetch_access 2556052
Core_0_LLC_prefetch_hit 50839
Core_0_LLC_prefetch_miss 2505213
Core_0_LLC_prefetch_MPKI 50.1043
Core_0_LLC_prefetch_miss_rate 0.98011
Core_0_LLC_writeback_access 1785779
Core_0_LLC_writeback_hit 1157642
Core_0_LLC_writeback_miss 628137
Core_0_LLC_writeback_MPKI 12.5627
Core_0_LLC_writeback_miss_rate 0.351744
Core_0_LLC_prefetch_requested 0
Core_0_LLC_prefetch_issued 0
Core_0_LLC_prefetch_useful 0
Core_0_LLC_prefetch_useless 0
Core_0_LLC_prefetch_late 0
Core_0_LLC_prefetch_accuracy 0
Core_0_LLC_prefetch_coverage 0

[DRAM Statistics]
Channel_0_RQ_row_buffer_hit 252639
Channel_0_RQ_row_buffer_miss 3318792
Channel_0_WQ_row_buffer_hit 100191
Channel_0_WQ_row_buffer_miss 1696844
Channel_0_WQ_full 42
Channel_0_dbus_congested 18685813
DRAM_total_RQ_row_buffer_hit 252639
DRAM_total_RQ_row_buffer_miss 3318792
DRAM_total_WQ_row_buffer_hit 100191
DRAM_total_WQ_row_buffer_miss 1696844
DRAM_total_WQ_full 42
DRAM_total_dbus_congested 18685813
DRAM_avg_congested_cycle 6.84339

======STLB miss causes ========
Core_0_STLB_miss_cause_breakdown
Core_0_STLB_cause_Demand_Data_miss 0
Core_0_STLB_cause_Demand_Data_miss_rate 0
Core_0_STLB_cause_Demand_Instruction_miss 0
Core_0_STLB_cause_Demand_Instruction_miss_rate 0
Core_0_STLB_cause_L1D_Prefetch_miss 0
Core_0_STLB_cause_L1D_Prefetch_miss_rate 0
Core_0_STLB_cause_L1I_Prefetch_miss 0
Core_0_STLB_cause_L1I_Prefetch_miss_rate 0
Core_0_STLB_cause_Other_miss 0
Core_0_STLB_cause_Other_miss_rate 0
Core_0_STLB_Demand_miss 0
Core_0_STLB_Demand_miss_rate 0
Core_0_STLB_L1D_Prefetch_miss 0
Core_0_STLB_L1D_Prefetch_miss_rate 0
Core_0_STLB_Other_miss 0
Core_0_STLB_Other_miss_rate 0
