[VMEM] WARNING: physical memory size is smaller than virtual memory size.

*** ChampSim Multicore Out-of-Order Simulator ***
Warmup Instructions: 20000000
Simulation Instructions: 50000000
Number of CPUs: 1
Page size: 4096
STLB ideal mode: demand
STLB ideal fill: on
Core 0: /data0/tzh/champsim_traces/Ligra/ligra_PageRank.com-lj.ungraph.gcc_6.3.0_O3.drop_79500M.length_250M.champsimtrace.xz
 L1D Berti prefetcher
Off-chip DRAM Size: 16 GiB Channels: 1 Width: 64-bit Data Rate: 3205 MT/s
Warmup halting CPU 0 at instruction 20000002 cycle 4259181 for remainder of phase
Warmup finished CPU 0 instructions: 20000002 cycles: 4259181 cumulative IPC: 4.696 (Simulation time: 00 hr 01 min 14 sec)
Warmup complete CPU 0 instructions: 20000002 cycles: 4259181 cumulative IPC: 4.696 (Simulation time: 00 hr 01 min 14 sec)
Simulation finished CPU 0 instructions: 50000001 cycles: 92937886 cumulative IPC: 0.538 (Simulation time: 00 hr 10 min 51 sec)
Simulation complete CPU 0 instructions: 50000001 cycles: 92937886 cumulative IPC: 0.538 (Simulation time: 00 hr 10 min 51 sec)

ChampSim completed all CPUs

=== Simulation ===
CPU 0 runs /data0/tzh/champsim_traces/Ligra/ligra_PageRank.com-lj.ungraph.gcc_6.3.0_O3.drop_79500M.length_250M.champsimtrace.xz

Region of Interest Statistics

CPU 0 cumulative IPC: 0.538 instructions: 50000001 cycles: 92937886
CPU 0 Branch Prediction Accuracy: 94.15% MPKI: 6.766 Average ROB Occupancy at Mispredict: 166
Branch type MPKI
BRANCH_DIRECT_JUMP: 0
BRANCH_INDIRECT: 0
BRANCH_CONDITIONAL: 6.766
BRANCH_DIRECT_CALL: 0
BRANCH_INDIRECT_CALL: 0
BRANCH_RETURN: 0

cpu0->cpu0_STLB TOTAL        ACCESS:    3313305 HIT:    3297920 MISS:      15385 MSHR_MERGE:          0
cpu0->cpu0_STLB LOAD         ACCESS:    3313305 HIT:    3297920 MISS:      15385 MSHR_MERGE:          0
cpu0->cpu0_STLB RFO          ACCESS:          0 HIT:          0 MISS:          0 MSHR_MERGE:          0
cpu0->cpu0_STLB PREFETCH     ACCESS:          0 HIT:          0 MISS:          0 MSHR_MERGE:          0
cpu0->cpu0_STLB WRITE        ACCESS:          0 HIT:          0 MISS:          0 MSHR_MERGE:          0
cpu0->cpu0_STLB TRANSLATION  ACCESS:          0 HIT:          0 MISS:          0 MSHR_MERGE:          0
cpu0->cpu0_STLB PREFETCH REQUESTED:          0 ISSUED:          0 USEFUL:          0 USELESS:          0 LATE:          0
cpu0->cpu0_STLB AVERAGE MISS LATENCY: 304.3 cycles
cpu0->cpu0_L2C TOTAL        ACCESS:    3960949 HIT:     574070 MISS:    3386879 MSHR_MERGE:      34436
cpu0->cpu0_L2C LOAD         ACCESS:    3209041 HIT:     365061 MISS:    2843980 MSHR_MERGE:       2222
cpu0->cpu0_L2C RFO          ACCESS:         24 HIT:         24 MISS:          0 MSHR_MERGE:          0
cpu0->cpu0_L2C PREFETCH     ACCESS:     693090 HIT:     163628 MISS:     529462 MSHR_MERGE:      32214
cpu0->cpu0_L2C WRITE        ACCESS:      42407 HIT:      42407 MISS:          0 MSHR_MERGE:          0
cpu0->cpu0_L2C TRANSLATION  ACCESS:      16387 HIT:       2950 MISS:      13437 MSHR_MERGE:          0
cpu0->cpu0_L2C PREFETCH REQUESTED:     241688 ISSUED:     241688 USEFUL:      96653 USELESS:      21591 LATE:       2222
cpu0->cpu0_L2C AVERAGE MISS LATENCY: 232.4 cycles
cpu0->cpu0_L1I TOTAL        ACCESS:     750607 HIT:     750607 MISS:          0 MSHR_MERGE:          0
cpu0->cpu0_L1I LOAD         ACCESS:     750607 HIT:     750607 MISS:          0 MSHR_MERGE:          0
cpu0->cpu0_L1I RFO          ACCESS:          0 HIT:          0 MISS:          0 MSHR_MERGE:          0
cpu0->cpu0_L1I PREFETCH     ACCESS:          0 HIT:          0 MISS:          0 MSHR_MERGE:          0
cpu0->cpu0_L1I WRITE        ACCESS:          0 HIT:          0 MISS:          0 MSHR_MERGE:          0
cpu0->cpu0_L1I TRANSLATION  ACCESS:          0 HIT:          0 MISS:          0 MSHR_MERGE:          0
cpu0->cpu0_L1I PREFETCH REQUESTED:          0 ISSUED:          0 USEFUL:          0 USELESS:          0 LATE:          0
cpu0->cpu0_L1I AVERAGE MISS LATENCY: - cycles
cpu0->cpu0_L1D TOTAL        ACCESS:   14842243 HIT:   10911532 MISS:    3930711 MSHR_MERGE:     253856
cpu0->cpu0_L1D LOAD         ACCESS:   11682397 HIT:    8230530 MISS:    3451867 MSHR_MERGE:     242826
cpu0->cpu0_L1D RFO          ACCESS:          0 HIT:          0 MISS:          0 MSHR_MERGE:          0
cpu0->cpu0_L1D PREFETCH     ACCESS:     785708 HIT:     323318 MISS:     462390 MSHR_MERGE:      10987
cpu0->cpu0_L1D WRITE        ACCESS:    2342199 HIT:    2342154 MISS:         45 MSHR_MERGE:         21
cpu0->cpu0_L1D TRANSLATION  ACCESS:      31939 HIT:      15530 MISS:      16409 MSHR_MERGE:         22
cpu0->cpu0_L1D PREFETCH REQUESTED:     821481 ISSUED:     785707 USEFUL:     248098 USELESS:     203281 LATE:      13269
cpu0->cpu0_L1D AVERAGE MISS LATENCY: 214.4 cycles
cpu0->cpu0_ITLB TOTAL        ACCESS:     733020 HIT:     733020 MISS:          0 MSHR_MERGE:          0
cpu0->cpu0_ITLB LOAD         ACCESS:     733020 HIT:     733020 MISS:          0 MSHR_MERGE:          0
cpu0->cpu0_ITLB RFO          ACCESS:          0 HIT:          0 MISS:          0 MSHR_MERGE:          0
cpu0->cpu0_ITLB PREFETCH     ACCESS:          0 HIT:          0 MISS:          0 MSHR_MERGE:          0
cpu0->cpu0_ITLB WRITE        ACCESS:          0 HIT:          0 MISS:          0 MSHR_MERGE:          0
cpu0->cpu0_ITLB TRANSLATION  ACCESS:          0 HIT:          0 MISS:          0 MSHR_MERGE:          0
cpu0->cpu0_ITLB PREFETCH REQUESTED:          0 ISSUED:          0 USEFUL:          0 USELESS:          0 LATE:          0
cpu0->cpu0_ITLB AVERAGE MISS LATENCY: - cycles
cpu0->cpu0_DTLB TOTAL        ACCESS:   14683806 HIT:   11218446 MISS:    3465360 MSHR_MERGE:     152056
cpu0->cpu0_DTLB LOAD         ACCESS:   14683806 HIT:   11218446 MISS:    3465360 MSHR_MERGE:     152056
cpu0->cpu0_DTLB RFO          ACCESS:          0 HIT:          0 MISS:          0 MSHR_MERGE:          0
cpu0->cpu0_DTLB PREFETCH     ACCESS:          0 HIT:          0 MISS:          0 MSHR_MERGE:          0
cpu0->cpu0_DTLB WRITE        ACCESS:          0 HIT:          0 MISS:          0 MSHR_MERGE:          0
cpu0->cpu0_DTLB TRANSLATION  ACCESS:          0 HIT:          0 MISS:          0 MSHR_MERGE:          0
cpu0->cpu0_DTLB PREFETCH REQUESTED:          0 ISSUED:          0 USEFUL:          0 USELESS:          0 LATE:          0
cpu0->cpu0_DTLB AVERAGE MISS LATENCY: 6.439 cycles
cpu0->LLC TOTAL        ACCESS:    3394839 HIT:     528359 MISS:    2866480 MSHR_MERGE:       2240
cpu0->LLC LOAD         ACCESS:    2841754 HIT:     485692 MISS:    2356062 MSHR_MERGE:        965
cpu0->LLC RFO          ACCESS:          0 HIT:          0 MISS:          0 MSHR_MERGE:          0
cpu0->LLC PREFETCH     ACCESS:     497247 HIT:      32875 MISS:     464372 MSHR_MERGE:       1275
cpu0->LLC WRITE        ACCESS:      42401 HIT:       7426 MISS:      34975 MSHR_MERGE:          0
cpu0->LLC TRANSLATION  ACCESS:      13437 HIT:       2366 MISS:      11071 MSHR_MERGE:          0
cpu0->LLC PREFETCH REQUESTED:          0 ISSUED:          0 USEFUL:          0 USELESS:          0 LATE:          0
cpu0->LLC AVERAGE MISS LATENCY: 257.6 cycles

DRAM Statistics

Channel 0 RQ ROW_BUFFER_HIT:       6262
  ROW_BUFFER_MISS:    2822997
  AVG DBUS CONGESTED CYCLE: 3.375
Channel 0 WQ ROW_BUFFER_HIT:      10625
  ROW_BUFFER_MISS:      32376
  FULL:          0
Channel 0 REFRESHES ISSUED:       7745

[ROI Statistics]
[System Configuration]
num_cpus 1
cpu_freq 4000
fetch_width 6
decode_width 6
dispatch_width 6
execute_width 6
lq_width 2
sq_width 2
retire_width 6
scheduler_size 128
branch_mispredict_penalty 15
rob_size 352
lq_size 128
sq_size 72
ifetch_buffer_size 64
decode_buffer_size 32
dispatch_buffer_size 32
register_file_size 288
decode_latency 1
dispatch_latency 1
schedule_latency 1
execute_latency 1
page_size 4096
block_size 64
core_0_itlb_set 16
core_0_itlb_way 4
core_0_itlb_rq_size 16
core_0_itlb_wq_size 16
core_0_itlb_pq_size 0
core_0_itlb_mshr_size 8
core_0_itlb_hit_latency 1
core_0_itlb_fill_latency 1
core_0_itlb_max_tag_check 2
core_0_itlb_max_fill 2
core_0_dtlb_set 16
core_0_dtlb_way 4
core_0_dtlb_rq_size 16
core_0_dtlb_wq_size 16
core_0_dtlb_pq_size 0
core_0_dtlb_mshr_size 8
core_0_dtlb_hit_latency 1
core_0_dtlb_fill_latency 1
core_0_dtlb_max_tag_check 2
core_0_dtlb_max_fill 2
core_0_stlb_set 128
core_0_stlb_way 12
core_0_stlb_rq_size 32
core_0_stlb_wq_size 32
core_0_stlb_pq_size 0
core_0_stlb_mshr_size 16
core_0_stlb_hit_latency 4
core_0_stlb_fill_latency 4
core_0_stlb_max_tag_check 1
core_0_stlb_max_fill 1
core_0_l1i_set 64
core_0_l1i_way 8
core_0_l1i_rq_size 64
core_0_l1i_wq_size 64
core_0_l1i_pq_size 32
core_0_l1i_mshr_size 8
core_0_l1i_hit_latency 2
core_0_l1i_fill_latency 2
core_0_l1i_max_tag_check 2
core_0_l1i_max_fill 2
core_0_l1d_set 64
core_0_l1d_way 12
core_0_l1d_rq_size 64
core_0_l1d_wq_size 64
core_0_l1d_pq_size 8
core_0_l1d_mshr_size 16
core_0_l1d_hit_latency 2
core_0_l1d_fill_latency 3
core_0_l1d_max_tag_check 2
core_0_l1d_max_fill 2
core_0_l2c_set 1024
core_0_l2c_way 8
core_0_l2c_rq_size 32
core_0_l2c_wq_size 32
core_0_l2c_pq_size 16
core_0_l2c_mshr_size 32
core_0_l2c_hit_latency 5
core_0_l2c_fill_latency 5
core_0_l2c_max_tag_check 1
core_0_l2c_max_fill 1
llc_set 2048
llc_way 16
llc_rq_size 32
llc_wq_size 32
llc_pq_size 32
llc_mshr_size 64
llc_hit_latency 10
llc_fill_latency 10
llc_max_tag_check 1
llc_max_fill 1
dram_channels 1
dram_ranks 1
dram_bankgroups 8
dram_banks 4
dram_rows 65536
dram_columns 1024
dram_channel_width 8
dram_rq_size 64
dram_wq_size 64
dram_size 17179869184
core_0_itlb_prefetcher no
core_0_dtlb_prefetcher no
core_0_stlb_prefetcher no
core_0_l1i_prefetcher next_line
core_0_l1d_prefetcher berti
core_0_l2c_prefetcher ip_stride
llc_prefetcher no
llc_replacement drrip

Core_0_instructions 50000001
Core_0_cycles 92937886
Core_0_IPC 0.537994
Core_0_branch_prediction_accuracy 94.148
Core_0_branch_MPKI 6.76568
Core_0_average_ROB_occupancy_at_mispredict 166.034

Core_0_ITLB_total_access 733020
Core_0_ITLB_total_hit 733020
Core_0_ITLB_total_miss 0
Core_0_ITLB_total_MPKI 0
Core_0_ITLB_total_miss_rate 0
Core_0_ITLB_demand_access 733020
Core_0_ITLB_demand_hit 733020
Core_0_ITLB_demand_miss 0
Core_0_ITLB_demand_MPKI 0
Core_0_ITLB_demand_miss_rate 0
Core_0_ITLB_load_access 733020
Core_0_ITLB_load_hit 733020
Core_0_ITLB_load_miss 0
Core_0_ITLB_load_MPKI 0
Core_0_ITLB_load_miss_rate 0
Core_0_ITLB_rfo_access 0
Core_0_ITLB_rfo_hit 0
Core_0_ITLB_rfo_miss 0
Core_0_ITLB_rfo_MPKI 0
Core_0_ITLB_rfo_miss_rate 0
Core_0_ITLB_prefetch_access 0
Core_0_ITLB_prefetch_hit 0
Core_0_ITLB_prefetch_miss 0
Core_0_ITLB_prefetch_MPKI 0
Core_0_ITLB_prefetch_miss_rate 0
Core_0_ITLB_writeback_access 0
Core_0_ITLB_writeback_hit 0
Core_0_ITLB_writeback_miss 0
Core_0_ITLB_writeback_MPKI 0
Core_0_ITLB_writeback_miss_rate 0
Core_0_ITLB_prefetch_requested 0
Core_0_ITLB_prefetch_issued 0
Core_0_ITLB_prefetch_useful 0
Core_0_ITLB_prefetch_useless 0
Core_0_ITLB_prefetch_late 0
Core_0_ITLB_prefetch_accuracy 0
Core_0_ITLB_prefetch_coverage 0

Core_0_DTLB_total_access 14683806
Core_0_DTLB_total_hit 11218446
Core_0_DTLB_total_miss 3465360
Core_0_DTLB_total_MPKI 69.3072
Core_0_DTLB_total_miss_rate 0.235999
Core_0_DTLB_demand_access 14683806
Core_0_DTLB_demand_hit 11218446
Core_0_DTLB_demand_miss 3465360
Core_0_DTLB_demand_MPKI 69.3072
Core_0_DTLB_demand_miss_rate 0.235999
Core_0_DTLB_load_access 14683806
Core_0_DTLB_load_hit 11218446
Core_0_DTLB_load_miss 3465360
Core_0_DTLB_load_MPKI 69.3072
Core_0_DTLB_load_miss_rate 0.235999
Core_0_DTLB_rfo_access 0
Core_0_DTLB_rfo_hit 0
Core_0_DTLB_rfo_miss 0
Core_0_DTLB_rfo_MPKI 0
Core_0_DTLB_rfo_miss_rate 0
Core_0_DTLB_prefetch_access 0
Core_0_DTLB_prefetch_hit 0
Core_0_DTLB_prefetch_miss 0
Core_0_DTLB_prefetch_MPKI 0
Core_0_DTLB_prefetch_miss_rate 0
Core_0_DTLB_writeback_access 0
Core_0_DTLB_writeback_hit 0
Core_0_DTLB_writeback_miss 0
Core_0_DTLB_writeback_MPKI 0
Core_0_DTLB_writeback_miss_rate 0
Core_0_DTLB_prefetch_requested 0
Core_0_DTLB_prefetch_issued 0
Core_0_DTLB_prefetch_useful 0
Core_0_DTLB_prefetch_useless 0
Core_0_DTLB_prefetch_late 0
Core_0_DTLB_prefetch_accuracy 0
Core_0_DTLB_prefetch_coverage 0

Core_0_STLB_total_access 3313305
Core_0_STLB_total_hit 3297920
Core_0_STLB_total_miss 15385
Core_0_STLB_total_MPKI 0.3077
Core_0_STLB_total_miss_rate 0.0046434
Core_0_STLB_demand_access 3313305
Core_0_STLB_demand_hit 3297920
Core_0_STLB_demand_miss 15385
Core_0_STLB_demand_MPKI 0.3077
Core_0_STLB_demand_miss_rate 0.0046434
Core_0_STLB_load_access 3313305
Core_0_STLB_load_hit 3297920
Core_0_STLB_load_miss 15385
Core_0_STLB_load_MPKI 0.3077
Core_0_STLB_load_miss_rate 0.0046434
Core_0_STLB_rfo_access 0
Core_0_STLB_rfo_hit 0
Core_0_STLB_rfo_miss 0
Core_0_STLB_rfo_MPKI 0
Core_0_STLB_rfo_miss_rate 0
Core_0_STLB_prefetch_access 0
Core_0_STLB_prefetch_hit 0
Core_0_STLB_prefetch_miss 0
Core_0_STLB_prefetch_MPKI 0
Core_0_STLB_prefetch_miss_rate 0
Core_0_STLB_writeback_access 0
Core_0_STLB_writeback_hit 0
Core_0_STLB_writeback_miss 0
Core_0_STLB_writeback_MPKI 0
Core_0_STLB_writeback_miss_rate 0
Core_0_STLB_prefetch_requested 0
Core_0_STLB_prefetch_issued 0
Core_0_STLB_prefetch_useful 0
Core_0_STLB_prefetch_useless 0
Core_0_STLB_prefetch_late 0
Core_0_STLB_prefetch_accuracy 0
Core_0_STLB_prefetch_coverage 0

Core_0_L1I_total_access 750607
Core_0_L1I_total_hit 750607
Core_0_L1I_total_miss 0
Core_0_L1I_total_MPKI 0
Core_0_L1I_total_miss_rate 0
Core_0_L1I_demand_access 750607
Core_0_L1I_demand_hit 750607
Core_0_L1I_demand_miss 0
Core_0_L1I_demand_MPKI 0
Core_0_L1I_demand_miss_rate 0
Core_0_L1I_load_access 750607
Core_0_L1I_load_hit 750607
Core_0_L1I_load_miss 0
Core_0_L1I_load_MPKI 0
Core_0_L1I_load_miss_rate 0
Core_0_L1I_rfo_access 0
Core_0_L1I_rfo_hit 0
Core_0_L1I_rfo_miss 0
Core_0_L1I_rfo_MPKI 0
Core_0_L1I_rfo_miss_rate 0
Core_0_L1I_prefetch_access 0
Core_0_L1I_prefetch_hit 0
Core_0_L1I_prefetch_miss 0
Core_0_L1I_prefetch_MPKI 0
Core_0_L1I_prefetch_miss_rate 0
Core_0_L1I_writeback_access 0
Core_0_L1I_writeback_hit 0
Core_0_L1I_writeback_miss 0
Core_0_L1I_writeback_MPKI 0
Core_0_L1I_writeback_miss_rate 0
Core_0_L1I_prefetch_requested 0
Core_0_L1I_prefetch_issued 0
Core_0_L1I_prefetch_useful 0
Core_0_L1I_prefetch_useless 0
Core_0_L1I_prefetch_late 0
Core_0_L1I_prefetch_accuracy 0
Core_0_L1I_prefetch_coverage 0

Core_0_L1D_total_access 14810304
Core_0_L1D_total_hit 10896002
Core_0_L1D_total_miss 3914302
Core_0_L1D_total_MPKI 78.286
Core_0_L1D_total_miss_rate 0.264296
Core_0_L1D_demand_access 11682397
Core_0_L1D_demand_hit 8230530
Core_0_L1D_demand_miss 3451867
Core_0_L1D_demand_MPKI 69.0373
Core_0_L1D_demand_miss_rate 0.295476
Core_0_L1D_load_access 11682397
Core_0_L1D_load_hit 8230530
Core_0_L1D_load_miss 3451867
Core_0_L1D_load_MPKI 69.0373
Core_0_L1D_load_miss_rate 0.295476
Core_0_L1D_rfo_access 0
Core_0_L1D_rfo_hit 0
Core_0_L1D_rfo_miss 0
Core_0_L1D_rfo_MPKI 0
Core_0_L1D_rfo_miss_rate 0
Core_0_L1D_prefetch_access 785708
Core_0_L1D_prefetch_hit 323318
Core_0_L1D_prefetch_miss 462390
Core_0_L1D_prefetch_MPKI 9.2478
Core_0_L1D_prefetch_miss_rate 0.588501
Core_0_L1D_writeback_access 2342199
Core_0_L1D_writeback_hit 2342154
Core_0_L1D_writeback_miss 45
Core_0_L1D_writeback_MPKI 0.0009
Core_0_L1D_writeback_miss_rate 1.92127e-05
Core_0_L1D_prefetch_requested 821481
Core_0_L1D_prefetch_issued 785707
Core_0_L1D_prefetch_useful 248098
Core_0_L1D_prefetch_useless 203281
Core_0_L1D_prefetch_late 13269
Core_0_L1D_prefetch_accuracy 0.315764
Core_0_L1D_prefetch_coverage 0.0670541

Core_0_L2C_total_access 3944562
Core_0_L2C_total_hit 571120
Core_0_L2C_total_miss 3373442
Core_0_L2C_total_MPKI 67.4688
Core_0_L2C_total_miss_rate 0.855213
Core_0_L2C_demand_access 3209065
Core_0_L2C_demand_hit 365085
Core_0_L2C_demand_miss 2843980
Core_0_L2C_demand_MPKI 56.8796
Core_0_L2C_demand_miss_rate 0.886233
Core_0_L2C_load_access 3209041
Core_0_L2C_load_hit 365061
Core_0_L2C_load_miss 2843980
Core_0_L2C_load_MPKI 56.8796
Core_0_L2C_load_miss_rate 0.88624
Core_0_L2C_rfo_access 24
Core_0_L2C_rfo_hit 24
Core_0_L2C_rfo_miss 0
Core_0_L2C_rfo_MPKI 0
Core_0_L2C_rfo_miss_rate 0
Core_0_L2C_prefetch_access 693090
Core_0_L2C_prefetch_hit 163628
Core_0_L2C_prefetch_miss 529462
Core_0_L2C_prefetch_MPKI 10.5892
Core_0_L2C_prefetch_miss_rate 0.763915
Core_0_L2C_writeback_access 42407
Core_0_L2C_writeback_hit 42407
Core_0_L2C_writeback_miss 0
Core_0_L2C_writeback_MPKI 0
Core_0_L2C_writeback_miss_rate 0
Core_0_L2C_prefetch_requested 241688
Core_0_L2C_prefetch_issued 241688
Core_0_L2C_prefetch_useful 96653
Core_0_L2C_prefetch_useless 21591
Core_0_L2C_prefetch_late 2222
Core_0_L2C_prefetch_accuracy 0.399908
Core_0_L2C_prefetch_coverage 0.0328681

Core_0_LLC_total_access 3381402
Core_0_LLC_total_hit 525993
Core_0_LLC_total_miss 2855409
Core_0_LLC_total_MPKI 57.1082
Core_0_LLC_total_miss_rate 0.844445
Core_0_LLC_demand_access 2841754
Core_0_LLC_demand_hit 485692
Core_0_LLC_demand_miss 2356062
Core_0_LLC_demand_MPKI 47.1212
Core_0_LLC_demand_miss_rate 0.829087
Core_0_LLC_load_access 2841754
Core_0_LLC_load_hit 485692
Core_0_LLC_load_miss 2356062
Core_0_LLC_load_MPKI 47.1212
Core_0_LLC_load_miss_rate 0.829087
Core_0_LLC_rfo_access 0
Core_0_LLC_rfo_hit 0
Core_0_LLC_rfo_miss 0
Core_0_LLC_rfo_MPKI 0
Core_0_LLC_rfo_miss_rate 0
Core_0_LLC_prefetch_access 497247
Core_0_LLC_prefetch_hit 32875
Core_0_LLC_prefetch_miss 464372
Core_0_LLC_prefetch_MPKI 9.28744
Core_0_LLC_prefetch_miss_rate 0.933886
Core_0_LLC_writeback_access 42401
Core_0_LLC_writeback_hit 7426
Core_0_LLC_writeback_miss 34975
Core_0_LLC_writeback_MPKI 0.6995
Core_0_LLC_writeback_miss_rate 0.824863
Core_0_LLC_prefetch_requested 0
Core_0_LLC_prefetch_issued 0
Core_0_LLC_prefetch_useful 0
Core_0_LLC_prefetch_useless 0
Core_0_LLC_prefetch_late 0
Core_0_LLC_prefetch_accuracy 0
Core_0_LLC_prefetch_coverage 0

[DRAM Statistics]
Channel_0_RQ_row_buffer_hit 6262
Channel_0_RQ_row_buffer_miss 2822997
Channel_0_WQ_row_buffer_hit 10625
Channel_0_WQ_row_buffer_miss 32376
Channel_0_WQ_full 0
Channel_0_dbus_congested 5018392
DRAM_total_RQ_row_buffer_hit 6262
DRAM_total_RQ_row_buffer_miss 2822997
DRAM_total_WQ_row_buffer_hit 10625
DRAM_total_WQ_row_buffer_miss 32376
DRAM_total_WQ_full 0
DRAM_total_dbus_congested 5018392
DRAM_avg_congested_cycle 3.3752

======STLB miss causes ========
Core_0_STLB_miss_cause_breakdown
Core_0_STLB_cause_Demand_Data_miss 0
Core_0_STLB_cause_Demand_Data_miss_rate 0
Core_0_STLB_cause_Demand_Instruction_miss 0
Core_0_STLB_cause_Demand_Instruction_miss_rate 0
Core_0_STLB_cause_L1D_Prefetch_miss 15385
Core_0_STLB_cause_L1D_Prefetch_miss_rate 0.0046434
Core_0_STLB_cause_L1I_Prefetch_miss 0
Core_0_STLB_cause_L1I_Prefetch_miss_rate 0
Core_0_STLB_cause_Other_miss 0
Core_0_STLB_cause_Other_miss_rate 0
Core_0_STLB_Demand_miss 0
Core_0_STLB_Demand_miss_rate 0
Core_0_STLB_L1D_Prefetch_miss 15385
Core_0_STLB_L1D_Prefetch_miss_rate 0.0046434
Core_0_STLB_Other_miss 0
Core_0_STLB_Other_miss_rate 0
