[VMEM] WARNING: physical memory size is smaller than virtual memory size.

*** ChampSim Multicore Out-of-Order Simulator ***
Warmup Instructions: 20000000
Simulation Instructions: 50000000
Number of CPUs: 1
Page size: 4096
STLB ideal mode: demand
STLB ideal fill: on
Core 0: /data0/tzh/champsim_traces/Ligra/ligra_PageRankDelta.com-lj.ungraph.gcc_6.3.0_O3.drop_52000M.length_250M.champsimtrace.xz
 L1D Berti prefetcher
Off-chip DRAM Size: 16 GiB Channels: 1 Width: 64-bit Data Rate: 3205 MT/s
Warmup halting CPU 0 at instruction 20000002 cycle 4022168 for remainder of phase
Warmup finished CPU 0 instructions: 20000002 cycles: 4022168 cumulative IPC: 4.972 (Simulation time: 00 hr 00 min 57 sec)
Warmup complete CPU 0 instructions: 20000002 cycles: 4022168 cumulative IPC: 4.972 (Simulation time: 00 hr 00 min 57 sec)
Simulation finished CPU 0 instructions: 50000000 cycles: 88097868 cumulative IPC: 0.5676 (Simulation time: 00 hr 08 min 43 sec)
Simulation complete CPU 0 instructions: 50000000 cycles: 88097868 cumulative IPC: 0.5676 (Simulation time: 00 hr 08 min 43 sec)

ChampSim completed all CPUs

=== Simulation ===
CPU 0 runs /data0/tzh/champsim_traces/Ligra/ligra_PageRankDelta.com-lj.ungraph.gcc_6.3.0_O3.drop_52000M.length_250M.champsimtrace.xz

Region of Interest Statistics

CPU 0 cumulative IPC: 0.5676 instructions: 50000000 cycles: 88097868
CPU 0 Branch Prediction Accuracy: 90.09% MPKI: 10.67 Average ROB Occupancy at Mispredict: 44.43
Branch type MPKI
BRANCH_DIRECT_JUMP: 0
BRANCH_INDIRECT: 0
BRANCH_CONDITIONAL: 10.67
BRANCH_DIRECT_CALL: 0
BRANCH_INDIRECT_CALL: 0
BRANCH_RETURN: 0

cpu0->cpu0_STLB TOTAL        ACCESS:     385362 HIT:     381215 MISS:       4147 MSHR_MERGE:          0
cpu0->cpu0_STLB LOAD         ACCESS:     385362 HIT:     381215 MISS:       4147 MSHR_MERGE:          0
cpu0->cpu0_STLB RFO          ACCESS:          0 HIT:          0 MISS:          0 MSHR_MERGE:          0
cpu0->cpu0_STLB PREFETCH     ACCESS:          0 HIT:          0 MISS:          0 MSHR_MERGE:          0
cpu0->cpu0_STLB WRITE        ACCESS:          0 HIT:          0 MISS:          0 MSHR_MERGE:          0
cpu0->cpu0_STLB TRANSLATION  ACCESS:          0 HIT:          0 MISS:          0 MSHR_MERGE:          0
cpu0->cpu0_STLB PREFETCH REQUESTED:          0 ISSUED:          0 USEFUL:          0 USELESS:          0 LATE:          0
cpu0->cpu0_STLB AVERAGE MISS LATENCY: 253.3 cycles
cpu0->cpu0_L2C TOTAL        ACCESS:    1736024 HIT:     695189 MISS:    1040835 MSHR_MERGE:      61516
cpu0->cpu0_L2C LOAD         ACCESS:     535167 HIT:      28292 MISS:     506875 MSHR_MERGE:       1416
cpu0->cpu0_L2C RFO          ACCESS:       1299 HIT:       1299 MISS:          0 MSHR_MERGE:          0
cpu0->cpu0_L2C PREFETCH     ACCESS:     656522 HIT:     125197 MISS:     531325 MSHR_MERGE:      60100
cpu0->cpu0_L2C WRITE        ACCESS:     539181 HIT:     539141 MISS:         40 MSHR_MERGE:          0
cpu0->cpu0_L2C TRANSLATION  ACCESS:       3855 HIT:       1260 MISS:       2595 MSHR_MERGE:          0
cpu0->cpu0_L2C PREFETCH REQUESTED:     201739 ISSUED:     201739 USEFUL:     103919 USELESS:      24239 LATE:       1416
cpu0->cpu0_L2C AVERAGE MISS LATENCY: 193.8 cycles
cpu0->cpu0_L1I TOTAL        ACCESS:    1432375 HIT:    1432375 MISS:          0 MSHR_MERGE:          0
cpu0->cpu0_L1I LOAD         ACCESS:    1432375 HIT:    1432375 MISS:          0 MSHR_MERGE:          0
cpu0->cpu0_L1I RFO          ACCESS:          0 HIT:          0 MISS:          0 MSHR_MERGE:          0
cpu0->cpu0_L1I PREFETCH     ACCESS:          0 HIT:          0 MISS:          0 MSHR_MERGE:          0
cpu0->cpu0_L1I WRITE        ACCESS:          0 HIT:          0 MISS:          0 MSHR_MERGE:          0
cpu0->cpu0_L1I TRANSLATION  ACCESS:          0 HIT:          0 MISS:          0 MSHR_MERGE:          0
cpu0->cpu0_L1I PREFETCH REQUESTED:          0 ISSUED:          0 USEFUL:          0 USELESS:          0 LATE:          0
cpu0->cpu0_L1I AVERAGE MISS LATENCY: - cycles
cpu0->cpu0_L1D TOTAL        ACCESS:   15968288 HIT:   14760429 MISS:    1207859 MSHR_MERGE:     212623
cpu0->cpu0_L1D LOAD         ACCESS:   10745532 HIT:   10001708 MISS:     743824 MSHR_MERGE:     208657
cpu0->cpu0_L1D RFO          ACCESS:          0 HIT:          0 MISS:          0 MSHR_MERGE:          0
cpu0->cpu0_L1D PREFETCH     ACCESS:     490874 HIT:      33566 MISS:     457308 MSHR_MERGE:       2525
cpu0->cpu0_L1D WRITE        ACCESS:    4723575 HIT:    4720703 MISS:       2872 MSHR_MERGE:       1441
cpu0->cpu0_L1D TRANSLATION  ACCESS:       8307 HIT:       4452 MISS:       3855 MSHR_MERGE:          0
cpu0->cpu0_L1D PREFETCH REQUESTED:     491193 ISSUED:     490866 USEFUL:     392482 USELESS:      62302 LATE:      12518
cpu0->cpu0_L1D AVERAGE MISS LATENCY: 190.2 cycles
cpu0->cpu0_ITLB TOTAL        ACCESS:    1108111 HIT:    1108111 MISS:          0 MSHR_MERGE:          0
cpu0->cpu0_ITLB LOAD         ACCESS:    1108111 HIT:    1108111 MISS:          0 MSHR_MERGE:          0
cpu0->cpu0_ITLB RFO          ACCESS:          0 HIT:          0 MISS:          0 MSHR_MERGE:          0
cpu0->cpu0_ITLB PREFETCH     ACCESS:          0 HIT:          0 MISS:          0 MSHR_MERGE:          0
cpu0->cpu0_ITLB WRITE        ACCESS:          0 HIT:          0 MISS:          0 MSHR_MERGE:          0
cpu0->cpu0_ITLB TRANSLATION  ACCESS:          0 HIT:          0 MISS:          0 MSHR_MERGE:          0
cpu0->cpu0_ITLB PREFETCH REQUESTED:          0 ISSUED:          0 USEFUL:          0 USELESS:          0 LATE:          0
cpu0->cpu0_ITLB AVERAGE MISS LATENCY: - cycles
cpu0->cpu0_DTLB TOTAL        ACCESS:   15391959 HIT:   14975681 MISS:     416278 MSHR_MERGE:      30916
cpu0->cpu0_DTLB LOAD         ACCESS:   15391959 HIT:   14975681 MISS:     416278 MSHR_MERGE:      30916
cpu0->cpu0_DTLB RFO          ACCESS:          0 HIT:          0 MISS:          0 MSHR_MERGE:          0
cpu0->cpu0_DTLB PREFETCH     ACCESS:          0 HIT:          0 MISS:          0 MSHR_MERGE:          0
cpu0->cpu0_DTLB WRITE        ACCESS:          0 HIT:          0 MISS:          0 MSHR_MERGE:          0
cpu0->cpu0_DTLB TRANSLATION  ACCESS:          0 HIT:          0 MISS:          0 MSHR_MERGE:          0
cpu0->cpu0_DTLB PREFETCH REQUESTED:          0 ISSUED:          0 USEFUL:          0 USELESS:          0 LATE:          0
cpu0->cpu0_DTLB AVERAGE MISS LATENCY: 7.737 cycles
cpu0->LLC TOTAL        ACCESS:    1498117 HIT:     265396 MISS:    1232721 MSHR_MERGE:         12
cpu0->LLC LOAD         ACCESS:     505459 HIT:      85341 MISS:     420118 MSHR_MERGE:          0
cpu0->LLC RFO          ACCESS:          0 HIT:          0 MISS:          0 MSHR_MERGE:          0
cpu0->LLC PREFETCH     ACCESS:     471225 HIT:      17306 MISS:     453919 MSHR_MERGE:         12
cpu0->LLC WRITE        ACCESS:     518838 HIT:     162623 MISS:     356215 MSHR_MERGE:          0
cpu0->LLC TRANSLATION  ACCESS:       2595 HIT:        126 MISS:       2469 MSHR_MERGE:          0
cpu0->LLC PREFETCH REQUESTED:          0 ISSUED:          0 USEFUL:          0 USELESS:          0 LATE:          0
cpu0->LLC AVERAGE MISS LATENCY: 120.3 cycles

DRAM Statistics

Channel 0 RQ ROW_BUFFER_HIT:       3515
  ROW_BUFFER_MISS:     872840
  AVG DBUS CONGESTED CYCLE: 8.289
Channel 0 WQ ROW_BUFFER_HIT:     133673
  ROW_BUFFER_MISS:     294137
  FULL:          0
Channel 0 REFRESHES ISSUED:       7341

[ROI Statistics]
[System Configuration]
num_cpus 1
cpu_freq 4000
fetch_width 6
decode_width 6
dispatch_width 6
execute_width 6
lq_width 2
sq_width 2
retire_width 6
scheduler_size 128
branch_mispredict_penalty 15
rob_size 352
lq_size 128
sq_size 72
ifetch_buffer_size 64
decode_buffer_size 32
dispatch_buffer_size 32
register_file_size 288
decode_latency 1
dispatch_latency 1
schedule_latency 1
execute_latency 1
page_size 4096
block_size 64
core_0_itlb_set 16
core_0_itlb_way 4
core_0_itlb_rq_size 16
core_0_itlb_wq_size 16
core_0_itlb_pq_size 0
core_0_itlb_mshr_size 8
core_0_itlb_hit_latency 1
core_0_itlb_fill_latency 1
core_0_itlb_max_tag_check 2
core_0_itlb_max_fill 2
core_0_dtlb_set 16
core_0_dtlb_way 4
core_0_dtlb_rq_size 16
core_0_dtlb_wq_size 16
core_0_dtlb_pq_size 0
core_0_dtlb_mshr_size 8
core_0_dtlb_hit_latency 1
core_0_dtlb_fill_latency 1
core_0_dtlb_max_tag_check 2
core_0_dtlb_max_fill 2
core_0_stlb_set 128
core_0_stlb_way 12
core_0_stlb_rq_size 32
core_0_stlb_wq_size 32
core_0_stlb_pq_size 0
core_0_stlb_mshr_size 16
core_0_stlb_hit_latency 4
core_0_stlb_fill_latency 4
core_0_stlb_max_tag_check 1
core_0_stlb_max_fill 1
core_0_l1i_set 64
core_0_l1i_way 8
core_0_l1i_rq_size 64
core_0_l1i_wq_size 64
core_0_l1i_pq_size 32
core_0_l1i_mshr_size 8
core_0_l1i_hit_latency 2
core_0_l1i_fill_latency 2
core_0_l1i_max_tag_check 2
core_0_l1i_max_fill 2
core_0_l1d_set 64
core_0_l1d_way 12
core_0_l1d_rq_size 64
core_0_l1d_wq_size 64
core_0_l1d_pq_size 8
core_0_l1d_mshr_size 16
core_0_l1d_hit_latency 2
core_0_l1d_fill_latency 3
core_0_l1d_max_tag_check 2
core_0_l1d_max_fill 2
core_0_l2c_set 1024
core_0_l2c_way 8
core_0_l2c_rq_size 32
core_0_l2c_wq_size 32
core_0_l2c_pq_size 16
core_0_l2c_mshr_size 32
core_0_l2c_hit_latency 5
core_0_l2c_fill_latency 5
core_0_l2c_max_tag_check 1
core_0_l2c_max_fill 1
llc_set 2048
llc_way 16
llc_rq_size 32
llc_wq_size 32
llc_pq_size 32
llc_mshr_size 64
llc_hit_latency 10
llc_fill_latency 10
llc_max_tag_check 1
llc_max_fill 1
dram_channels 1
dram_ranks 1
dram_bankgroups 8
dram_banks 4
dram_rows 65536
dram_columns 1024
dram_channel_width 8
dram_rq_size 64
dram_wq_size 64
dram_size 17179869184
core_0_itlb_prefetcher no
core_0_dtlb_prefetcher no
core_0_stlb_prefetcher no
core_0_l1i_prefetcher next_line
core_0_l1d_prefetcher berti
core_0_l2c_prefetcher ip_stride
llc_prefetcher no
llc_replacement drrip

Core_0_instructions 50000000
Core_0_cycles 88097868
Core_0_IPC 0.567551
Core_0_branch_prediction_accuracy 90.0906
Core_0_branch_MPKI 10.6679
Core_0_average_ROB_occupancy_at_mispredict 44.4343

Core_0_ITLB_total_access 1108111
Core_0_ITLB_total_hit 1108111
Core_0_ITLB_total_miss 0
Core_0_ITLB_total_MPKI 0
Core_0_ITLB_total_miss_rate 0
Core_0_ITLB_demand_access 1108111
Core_0_ITLB_demand_hit 1108111
Core_0_ITLB_demand_miss 0
Core_0_ITLB_demand_MPKI 0
Core_0_ITLB_demand_miss_rate 0
Core_0_ITLB_load_access 1108111
Core_0_ITLB_load_hit 1108111
Core_0_ITLB_load_miss 0
Core_0_ITLB_load_MPKI 0
Core_0_ITLB_load_miss_rate 0
Core_0_ITLB_rfo_access 0
Core_0_ITLB_rfo_hit 0
Core_0_ITLB_rfo_miss 0
Core_0_ITLB_rfo_MPKI 0
Core_0_ITLB_rfo_miss_rate 0
Core_0_ITLB_prefetch_access 0
Core_0_ITLB_prefetch_hit 0
Core_0_ITLB_prefetch_miss 0
Core_0_ITLB_prefetch_MPKI 0
Core_0_ITLB_prefetch_miss_rate 0
Core_0_ITLB_writeback_access 0
Core_0_ITLB_writeback_hit 0
Core_0_ITLB_writeback_miss 0
Core_0_ITLB_writeback_MPKI 0
Core_0_ITLB_writeback_miss_rate 0
Core_0_ITLB_prefetch_requested 0
Core_0_ITLB_prefetch_issued 0
Core_0_ITLB_prefetch_useful 0
Core_0_ITLB_prefetch_useless 0
Core_0_ITLB_prefetch_late 0
Core_0_ITLB_prefetch_accuracy 0
Core_0_ITLB_prefetch_coverage 0

Core_0_DTLB_total_access 15391959
Core_0_DTLB_total_hit 14975681
Core_0_DTLB_total_miss 416278
Core_0_DTLB_total_MPKI 8.32556
Core_0_DTLB_total_miss_rate 0.0270452
Core_0_DTLB_demand_access 15391959
Core_0_DTLB_demand_hit 14975681
Core_0_DTLB_demand_miss 416278
Core_0_DTLB_demand_MPKI 8.32556
Core_0_DTLB_demand_miss_rate 0.0270452
Core_0_DTLB_load_access 15391959
Core_0_DTLB_load_hit 14975681
Core_0_DTLB_load_miss 416278
Core_0_DTLB_load_MPKI 8.32556
Core_0_DTLB_load_miss_rate 0.0270452
Core_0_DTLB_rfo_access 0
Core_0_DTLB_rfo_hit 0
Core_0_DTLB_rfo_miss 0
Core_0_DTLB_rfo_MPKI 0
Core_0_DTLB_rfo_miss_rate 0
Core_0_DTLB_prefetch_access 0
Core_0_DTLB_prefetch_hit 0
Core_0_DTLB_prefetch_miss 0
Core_0_DTLB_prefetch_MPKI 0
Core_0_DTLB_prefetch_miss_rate 0
Core_0_DTLB_writeback_access 0
Core_0_DTLB_writeback_hit 0
Core_0_DTLB_writeback_miss 0
Core_0_DTLB_writeback_MPKI 0
Core_0_DTLB_writeback_miss_rate 0
Core_0_DTLB_prefetch_requested 0
Core_0_DTLB_prefetch_issued 0
Core_0_DTLB_prefetch_useful 0
Core_0_DTLB_prefetch_useless 0
Core_0_DTLB_prefetch_late 0
Core_0_DTLB_prefetch_accuracy 0
Core_0_DTLB_prefetch_coverage 0

Core_0_STLB_total_access 385362
Core_0_STLB_total_hit 381215
Core_0_STLB_total_miss 4147
Core_0_STLB_total_MPKI 0.08294
Core_0_STLB_total_miss_rate 0.0107613
Core_0_STLB_demand_access 385362
Core_0_STLB_demand_hit 381215
Core_0_STLB_demand_miss 4147
Core_0_STLB_demand_MPKI 0.08294
Core_0_STLB_demand_miss_rate 0.0107613
Core_0_STLB_load_access 385362
Core_0_STLB_load_hit 381215
Core_0_STLB_load_miss 4147
Core_0_STLB_load_MPKI 0.08294
Core_0_STLB_load_miss_rate 0.0107613
Core_0_STLB_rfo_access 0
Core_0_STLB_rfo_hit 0
Core_0_STLB_rfo_miss 0
Core_0_STLB_rfo_MPKI 0
Core_0_STLB_rfo_miss_rate 0
Core_0_STLB_prefetch_access 0
Core_0_STLB_prefetch_hit 0
Core_0_STLB_prefetch_miss 0
Core_0_STLB_prefetch_MPKI 0
Core_0_STLB_prefetch_miss_rate 0
Core_0_STLB_writeback_access 0
Core_0_STLB_writeback_hit 0
Core_0_STLB_writeback_miss 0
Core_0_STLB_writeback_MPKI 0
Core_0_STLB_writeback_miss_rate 0
Core_0_STLB_prefetch_requested 0
Core_0_STLB_prefetch_issued 0
Core_0_STLB_prefetch_useful 0
Core_0_STLB_prefetch_useless 0
Core_0_STLB_prefetch_late 0
Core_0_STLB_prefetch_accuracy 0
Core_0_STLB_prefetch_coverage 0

Core_0_L1I_total_access 1432375
Core_0_L1I_total_hit 1432375
Core_0_L1I_total_miss 0
Core_0_L1I_total_MPKI 0
Core_0_L1I_total_miss_rate 0
Core_0_L1I_demand_access 1432375
Core_0_L1I_demand_hit 1432375
Core_0_L1I_demand_miss 0
Core_0_L1I_demand_MPKI 0
Core_0_L1I_demand_miss_rate 0
Core_0_L1I_load_access 1432375
Core_0_L1I_load_hit 1432375
Core_0_L1I_load_miss 0
Core_0_L1I_load_MPKI 0
Core_0_L1I_load_miss_rate 0
Core_0_L1I_rfo_access 0
Core_0_L1I_rfo_hit 0
Core_0_L1I_rfo_miss 0
Core_0_L1I_rfo_MPKI 0
Core_0_L1I_rfo_miss_rate 0
Core_0_L1I_prefetch_access 0
Core_0_L1I_prefetch_hit 0
Core_0_L1I_prefetch_miss 0
Core_0_L1I_prefetch_MPKI 0
Core_0_L1I_prefetch_miss_rate 0
Core_0_L1I_writeback_access 0
Core_0_L1I_writeback_hit 0
Core_0_L1I_writeback_miss 0
Core_0_L1I_writeback_MPKI 0
Core_0_L1I_writeback_miss_rate 0
Core_0_L1I_prefetch_requested 0
Core_0_L1I_prefetch_issued 0
Core_0_L1I_prefetch_useful 0
Core_0_L1I_prefetch_useless 0
Core_0_L1I_prefetch_late 0
Core_0_L1I_prefetch_accuracy 0
Core_0_L1I_prefetch_coverage 0

Core_0_L1D_total_access 15959981
Core_0_L1D_total_hit 14755977
Core_0_L1D_total_miss 1204004
Core_0_L1D_total_MPKI 24.0801
Core_0_L1D_total_miss_rate 0.0754389
Core_0_L1D_demand_access 10745532
Core_0_L1D_demand_hit 10001708
Core_0_L1D_demand_miss 743824
Core_0_L1D_demand_MPKI 14.8765
Core_0_L1D_demand_miss_rate 0.0692217
Core_0_L1D_load_access 10745532
Core_0_L1D_load_hit 10001708
Core_0_L1D_load_miss 743824
Core_0_L1D_load_MPKI 14.8765
Core_0_L1D_load_miss_rate 0.0692217
Core_0_L1D_rfo_access 0
Core_0_L1D_rfo_hit 0
Core_0_L1D_rfo_miss 0
Core_0_L1D_rfo_MPKI 0
Core_0_L1D_rfo_miss_rate 0
Core_0_L1D_prefetch_access 490874
Core_0_L1D_prefetch_hit 33566
Core_0_L1D_prefetch_miss 457308
Core_0_L1D_prefetch_MPKI 9.14616
Core_0_L1D_prefetch_miss_rate 0.93162
Core_0_L1D_writeback_access 4723575
Core_0_L1D_writeback_hit 4720703
Core_0_L1D_writeback_miss 2872
Core_0_L1D_writeback_MPKI 0.05744
Core_0_L1D_writeback_miss_rate 0.000608014
Core_0_L1D_prefetch_requested 491193
Core_0_L1D_prefetch_issued 490866
Core_0_L1D_prefetch_useful 392482
Core_0_L1D_prefetch_useless 62302
Core_0_L1D_prefetch_late 12518
Core_0_L1D_prefetch_accuracy 0.799571
Core_0_L1D_prefetch_coverage 0.345402

Core_0_L2C_total_access 1732169
Core_0_L2C_total_hit 693929
Core_0_L2C_total_miss 1038240
Core_0_L2C_total_MPKI 20.7648
Core_0_L2C_total_miss_rate 0.599387
Core_0_L2C_demand_access 536466
Core_0_L2C_demand_hit 29591
Core_0_L2C_demand_miss 506875
Core_0_L2C_demand_MPKI 10.1375
Core_0_L2C_demand_miss_rate 0.944841
Core_0_L2C_load_access 535167
Core_0_L2C_load_hit 28292
Core_0_L2C_load_miss 506875
Core_0_L2C_load_MPKI 10.1375
Core_0_L2C_load_miss_rate 0.947134
Core_0_L2C_rfo_access 1299
Core_0_L2C_rfo_hit 1299
Core_0_L2C_rfo_miss 0
Core_0_L2C_rfo_MPKI 0
Core_0_L2C_rfo_miss_rate 0
Core_0_L2C_prefetch_access 656522
Core_0_L2C_prefetch_hit 125197
Core_0_L2C_prefetch_miss 531325
Core_0_L2C_prefetch_MPKI 10.6265
Core_0_L2C_prefetch_miss_rate 0.809303
Core_0_L2C_writeback_access 539181
Core_0_L2C_writeback_hit 539141
Core_0_L2C_writeback_miss 40
Core_0_L2C_writeback_MPKI 0.0008
Core_0_L2C_writeback_miss_rate 7.41866e-05
Core_0_L2C_prefetch_requested 201739
Core_0_L2C_prefetch_issued 201739
Core_0_L2C_prefetch_useful 103919
Core_0_L2C_prefetch_useless 24239
Core_0_L2C_prefetch_late 1416
Core_0_L2C_prefetch_accuracy 0.515116
Core_0_L2C_prefetch_coverage 0.170138

Core_0_LLC_total_access 1495522
Core_0_LLC_total_hit 265270
Core_0_LLC_total_miss 1230252
Core_0_LLC_total_MPKI 24.605
Core_0_LLC_total_miss_rate 0.822624
Core_0_LLC_demand_access 505459
Core_0_LLC_demand_hit 85341
Core_0_LLC_demand_miss 420118
Core_0_LLC_demand_MPKI 8.40236
Core_0_LLC_demand_miss_rate 0.831161
Core_0_LLC_load_access 505459
Core_0_LLC_load_hit 85341
Core_0_LLC_load_miss 420118
Core_0_LLC_load_MPKI 8.40236
Core_0_LLC_load_miss_rate 0.831161
Core_0_LLC_rfo_access 0
Core_0_LLC_rfo_hit 0
Core_0_LLC_rfo_miss 0
Core_0_LLC_rfo_MPKI 0
Core_0_LLC_rfo_miss_rate 0
Core_0_LLC_prefetch_access 471225
Core_0_LLC_prefetch_hit 17306
Core_0_LLC_prefetch_miss 453919
Core_0_LLC_prefetch_MPKI 9.07838
Core_0_LLC_prefetch_miss_rate 0.963274
Core_0_LLC_writeback_access 518838
Core_0_LLC_writeback_hit 162623
Core_0_LLC_writeback_miss 356215
Core_0_LLC_writeback_MPKI 7.1243
Core_0_LLC_writeback_miss_rate 0.686563
Core_0_LLC_prefetch_requested 0
Core_0_LLC_prefetch_issued 0
Core_0_LLC_prefetch_useful 0
Core_0_LLC_prefetch_useless 0
Core_0_LLC_prefetch_late 0
Core_0_LLC_prefetch_accuracy 0
Core_0_LLC_prefetch_coverage 0

[DRAM Statistics]
Channel_0_RQ_row_buffer_hit 3515
Channel_0_RQ_row_buffer_miss 872840
Channel_0_WQ_row_buffer_hit 133673
Channel_0_WQ_row_buffer_miss 294137
Channel_0_WQ_full 0
Channel_0_dbus_congested 3978948
DRAM_total_RQ_row_buffer_hit 3515
DRAM_total_RQ_row_buffer_miss 872840
DRAM_total_WQ_row_buffer_hit 133673
DRAM_total_WQ_row_buffer_miss 294137
DRAM_total_WQ_full 0
DRAM_total_dbus_congested 3978948
DRAM_avg_congested_cycle 8.28906

======STLB miss causes ========
Core_0_STLB_miss_cause_breakdown
Core_0_STLB_cause_Demand_Data_miss 0
Core_0_STLB_cause_Demand_Data_miss_rate 0
Core_0_STLB_cause_Demand_Instruction_miss 0
Core_0_STLB_cause_Demand_Instruction_miss_rate 0
Core_0_STLB_cause_L1D_Prefetch_miss 4147
Core_0_STLB_cause_L1D_Prefetch_miss_rate 0.0107613
Core_0_STLB_cause_L1I_Prefetch_miss 0
Core_0_STLB_cause_L1I_Prefetch_miss_rate 0
Core_0_STLB_cause_Other_miss 0
Core_0_STLB_cause_Other_miss_rate 0
Core_0_STLB_Demand_miss 0
Core_0_STLB_Demand_miss_rate 0
Core_0_STLB_L1D_Prefetch_miss 4147
Core_0_STLB_L1D_Prefetch_miss_rate 0.0107613
Core_0_STLB_Other_miss 0
Core_0_STLB_Other_miss_rate 0
