[VMEM] WARNING: physical memory size is smaller than virtual memory size.

*** ChampSim Multicore Out-of-Order Simulator ***
Warmup Instructions: 20000000
Simulation Instructions: 50000000
Number of CPUs: 1
Page size: 4096
STLB ideal mode: demand
STLB ideal fill: on
Core 0: /data0/tzh/champsim_traces/Ligra/ligra_PageRank.com-lj.ungraph.gcc_6.3.0_O3.drop_21750M.length_250M.champsimtrace.xz
 L1D Berti prefetcher
Off-chip DRAM Size: 16 GiB Channels: 1 Width: 64-bit Data Rate: 3205 MT/s
Warmup halting CPU 0 at instruction 20000004 cycle 4526007 for remainder of phase
Warmup finished CPU 0 instructions: 20000004 cycles: 4526007 cumulative IPC: 4.419 (Simulation time: 00 hr 01 min 21 sec)
Warmup complete CPU 0 instructions: 20000004 cycles: 4526007 cumulative IPC: 4.419 (Simulation time: 00 hr 01 min 21 sec)
Simulation finished CPU 0 instructions: 50000002 cycles: 78086990 cumulative IPC: 0.6403 (Simulation time: 00 hr 10 min 16 sec)
Simulation complete CPU 0 instructions: 50000002 cycles: 78086990 cumulative IPC: 0.6403 (Simulation time: 00 hr 10 min 16 sec)

ChampSim completed all CPUs

=== Simulation ===
CPU 0 runs /data0/tzh/champsim_traces/Ligra/ligra_PageRank.com-lj.ungraph.gcc_6.3.0_O3.drop_21750M.length_250M.champsimtrace.xz

Region of Interest Statistics

CPU 0 cumulative IPC: 0.6403 instructions: 50000002 cycles: 78086990
CPU 0 Branch Prediction Accuracy: 96.45% MPKI: 3.954 Average ROB Occupancy at Mispredict: 232.7
Branch type MPKI
BRANCH_DIRECT_JUMP: 0
BRANCH_INDIRECT: 0
BRANCH_CONDITIONAL: 3.954
BRANCH_DIRECT_CALL: 0
BRANCH_INDIRECT_CALL: 0
BRANCH_RETURN: 0

cpu0->cpu0_STLB TOTAL        ACCESS:    4004151 HIT:    3992374 MISS:      11777 MSHR_MERGE:          0
cpu0->cpu0_STLB LOAD         ACCESS:    4004151 HIT:    3992374 MISS:      11777 MSHR_MERGE:          0
cpu0->cpu0_STLB RFO          ACCESS:          0 HIT:          0 MISS:          0 MSHR_MERGE:          0
cpu0->cpu0_STLB PREFETCH     ACCESS:          0 HIT:          0 MISS:          0 MSHR_MERGE:          0
cpu0->cpu0_STLB WRITE        ACCESS:          0 HIT:          0 MISS:          0 MSHR_MERGE:          0
cpu0->cpu0_STLB TRANSLATION  ACCESS:          0 HIT:          0 MISS:          0 MSHR_MERGE:          0
cpu0->cpu0_STLB PREFETCH REQUESTED:          0 ISSUED:          0 USEFUL:          0 USELESS:          0 LATE:          0
cpu0->cpu0_STLB AVERAGE MISS LATENCY: 290 cycles
cpu0->cpu0_L2C TOTAL        ACCESS:    4619119 HIT:    1070542 MISS:    3548577 MSHR_MERGE:      26401
cpu0->cpu0_L2C LOAD         ACCESS:    3890055 HIT:     832216 MISS:    3057839 MSHR_MERGE:       2714
cpu0->cpu0_L2C RFO          ACCESS:         18 HIT:         18 MISS:          0 MSHR_MERGE:          0
cpu0->cpu0_L2C PREFETCH     ACCESS:     692588 HIT:     211660 MISS:     480928 MSHR_MERGE:      23687
cpu0->cpu0_L2C WRITE        ACCESS:      24735 HIT:      24735 MISS:          0 MSHR_MERGE:          0
cpu0->cpu0_L2C TRANSLATION  ACCESS:      11723 HIT:       1913 MISS:       9810 MSHR_MERGE:          0
cpu0->cpu0_L2C PREFETCH REQUESTED:     241529 ISSUED:     241529 USEFUL:      93608 USELESS:      23285 LATE:       2714
cpu0->cpu0_L2C AVERAGE MISS LATENCY: 199 cycles
cpu0->cpu0_L1I TOTAL        ACCESS:    1776330 HIT:    1776330 MISS:          0 MSHR_MERGE:          0
cpu0->cpu0_L1I LOAD         ACCESS:    1776330 HIT:    1776330 MISS:          0 MSHR_MERGE:          0
cpu0->cpu0_L1I RFO          ACCESS:          0 HIT:          0 MISS:          0 MSHR_MERGE:          0
cpu0->cpu0_L1I PREFETCH     ACCESS:          0 HIT:          0 MISS:          0 MSHR_MERGE:          0
cpu0->cpu0_L1I WRITE        ACCESS:          0 HIT:          0 MISS:          0 MSHR_MERGE:          0
cpu0->cpu0_L1I TRANSLATION  ACCESS:          0 HIT:          0 MISS:          0 MSHR_MERGE:          0
cpu0->cpu0_L1I PREFETCH REQUESTED:          0 ISSUED:          0 USEFUL:          0 USELESS:          0 LATE:          0
cpu0->cpu0_L1I AVERAGE MISS LATENCY: - cycles
cpu0->cpu0_L1D TOTAL        ACCESS:   14855317 HIT:   10268511 MISS:    4586806 MSHR_MERGE:     233950
cpu0->cpu0_L1D LOAD         ACCESS:   11523623 HIT:    7414293 MISS:    4109330 MSHR_MERGE:     219274
cpu0->cpu0_L1D RFO          ACCESS:          0 HIT:          0 MISS:          0 MSHR_MERGE:          0
cpu0->cpu0_L1D PREFETCH     ACCESS:     863058 HIT:     397351 MISS:     465707 MSHR_MERGE:      14648
cpu0->cpu0_L1D WRITE        ACCESS:    2445085 HIT:    2445051 MISS:         34 MSHR_MERGE:         16
cpu0->cpu0_L1D TRANSLATION  ACCESS:      23551 HIT:      11816 MISS:      11735 MSHR_MERGE:         12
cpu0->cpu0_L1D PREFETCH REQUESTED:     879717 ISSUED:     863055 USEFUL:     188445 USELESS:     262647 LATE:      11137
cpu0->cpu0_L1D AVERAGE MISS LATENCY: 165.1 cycles
cpu0->cpu0_ITLB TOTAL        ACCESS:    1711280 HIT:    1711280 MISS:          0 MSHR_MERGE:          0
cpu0->cpu0_ITLB LOAD         ACCESS:    1711280 HIT:    1711280 MISS:          0 MSHR_MERGE:          0
cpu0->cpu0_ITLB RFO          ACCESS:          0 HIT:          0 MISS:          0 MSHR_MERGE:          0
cpu0->cpu0_ITLB PREFETCH     ACCESS:          0 HIT:          0 MISS:          0 MSHR_MERGE:          0
cpu0->cpu0_ITLB WRITE        ACCESS:          0 HIT:          0 MISS:          0 MSHR_MERGE:          0
cpu0->cpu0_ITLB TRANSLATION  ACCESS:          0 HIT:          0 MISS:          0 MSHR_MERGE:          0
cpu0->cpu0_ITLB PREFETCH REQUESTED:          0 ISSUED:          0 USEFUL:          0 USELESS:          0 LATE:          0
cpu0->cpu0_ITLB AVERAGE MISS LATENCY: - cycles
cpu0->cpu0_DTLB TOTAL        ACCESS:   14664813 HIT:   10427094 MISS:    4237719 MSHR_MERGE:     233567
cpu0->cpu0_DTLB LOAD         ACCESS:   14664813 HIT:   10427094 MISS:    4237719 MSHR_MERGE:     233567
cpu0->cpu0_DTLB RFO          ACCESS:          0 HIT:          0 MISS:          0 MSHR_MERGE:          0
cpu0->cpu0_DTLB PREFETCH     ACCESS:          0 HIT:          0 MISS:          0 MSHR_MERGE:          0
cpu0->cpu0_DTLB WRITE        ACCESS:          0 HIT:          0 MISS:          0 MSHR_MERGE:          0
cpu0->cpu0_DTLB TRANSLATION  ACCESS:          0 HIT:          0 MISS:          0 MSHR_MERGE:          0
cpu0->cpu0_DTLB PREFETCH REQUESTED:          0 ISSUED:          0 USEFUL:          0 USELESS:          0 LATE:          0
cpu0->cpu0_DTLB AVERAGE MISS LATENCY: 5.887 cycles
cpu0->LLC TOTAL        ACCESS:    3546884 HIT:     978425 MISS:    2568459 MSHR_MERGE:       2172
cpu0->LLC LOAD         ACCESS:    3055123 HIT:     892056 MISS:    2163067 MSHR_MERGE:        967
cpu0->LLC RFO          ACCESS:          0 HIT:          0 MISS:          0 MSHR_MERGE:          0
cpu0->LLC PREFETCH     ACCESS:     457241 HIT:      76140 MISS:     381101 MSHR_MERGE:       1205
cpu0->LLC WRITE        ACCESS:      24710 HIT:       8833 MISS:      15877 MSHR_MERGE:          0
cpu0->LLC TRANSLATION  ACCESS:       9810 HIT:       1396 MISS:       8414 MSHR_MERGE:          0
cpu0->LLC PREFETCH REQUESTED:          0 ISSUED:          0 USEFUL:          0 USELESS:          0 LATE:          0
cpu0->LLC AVERAGE MISS LATENCY: 256.9 cycles

DRAM Statistics

Channel 0 RQ ROW_BUFFER_HIT:       4264
  ROW_BUFFER_MISS:    2546145
  AVG DBUS CONGESTED CYCLE: 3.335
Channel 0 WQ ROW_BUFFER_HIT:       5297
  ROW_BUFFER_MISS:      18163
  FULL:          0
Channel 0 REFRESHES ISSUED:       6507

[ROI Statistics]
[System Configuration]
num_cpus 1
cpu_freq 4000
fetch_width 6
decode_width 6
dispatch_width 6
execute_width 6
lq_width 2
sq_width 2
retire_width 6
scheduler_size 128
branch_mispredict_penalty 15
rob_size 352
lq_size 128
sq_size 72
ifetch_buffer_size 64
decode_buffer_size 32
dispatch_buffer_size 32
register_file_size 288
decode_latency 1
dispatch_latency 1
schedule_latency 1
execute_latency 1
page_size 4096
block_size 64
core_0_itlb_set 16
core_0_itlb_way 4
core_0_itlb_rq_size 16
core_0_itlb_wq_size 16
core_0_itlb_pq_size 0
core_0_itlb_mshr_size 8
core_0_itlb_hit_latency 1
core_0_itlb_fill_latency 1
core_0_itlb_max_tag_check 2
core_0_itlb_max_fill 2
core_0_dtlb_set 16
core_0_dtlb_way 4
core_0_dtlb_rq_size 16
core_0_dtlb_wq_size 16
core_0_dtlb_pq_size 0
core_0_dtlb_mshr_size 8
core_0_dtlb_hit_latency 1
core_0_dtlb_fill_latency 1
core_0_dtlb_max_tag_check 2
core_0_dtlb_max_fill 2
core_0_stlb_set 128
core_0_stlb_way 12
core_0_stlb_rq_size 32
core_0_stlb_wq_size 32
core_0_stlb_pq_size 0
core_0_stlb_mshr_size 16
core_0_stlb_hit_latency 4
core_0_stlb_fill_latency 4
core_0_stlb_max_tag_check 1
core_0_stlb_max_fill 1
core_0_l1i_set 64
core_0_l1i_way 8
core_0_l1i_rq_size 64
core_0_l1i_wq_size 64
core_0_l1i_pq_size 32
core_0_l1i_mshr_size 8
core_0_l1i_hit_latency 2
core_0_l1i_fill_latency 2
core_0_l1i_max_tag_check 2
core_0_l1i_max_fill 2
core_0_l1d_set 64
core_0_l1d_way 12
core_0_l1d_rq_size 64
core_0_l1d_wq_size 64
core_0_l1d_pq_size 8
core_0_l1d_mshr_size 16
core_0_l1d_hit_latency 2
core_0_l1d_fill_latency 3
core_0_l1d_max_tag_check 2
core_0_l1d_max_fill 2
core_0_l2c_set 1024
core_0_l2c_way 8
core_0_l2c_rq_size 32
core_0_l2c_wq_size 32
core_0_l2c_pq_size 16
core_0_l2c_mshr_size 32
core_0_l2c_hit_latency 5
core_0_l2c_fill_latency 5
core_0_l2c_max_tag_check 1
core_0_l2c_max_fill 1
llc_set 2048
llc_way 16
llc_rq_size 32
llc_wq_size 32
llc_pq_size 32
llc_mshr_size 64
llc_hit_latency 10
llc_fill_latency 10
llc_max_tag_check 1
llc_max_fill 1
dram_channels 1
dram_ranks 1
dram_bankgroups 8
dram_banks 4
dram_rows 65536
dram_columns 1024
dram_channel_width 8
dram_rq_size 64
dram_wq_size 64
dram_size 17179869184
core_0_itlb_prefetcher no
core_0_dtlb_prefetcher no
core_0_stlb_prefetcher no
core_0_l1i_prefetcher next_line
core_0_l1d_prefetcher berti
core_0_l2c_prefetcher ip_stride
llc_prefetcher no
llc_replacement drrip

Core_0_instructions 50000002
Core_0_cycles 78086990
Core_0_IPC 0.640312
Core_0_branch_prediction_accuracy 96.4475
Core_0_branch_MPKI 3.95398
Core_0_average_ROB_occupancy_at_mispredict 232.723

Core_0_ITLB_total_access 1711280
Core_0_ITLB_total_hit 1711280
Core_0_ITLB_total_miss 0
Core_0_ITLB_total_MPKI 0
Core_0_ITLB_total_miss_rate 0
Core_0_ITLB_demand_access 1711280
Core_0_ITLB_demand_hit 1711280
Core_0_ITLB_demand_miss 0
Core_0_ITLB_demand_MPKI 0
Core_0_ITLB_demand_miss_rate 0
Core_0_ITLB_load_access 1711280
Core_0_ITLB_load_hit 1711280
Core_0_ITLB_load_miss 0
Core_0_ITLB_load_MPKI 0
Core_0_ITLB_load_miss_rate 0
Core_0_ITLB_rfo_access 0
Core_0_ITLB_rfo_hit 0
Core_0_ITLB_rfo_miss 0
Core_0_ITLB_rfo_MPKI 0
Core_0_ITLB_rfo_miss_rate 0
Core_0_ITLB_prefetch_access 0
Core_0_ITLB_prefetch_hit 0
Core_0_ITLB_prefetch_miss 0
Core_0_ITLB_prefetch_MPKI 0
Core_0_ITLB_prefetch_miss_rate 0
Core_0_ITLB_writeback_access 0
Core_0_ITLB_writeback_hit 0
Core_0_ITLB_writeback_miss 0
Core_0_ITLB_writeback_MPKI 0
Core_0_ITLB_writeback_miss_rate 0
Core_0_ITLB_prefetch_requested 0
Core_0_ITLB_prefetch_issued 0
Core_0_ITLB_prefetch_useful 0
Core_0_ITLB_prefetch_useless 0
Core_0_ITLB_prefetch_late 0
Core_0_ITLB_prefetch_accuracy 0
Core_0_ITLB_prefetch_coverage 0

Core_0_DTLB_total_access 14664813
Core_0_DTLB_total_hit 10427094
Core_0_DTLB_total_miss 4237719
Core_0_DTLB_total_MPKI 84.7544
Core_0_DTLB_total_miss_rate 0.288972
Core_0_DTLB_demand_access 14664813
Core_0_DTLB_demand_hit 10427094
Core_0_DTLB_demand_miss 4237719
Core_0_DTLB_demand_MPKI 84.7544
Core_0_DTLB_demand_miss_rate 0.288972
Core_0_DTLB_load_access 14664813
Core_0_DTLB_load_hit 10427094
Core_0_DTLB_load_miss 4237719
Core_0_DTLB_load_MPKI 84.7544
Core_0_DTLB_load_miss_rate 0.288972
Core_0_DTLB_rfo_access 0
Core_0_DTLB_rfo_hit 0
Core_0_DTLB_rfo_miss 0
Core_0_DTLB_rfo_MPKI 0
Core_0_DTLB_rfo_miss_rate 0
Core_0_DTLB_prefetch_access 0
Core_0_DTLB_prefetch_hit 0
Core_0_DTLB_prefetch_miss 0
Core_0_DTLB_prefetch_MPKI 0
Core_0_DTLB_prefetch_miss_rate 0
Core_0_DTLB_writeback_access 0
Core_0_DTLB_writeback_hit 0
Core_0_DTLB_writeback_miss 0
Core_0_DTLB_writeback_MPKI 0
Core_0_DTLB_writeback_miss_rate 0
Core_0_DTLB_prefetch_requested 0
Core_0_DTLB_prefetch_issued 0
Core_0_DTLB_prefetch_useful 0
Core_0_DTLB_prefetch_useless 0
Core_0_DTLB_prefetch_late 0
Core_0_DTLB_prefetch_accuracy 0
Core_0_DTLB_prefetch_coverage 0

Core_0_STLB_total_access 4004151
Core_0_STLB_total_hit 3992374
Core_0_STLB_total_miss 11777
Core_0_STLB_total_MPKI 0.23554
Core_0_STLB_total_miss_rate 0.0029412
Core_0_STLB_demand_access 4004151
Core_0_STLB_demand_hit 3992374
Core_0_STLB_demand_miss 11777
Core_0_STLB_demand_MPKI 0.23554
Core_0_STLB_demand_miss_rate 0.0029412
Core_0_STLB_load_access 4004151
Core_0_STLB_load_hit 3992374
Core_0_STLB_load_miss 11777
Core_0_STLB_load_MPKI 0.23554
Core_0_STLB_load_miss_rate 0.0029412
Core_0_STLB_rfo_access 0
Core_0_STLB_rfo_hit 0
Core_0_STLB_rfo_miss 0
Core_0_STLB_rfo_MPKI 0
Core_0_STLB_rfo_miss_rate 0
Core_0_STLB_prefetch_access 0
Core_0_STLB_prefetch_hit 0
Core_0_STLB_prefetch_miss 0
Core_0_STLB_prefetch_MPKI 0
Core_0_STLB_prefetch_miss_rate 0
Core_0_STLB_writeback_access 0
Core_0_STLB_writeback_hit 0
Core_0_STLB_writeback_miss 0
Core_0_STLB_writeback_MPKI 0
Core_0_STLB_writeback_miss_rate 0
Core_0_STLB_prefetch_requested 0
Core_0_STLB_prefetch_issued 0
Core_0_STLB_prefetch_useful 0
Core_0_STLB_prefetch_useless 0
Core_0_STLB_prefetch_late 0
Core_0_STLB_prefetch_accuracy 0
Core_0_STLB_prefetch_coverage 0

Core_0_L1I_total_access 1776330
Core_0_L1I_total_hit 1776330
Core_0_L1I_total_miss 0
Core_0_L1I_total_MPKI 0
Core_0_L1I_total_miss_rate 0
Core_0_L1I_demand_access 1776330
Core_0_L1I_demand_hit 1776330
Core_0_L1I_demand_miss 0
Core_0_L1I_demand_MPKI 0
Core_0_L1I_demand_miss_rate 0
Core_0_L1I_load_access 1776330
Core_0_L1I_load_hit 1776330
Core_0_L1I_load_miss 0
Core_0_L1I_load_MPKI 0
Core_0_L1I_load_miss_rate 0
Core_0_L1I_rfo_access 0
Core_0_L1I_rfo_hit 0
Core_0_L1I_rfo_miss 0
Core_0_L1I_rfo_MPKI 0
Core_0_L1I_rfo_miss_rate 0
Core_0_L1I_prefetch_access 0
Core_0_L1I_prefetch_hit 0
Core_0_L1I_prefetch_miss 0
Core_0_L1I_prefetch_MPKI 0
Core_0_L1I_prefetch_miss_rate 0
Core_0_L1I_writeback_access 0
Core_0_L1I_writeback_hit 0
Core_0_L1I_writeback_miss 0
Core_0_L1I_writeback_MPKI 0
Core_0_L1I_writeback_miss_rate 0
Core_0_L1I_prefetch_requested 0
Core_0_L1I_prefetch_issued 0
Core_0_L1I_prefetch_useful 0
Core_0_L1I_prefetch_useless 0
Core_0_L1I_prefetch_late 0
Core_0_L1I_prefetch_accuracy 0
Core_0_L1I_prefetch_coverage 0

Core_0_L1D_total_access 14831766
Core_0_L1D_total_hit 10256695
Core_0_L1D_total_miss 4575071
Core_0_L1D_total_MPKI 91.5014
Core_0_L1D_total_miss_rate 0.308464
Core_0_L1D_demand_access 11523623
Core_0_L1D_demand_hit 7414293
Core_0_L1D_demand_miss 4109330
Core_0_L1D_demand_MPKI 82.1866
Core_0_L1D_demand_miss_rate 0.356601
Core_0_L1D_load_access 11523623
Core_0_L1D_load_hit 7414293
Core_0_L1D_load_miss 4109330
Core_0_L1D_load_MPKI 82.1866
Core_0_L1D_load_miss_rate 0.356601
Core_0_L1D_rfo_access 0
Core_0_L1D_rfo_hit 0
Core_0_L1D_rfo_miss 0
Core_0_L1D_rfo_MPKI 0
Core_0_L1D_rfo_miss_rate 0
Core_0_L1D_prefetch_access 863058
Core_0_L1D_prefetch_hit 397351
Core_0_L1D_prefetch_miss 465707
Core_0_L1D_prefetch_MPKI 9.31414
Core_0_L1D_prefetch_miss_rate 0.539601
Core_0_L1D_writeback_access 2445085
Core_0_L1D_writeback_hit 2445051
Core_0_L1D_writeback_miss 34
Core_0_L1D_writeback_MPKI 0.00068
Core_0_L1D_writeback_miss_rate 1.39054e-05
Core_0_L1D_prefetch_requested 879717
Core_0_L1D_prefetch_issued 863055
Core_0_L1D_prefetch_useful 188445
Core_0_L1D_prefetch_useless 262647
Core_0_L1D_prefetch_late 11137
Core_0_L1D_prefetch_accuracy 0.218346
Core_0_L1D_prefetch_coverage 0.0438471

Core_0_L2C_total_access 4607396
Core_0_L2C_total_hit 1068629
Core_0_L2C_total_miss 3538767
Core_0_L2C_total_MPKI 70.7753
Core_0_L2C_total_miss_rate 0.768062
Core_0_L2C_demand_access 3890073
Core_0_L2C_demand_hit 832234
Core_0_L2C_demand_miss 3057839
Core_0_L2C_demand_MPKI 61.1568
Core_0_L2C_demand_miss_rate 0.786062
Core_0_L2C_load_access 3890055
Core_0_L2C_load_hit 832216
Core_0_L2C_load_miss 3057839
Core_0_L2C_load_MPKI 61.1568
Core_0_L2C_load_miss_rate 0.786066
Core_0_L2C_rfo_access 18
Core_0_L2C_rfo_hit 18
Core_0_L2C_rfo_miss 0
Core_0_L2C_rfo_MPKI 0
Core_0_L2C_rfo_miss_rate 0
Core_0_L2C_prefetch_access 692588
Core_0_L2C_prefetch_hit 211660
Core_0_L2C_prefetch_miss 480928
Core_0_L2C_prefetch_MPKI 9.61856
Core_0_L2C_prefetch_miss_rate 0.694393
Core_0_L2C_writeback_access 24735
Core_0_L2C_writeback_hit 24735
Core_0_L2C_writeback_miss 0
Core_0_L2C_writeback_MPKI 0
Core_0_L2C_writeback_miss_rate 0
Core_0_L2C_prefetch_requested 241529
Core_0_L2C_prefetch_issued 241529
Core_0_L2C_prefetch_useful 93608
Core_0_L2C_prefetch_useless 23285
Core_0_L2C_prefetch_late 2714
Core_0_L2C_prefetch_accuracy 0.387564
Core_0_L2C_prefetch_coverage 0.0297032

Core_0_LLC_total_access 3537074
Core_0_LLC_total_hit 977029
Core_0_LLC_total_miss 2560045
Core_0_LLC_total_MPKI 51.2009
Core_0_LLC_total_miss_rate 0.723775
Core_0_LLC_demand_access 3055123
Core_0_LLC_demand_hit 892056
Core_0_LLC_demand_miss 2163067
Core_0_LLC_demand_MPKI 43.2613
Core_0_LLC_demand_miss_rate 0.708013
Core_0_LLC_load_access 3055123
Core_0_LLC_load_hit 892056
Core_0_LLC_load_miss 2163067
Core_0_LLC_load_MPKI 43.2613
Core_0_LLC_load_miss_rate 0.708013
Core_0_LLC_rfo_access 0
Core_0_LLC_rfo_hit 0
Core_0_LLC_rfo_miss 0
Core_0_LLC_rfo_MPKI 0
Core_0_LLC_rfo_miss_rate 0
Core_0_LLC_prefetch_access 457241
Core_0_LLC_prefetch_hit 76140
Core_0_LLC_prefetch_miss 381101
Core_0_LLC_prefetch_MPKI 7.62202
Core_0_LLC_prefetch_miss_rate 0.833479
Core_0_LLC_writeback_access 24710
Core_0_LLC_writeback_hit 8833
Core_0_LLC_writeback_miss 15877
Core_0_LLC_writeback_MPKI 0.31754
Core_0_LLC_writeback_miss_rate 0.642533
Core_0_LLC_prefetch_requested 0
Core_0_LLC_prefetch_issued 0
Core_0_LLC_prefetch_useful 0
Core_0_LLC_prefetch_useless 0
Core_0_LLC_prefetch_late 0
Core_0_LLC_prefetch_accuracy 0
Core_0_LLC_prefetch_coverage 0

[DRAM Statistics]
Channel_0_RQ_row_buffer_hit 4264
Channel_0_RQ_row_buffer_miss 2546145
Channel_0_WQ_row_buffer_hit 5297
Channel_0_WQ_row_buffer_miss 18163
Channel_0_WQ_full 0
Channel_0_dbus_congested 4351738
DRAM_total_RQ_row_buffer_hit 4264
DRAM_total_RQ_row_buffer_miss 2546145
DRAM_total_WQ_row_buffer_hit 5297
DRAM_total_WQ_row_buffer_miss 18163
DRAM_total_WQ_full 0
DRAM_total_dbus_congested 4351738
DRAM_avg_congested_cycle 3.33502

======STLB miss causes ========
Core_0_STLB_miss_cause_breakdown
Core_0_STLB_cause_Demand_Data_miss 0
Core_0_STLB_cause_Demand_Data_miss_rate 0
Core_0_STLB_cause_Demand_Instruction_miss 0
Core_0_STLB_cause_Demand_Instruction_miss_rate 0
Core_0_STLB_cause_L1D_Prefetch_miss 11777
Core_0_STLB_cause_L1D_Prefetch_miss_rate 0.0029412
Core_0_STLB_cause_L1I_Prefetch_miss 0
Core_0_STLB_cause_L1I_Prefetch_miss_rate 0
Core_0_STLB_cause_Other_miss 0
Core_0_STLB_cause_Other_miss_rate 0
Core_0_STLB_Demand_miss 0
Core_0_STLB_Demand_miss_rate 0
Core_0_STLB_L1D_Prefetch_miss 11777
Core_0_STLB_L1D_Prefetch_miss_rate 0.0029412
Core_0_STLB_Other_miss 0
Core_0_STLB_Other_miss_rate 0
