[VMEM] WARNING: physical memory size is smaller than virtual memory size.

*** ChampSim Multicore Out-of-Order Simulator ***
Warmup Instructions: 20000000
Simulation Instructions: 50000000
Number of CPUs: 1
Page size: 4096
STLB ideal mode: demand
STLB ideal fill: on
Core 0: /data0/tzh/champsim_traces/Ligra/ligra_BellmanFord.com-lj.ungraph.gcc_6.3.0_O3.drop_33750M.length_250M.champsimtrace.xz
 L1D Berti prefetcher
Off-chip DRAM Size: 16 GiB Channels: 1 Width: 64-bit Data Rate: 3205 MT/s
Warmup halting CPU 0 at instruction 20000000 cycle 4152110 for remainder of phase
Warmup finished CPU 0 instructions: 20000000 cycles: 4152110 cumulative IPC: 4.817 (Simulation time: 00 hr 00 min 56 sec)
Warmup complete CPU 0 instructions: 20000000 cycles: 4152110 cumulative IPC: 4.817 (Simulation time: 00 hr 00 min 56 sec)
Simulation finished CPU 0 instructions: 50000001 cycles: 100864208 cumulative IPC: 0.4957 (Simulation time: 00 hr 08 min 51 sec)
Simulation complete CPU 0 instructions: 50000001 cycles: 100864208 cumulative IPC: 0.4957 (Simulation time: 00 hr 08 min 51 sec)

ChampSim completed all CPUs

=== Simulation ===
CPU 0 runs /data0/tzh/champsim_traces/Ligra/ligra_BellmanFord.com-lj.ungraph.gcc_6.3.0_O3.drop_33750M.length_250M.champsimtrace.xz

Region of Interest Statistics

CPU 0 cumulative IPC: 0.4957 instructions: 50000001 cycles: 100864208
CPU 0 Branch Prediction Accuracy: 93.04% MPKI: 9.926 Average ROB Occupancy at Mispredict: 53.28
Branch type MPKI
BRANCH_DIRECT_JUMP: 0.4477
BRANCH_INDIRECT: 0
BRANCH_CONDITIONAL: 9.478
BRANCH_DIRECT_CALL: 0
BRANCH_INDIRECT_CALL: 0
BRANCH_RETURN: 0

cpu0->cpu0_STLB TOTAL        ACCESS:    1005144 HIT:     993629 MISS:      11515 MSHR_MERGE:          0
cpu0->cpu0_STLB LOAD         ACCESS:    1005144 HIT:     993629 MISS:      11515 MSHR_MERGE:          0
cpu0->cpu0_STLB RFO          ACCESS:          0 HIT:          0 MISS:          0 MSHR_MERGE:          0
cpu0->cpu0_STLB PREFETCH     ACCESS:          0 HIT:          0 MISS:          0 MSHR_MERGE:          0
cpu0->cpu0_STLB WRITE        ACCESS:          0 HIT:          0 MISS:          0 MSHR_MERGE:          0
cpu0->cpu0_STLB TRANSLATION  ACCESS:          0 HIT:          0 MISS:          0 MSHR_MERGE:          0
cpu0->cpu0_STLB PREFETCH REQUESTED:          0 ISSUED:          0 USEFUL:          0 USELESS:          0 LATE:          0
cpu0->cpu0_STLB AVERAGE MISS LATENCY: 254.9 cycles
cpu0->cpu0_L2C TOTAL        ACCESS:    2609016 HIT:     559206 MISS:    2049810 MSHR_MERGE:     148001
cpu0->cpu0_L2C LOAD         ACCESS:    1359734 HIT:     201845 MISS:    1157889 MSHR_MERGE:       5577
cpu0->cpu0_L2C RFO          ACCESS:      39834 HIT:       4001 MISS:      35833 MSHR_MERGE:          0
cpu0->cpu0_L2C PREFETCH     ACCESS:    1066800 HIT:     217608 MISS:     849192 MSHR_MERGE:     142424
cpu0->cpu0_L2C WRITE        ACCESS:     134372 HIT:     134343 MISS:         29 MSHR_MERGE:          0
cpu0->cpu0_L2C TRANSLATION  ACCESS:       8276 HIT:       1409 MISS:       6867 MSHR_MERGE:          0
cpu0->cpu0_L2C PREFETCH REQUESTED:     411690 ISSUED:     411690 USEFUL:     139381 USELESS:      93656 LATE:       5577
cpu0->cpu0_L2C AVERAGE MISS LATENCY: 199.6 cycles
cpu0->cpu0_L1I TOTAL        ACCESS:    1022054 HIT:    1022052 MISS:          2 MSHR_MERGE:          0
cpu0->cpu0_L1I LOAD         ACCESS:    1022054 HIT:    1022052 MISS:          2 MSHR_MERGE:          0
cpu0->cpu0_L1I RFO          ACCESS:          0 HIT:          0 MISS:          0 MSHR_MERGE:          0
cpu0->cpu0_L1I PREFETCH     ACCESS:          0 HIT:          0 MISS:          0 MSHR_MERGE:          0
cpu0->cpu0_L1I WRITE        ACCESS:          0 HIT:          0 MISS:          0 MSHR_MERGE:          0
cpu0->cpu0_L1I TRANSLATION  ACCESS:          0 HIT:          0 MISS:          0 MSHR_MERGE:          0
cpu0->cpu0_L1I PREFETCH REQUESTED:          0 ISSUED:          0 USEFUL:          0 USELESS:          0 LATE:          0
cpu0->cpu0_L1I AVERAGE MISS LATENCY: 196 cycles
cpu0->cpu0_L1D TOTAL        ACCESS:   13076481 HIT:   10013328 MISS:    3063153 MSHR_MERGE:    1000201
cpu0->cpu0_L1D LOAD         ACCESS:   12041491 HIT:    9699475 MISS:    2342016 MSHR_MERGE:     982284
cpu0->cpu0_L1D RFO          ACCESS:          0 HIT:          0 MISS:          0 MSHR_MERGE:          0
cpu0->cpu0_L1D PREFETCH     ACCESS:     783852 HIT:     120573 MISS:     663279 MSHR_MERGE:       8169
cpu0->cpu0_L1D WRITE        ACCESS:     228077 HIT:     178496 MISS:      49581 MSHR_MERGE:       9747
cpu0->cpu0_L1D TRANSLATION  ACCESS:      23061 HIT:      14784 MISS:       8277 MSHR_MERGE:          1
cpu0->cpu0_L1D PREFETCH REQUESTED:     784407 ISSUED:     783849 USEFUL:     384612 USELESS:     270521 LATE:      34821
cpu0->cpu0_L1D AVERAGE MISS LATENCY: 178 cycles
cpu0->cpu0_ITLB TOTAL        ACCESS:    1022052 HIT:    1022052 MISS:          0 MSHR_MERGE:          0
cpu0->cpu0_ITLB LOAD         ACCESS:    1022052 HIT:    1022052 MISS:          0 MSHR_MERGE:          0
cpu0->cpu0_ITLB RFO          ACCESS:          0 HIT:          0 MISS:          0 MSHR_MERGE:          0
cpu0->cpu0_ITLB PREFETCH     ACCESS:          0 HIT:          0 MISS:          0 MSHR_MERGE:          0
cpu0->cpu0_ITLB WRITE        ACCESS:          0 HIT:          0 MISS:          0 MSHR_MERGE:          0
cpu0->cpu0_ITLB TRANSLATION  ACCESS:          0 HIT:          0 MISS:          0 MSHR_MERGE:          0
cpu0->cpu0_ITLB PREFETCH REQUESTED:          0 ISSUED:          0 USEFUL:          0 USELESS:          0 LATE:          0
cpu0->cpu0_ITLB AVERAGE MISS LATENCY: - cycles
cpu0->cpu0_DTLB TOTAL        ACCESS:   12829030 HIT:   11717010 MISS:    1112020 MSHR_MERGE:     106876
cpu0->cpu0_DTLB LOAD         ACCESS:   12829030 HIT:   11717010 MISS:    1112020 MSHR_MERGE:     106876
cpu0->cpu0_DTLB RFO          ACCESS:          0 HIT:          0 MISS:          0 MSHR_MERGE:          0
cpu0->cpu0_DTLB PREFETCH     ACCESS:          0 HIT:          0 MISS:          0 MSHR_MERGE:          0
cpu0->cpu0_DTLB WRITE        ACCESS:          0 HIT:          0 MISS:          0 MSHR_MERGE:          0
cpu0->cpu0_DTLB TRANSLATION  ACCESS:          0 HIT:          0 MISS:          0 MSHR_MERGE:          0
cpu0->cpu0_DTLB PREFETCH REQUESTED:          0 ISSUED:          0 USEFUL:          0 USELESS:          0 LATE:          0
cpu0->cpu0_DTLB AVERAGE MISS LATENCY: 7.933 cycles
cpu0->LLC TOTAL        ACCESS:    2024694 HIT:     298990 MISS:    1725704 MSHR_MERGE:        209
cpu0->LLC LOAD         ACCESS:    1152312 HIT:     227677 MISS:     924635 MSHR_MERGE:         21
cpu0->LLC RFO          ACCESS:      35833 HIT:       3215 MISS:      32618 MSHR_MERGE:          0
cpu0->LLC PREFETCH     ACCESS:     706768 HIT:      35748 MISS:     671020 MSHR_MERGE:        188
cpu0->LLC WRITE        ACCESS:     122914 HIT:      31068 MISS:      91846 MSHR_MERGE:          0
cpu0->LLC TRANSLATION  ACCESS:       6867 HIT:       1282 MISS:       5585 MSHR_MERGE:          0
cpu0->LLC PREFETCH REQUESTED:          0 ISSUED:          0 USEFUL:          0 USELESS:          0 LATE:          0
cpu0->LLC AVERAGE MISS LATENCY: 209.3 cycles

DRAM Statistics

Channel 0 RQ ROW_BUFFER_HIT:      28415
  ROW_BUFFER_MISS:    1605198
  AVG DBUS CONGESTED CYCLE: 10.17
Channel 0 WQ ROW_BUFFER_HIT:      36737
  ROW_BUFFER_MISS:      65160
  FULL:          0
Channel 0 REFRESHES ISSUED:       8405

[ROI Statistics]
[System Configuration]
num_cpus 1
cpu_freq 4000
fetch_width 6
decode_width 6
dispatch_width 6
execute_width 6
lq_width 2
sq_width 2
retire_width 6
scheduler_size 128
branch_mispredict_penalty 15
rob_size 352
lq_size 128
sq_size 72
ifetch_buffer_size 64
decode_buffer_size 32
dispatch_buffer_size 32
register_file_size 288
decode_latency 1
dispatch_latency 1
schedule_latency 1
execute_latency 1
page_size 4096
block_size 64
core_0_itlb_set 16
core_0_itlb_way 4
core_0_itlb_rq_size 16
core_0_itlb_wq_size 16
core_0_itlb_pq_size 0
core_0_itlb_mshr_size 8
core_0_itlb_hit_latency 1
core_0_itlb_fill_latency 1
core_0_itlb_max_tag_check 2
core_0_itlb_max_fill 2
core_0_dtlb_set 16
core_0_dtlb_way 4
core_0_dtlb_rq_size 16
core_0_dtlb_wq_size 16
core_0_dtlb_pq_size 0
core_0_dtlb_mshr_size 8
core_0_dtlb_hit_latency 1
core_0_dtlb_fill_latency 1
core_0_dtlb_max_tag_check 2
core_0_dtlb_max_fill 2
core_0_stlb_set 128
core_0_stlb_way 12
core_0_stlb_rq_size 32
core_0_stlb_wq_size 32
core_0_stlb_pq_size 0
core_0_stlb_mshr_size 16
core_0_stlb_hit_latency 4
core_0_stlb_fill_latency 4
core_0_stlb_max_tag_check 1
core_0_stlb_max_fill 1
core_0_l1i_set 64
core_0_l1i_way 8
core_0_l1i_rq_size 64
core_0_l1i_wq_size 64
core_0_l1i_pq_size 32
core_0_l1i_mshr_size 8
core_0_l1i_hit_latency 2
core_0_l1i_fill_latency 2
core_0_l1i_max_tag_check 2
core_0_l1i_max_fill 2
core_0_l1d_set 64
core_0_l1d_way 12
core_0_l1d_rq_size 64
core_0_l1d_wq_size 64
core_0_l1d_pq_size 8
core_0_l1d_mshr_size 16
core_0_l1d_hit_latency 2
core_0_l1d_fill_latency 3
core_0_l1d_max_tag_check 2
core_0_l1d_max_fill 2
core_0_l2c_set 1024
core_0_l2c_way 8
core_0_l2c_rq_size 32
core_0_l2c_wq_size 32
core_0_l2c_pq_size 16
core_0_l2c_mshr_size 32
core_0_l2c_hit_latency 5
core_0_l2c_fill_latency 5
core_0_l2c_max_tag_check 1
core_0_l2c_max_fill 1
llc_set 2048
llc_way 16
llc_rq_size 32
llc_wq_size 32
llc_pq_size 32
llc_mshr_size 64
llc_hit_latency 10
llc_fill_latency 10
llc_max_tag_check 1
llc_max_fill 1
dram_channels 1
dram_ranks 1
dram_bankgroups 8
dram_banks 4
dram_rows 65536
dram_columns 1024
dram_channel_width 8
dram_rq_size 64
dram_wq_size 64
dram_size 17179869184
core_0_itlb_prefetcher no
core_0_dtlb_prefetcher no
core_0_stlb_prefetcher no
core_0_l1i_prefetcher next_line
core_0_l1d_prefetcher berti
core_0_l2c_prefetcher ip_stride
llc_prefetcher no
llc_replacement drrip

Core_0_instructions 50000001
Core_0_cycles 100864208
Core_0_IPC 0.495716
Core_0_branch_prediction_accuracy 93.0446
Core_0_branch_MPKI 9.92622
Core_0_average_ROB_occupancy_at_mispredict 53.278

Core_0_ITLB_total_access 1022052
Core_0_ITLB_total_hit 1022052
Core_0_ITLB_total_miss 0
Core_0_ITLB_total_MPKI 0
Core_0_ITLB_total_miss_rate 0
Core_0_ITLB_demand_access 1022052
Core_0_ITLB_demand_hit 1022052
Core_0_ITLB_demand_miss 0
Core_0_ITLB_demand_MPKI 0
Core_0_ITLB_demand_miss_rate 0
Core_0_ITLB_load_access 1022052
Core_0_ITLB_load_hit 1022052
Core_0_ITLB_load_miss 0
Core_0_ITLB_load_MPKI 0
Core_0_ITLB_load_miss_rate 0
Core_0_ITLB_rfo_access 0
Core_0_ITLB_rfo_hit 0
Core_0_ITLB_rfo_miss 0
Core_0_ITLB_rfo_MPKI 0
Core_0_ITLB_rfo_miss_rate 0
Core_0_ITLB_prefetch_access 0
Core_0_ITLB_prefetch_hit 0
Core_0_ITLB_prefetch_miss 0
Core_0_ITLB_prefetch_MPKI 0
Core_0_ITLB_prefetch_miss_rate 0
Core_0_ITLB_writeback_access 0
Core_0_ITLB_writeback_hit 0
Core_0_ITLB_writeback_miss 0
Core_0_ITLB_writeback_MPKI 0
Core_0_ITLB_writeback_miss_rate 0
Core_0_ITLB_prefetch_requested 0
Core_0_ITLB_prefetch_issued 0
Core_0_ITLB_prefetch_useful 0
Core_0_ITLB_prefetch_useless 0
Core_0_ITLB_prefetch_late 0
Core_0_ITLB_prefetch_accuracy 0
Core_0_ITLB_prefetch_coverage 0

Core_0_DTLB_total_access 12829030
Core_0_DTLB_total_hit 11717010
Core_0_DTLB_total_miss 1112020
Core_0_DTLB_total_MPKI 22.2404
Core_0_DTLB_total_miss_rate 0.08668
Core_0_DTLB_demand_access 12829030
Core_0_DTLB_demand_hit 11717010
Core_0_DTLB_demand_miss 1112020
Core_0_DTLB_demand_MPKI 22.2404
Core_0_DTLB_demand_miss_rate 0.08668
Core_0_DTLB_load_access 12829030
Core_0_DTLB_load_hit 11717010
Core_0_DTLB_load_miss 1112020
Core_0_DTLB_load_MPKI 22.2404
Core_0_DTLB_load_miss_rate 0.08668
Core_0_DTLB_rfo_access 0
Core_0_DTLB_rfo_hit 0
Core_0_DTLB_rfo_miss 0
Core_0_DTLB_rfo_MPKI 0
Core_0_DTLB_rfo_miss_rate 0
Core_0_DTLB_prefetch_access 0
Core_0_DTLB_prefetch_hit 0
Core_0_DTLB_prefetch_miss 0
Core_0_DTLB_prefetch_MPKI 0
Core_0_DTLB_prefetch_miss_rate 0
Core_0_DTLB_writeback_access 0
Core_0_DTLB_writeback_hit 0
Core_0_DTLB_writeback_miss 0
Core_0_DTLB_writeback_MPKI 0
Core_0_DTLB_writeback_miss_rate 0
Core_0_DTLB_prefetch_requested 0
Core_0_DTLB_prefetch_issued 0
Core_0_DTLB_prefetch_useful 0
Core_0_DTLB_prefetch_useless 0
Core_0_DTLB_prefetch_late 0
Core_0_DTLB_prefetch_accuracy 0
Core_0_DTLB_prefetch_coverage 0

Core_0_STLB_total_access 1005144
Core_0_STLB_total_hit 993629
Core_0_STLB_total_miss 11515
Core_0_STLB_total_MPKI 0.2303
Core_0_STLB_total_miss_rate 0.0114561
Core_0_STLB_demand_access 1005144
Core_0_STLB_demand_hit 993629
Core_0_STLB_demand_miss 11515
Core_0_STLB_demand_MPKI 0.2303
Core_0_STLB_demand_miss_rate 0.0114561
Core_0_STLB_load_access 1005144
Core_0_STLB_load_hit 993629
Core_0_STLB_load_miss 11515
Core_0_STLB_load_MPKI 0.2303
Core_0_STLB_load_miss_rate 0.0114561
Core_0_STLB_rfo_access 0
Core_0_STLB_rfo_hit 0
Core_0_STLB_rfo_miss 0
Core_0_STLB_rfo_MPKI 0
Core_0_STLB_rfo_miss_rate 0
Core_0_STLB_prefetch_access 0
Core_0_STLB_prefetch_hit 0
Core_0_STLB_prefetch_miss 0
Core_0_STLB_prefetch_MPKI 0
Core_0_STLB_prefetch_miss_rate 0
Core_0_STLB_writeback_access 0
Core_0_STLB_writeback_hit 0
Core_0_STLB_writeback_miss 0
Core_0_STLB_writeback_MPKI 0
Core_0_STLB_writeback_miss_rate 0
Core_0_STLB_prefetch_requested 0
Core_0_STLB_prefetch_issued 0
Core_0_STLB_prefetch_useful 0
Core_0_STLB_prefetch_useless 0
Core_0_STLB_prefetch_late 0
Core_0_STLB_prefetch_accuracy 0
Core_0_STLB_prefetch_coverage 0

Core_0_L1I_total_access 1022054
Core_0_L1I_total_hit 1022052
Core_0_L1I_total_miss 2
Core_0_L1I_total_MPKI 4e-05
Core_0_L1I_total_miss_rate 1.95684e-06
Core_0_L1I_demand_access 1022054
Core_0_L1I_demand_hit 1022052
Core_0_L1I_demand_miss 2
Core_0_L1I_demand_MPKI 4e-05
Core_0_L1I_demand_miss_rate 1.95684e-06
Core_0_L1I_load_access 1022054
Core_0_L1I_load_hit 1022052
Core_0_L1I_load_miss 2
Core_0_L1I_load_MPKI 4e-05
Core_0_L1I_load_miss_rate 1.95684e-06
Core_0_L1I_rfo_access 0
Core_0_L1I_rfo_hit 0
Core_0_L1I_rfo_miss 0
Core_0_L1I_rfo_MPKI 0
Core_0_L1I_rfo_miss_rate 0
Core_0_L1I_prefetch_access 0
Core_0_L1I_prefetch_hit 0
Core_0_L1I_prefetch_miss 0
Core_0_L1I_prefetch_MPKI 0
Core_0_L1I_prefetch_miss_rate 0
Core_0_L1I_writeback_access 0
Core_0_L1I_writeback_hit 0
Core_0_L1I_writeback_miss 0
Core_0_L1I_writeback_MPKI 0
Core_0_L1I_writeback_miss_rate 0
Core_0_L1I_prefetch_requested 0
Core_0_L1I_prefetch_issued 0
Core_0_L1I_prefetch_useful 0
Core_0_L1I_prefetch_useless 0
Core_0_L1I_prefetch_late 0
Core_0_L1I_prefetch_accuracy 0
Core_0_L1I_prefetch_coverage 0

Core_0_L1D_total_access 13053420
Core_0_L1D_total_hit 9998544
Core_0_L1D_total_miss 3054876
Core_0_L1D_total_MPKI 61.0975
Core_0_L1D_total_miss_rate 0.234029
Core_0_L1D_demand_access 12041491
Core_0_L1D_demand_hit 9699475
Core_0_L1D_demand_miss 2342016
Core_0_L1D_demand_MPKI 46.8403
Core_0_L1D_demand_miss_rate 0.194496
Core_0_L1D_load_access 12041491
Core_0_L1D_load_hit 9699475
Core_0_L1D_load_miss 2342016
Core_0_L1D_load_MPKI 46.8403
Core_0_L1D_load_miss_rate 0.194496
Core_0_L1D_rfo_access 0
Core_0_L1D_rfo_hit 0
Core_0_L1D_rfo_miss 0
Core_0_L1D_rfo_MPKI 0
Core_0_L1D_rfo_miss_rate 0
Core_0_L1D_prefetch_access 783852
Core_0_L1D_prefetch_hit 120573
Core_0_L1D_prefetch_miss 663279
Core_0_L1D_prefetch_MPKI 13.2656
Core_0_L1D_prefetch_miss_rate 0.846179
Core_0_L1D_writeback_access 228077
Core_0_L1D_writeback_hit 178496
Core_0_L1D_writeback_miss 49581
Core_0_L1D_writeback_MPKI 0.99162
Core_0_L1D_writeback_miss_rate 0.217387
Core_0_L1D_prefetch_requested 784407
Core_0_L1D_prefetch_issued 783849
Core_0_L1D_prefetch_useful 384612
Core_0_L1D_prefetch_useless 270521
Core_0_L1D_prefetch_late 34821
Core_0_L1D_prefetch_accuracy 0.490671
Core_0_L1D_prefetch_coverage 0.141058

Core_0_L2C_total_access 2600740
Core_0_L2C_total_hit 557797
Core_0_L2C_total_miss 2042943
Core_0_L2C_total_MPKI 40.8589
Core_0_L2C_total_miss_rate 0.785524
Core_0_L2C_demand_access 1399568
Core_0_L2C_demand_hit 205846
Core_0_L2C_demand_miss 1193722
Core_0_L2C_demand_MPKI 23.8744
Core_0_L2C_demand_miss_rate 0.852922
Core_0_L2C_load_access 1359734
Core_0_L2C_load_hit 201845
Core_0_L2C_load_miss 1157889
Core_0_L2C_load_MPKI 23.1578
Core_0_L2C_load_miss_rate 0.851556
Core_0_L2C_rfo_access 39834
Core_0_L2C_rfo_hit 4001
Core_0_L2C_rfo_miss 35833
Core_0_L2C_rfo_MPKI 0.71666
Core_0_L2C_rfo_miss_rate 0.899558
Core_0_L2C_prefetch_access 1066800
Core_0_L2C_prefetch_hit 217608
Core_0_L2C_prefetch_miss 849192
Core_0_L2C_prefetch_MPKI 16.9838
Core_0_L2C_prefetch_miss_rate 0.796018
Core_0_L2C_writeback_access 134372
Core_0_L2C_writeback_hit 134343
Core_0_L2C_writeback_miss 29
Core_0_L2C_writeback_MPKI 0.00058
Core_0_L2C_writeback_miss_rate 0.000215819
Core_0_L2C_prefetch_requested 411690
Core_0_L2C_prefetch_issued 411690
Core_0_L2C_prefetch_useful 139381
Core_0_L2C_prefetch_useless 93656
Core_0_L2C_prefetch_late 5577
Core_0_L2C_prefetch_accuracy 0.338558
Core_0_L2C_prefetch_coverage 0.104554

Core_0_LLC_total_access 2017827
Core_0_LLC_total_hit 297708
Core_0_LLC_total_miss 1720119
Core_0_LLC_total_MPKI 34.4024
Core_0_LLC_total_miss_rate 0.852461
Core_0_LLC_demand_access 1188145
Core_0_LLC_demand_hit 230892
Core_0_LLC_demand_miss 957253
Core_0_LLC_demand_MPKI 19.1451
Core_0_LLC_demand_miss_rate 0.80567
Core_0_LLC_load_access 1152312
Core_0_LLC_load_hit 227677
Core_0_LLC_load_miss 924635
Core_0_LLC_load_MPKI 18.4927
Core_0_LLC_load_miss_rate 0.802417
Core_0_LLC_rfo_access 35833
Core_0_LLC_rfo_hit 3215
Core_0_LLC_rfo_miss 32618
Core_0_LLC_rfo_MPKI 0.65236
Core_0_LLC_rfo_miss_rate 0.910278
Core_0_LLC_prefetch_access 706768
Core_0_LLC_prefetch_hit 35748
Core_0_LLC_prefetch_miss 671020
Core_0_LLC_prefetch_MPKI 13.4204
Core_0_LLC_prefetch_miss_rate 0.94942
Core_0_LLC_writeback_access 122914
Core_0_LLC_writeback_hit 31068
Core_0_LLC_writeback_miss 91846
Core_0_LLC_writeback_MPKI 1.83692
Core_0_LLC_writeback_miss_rate 0.747238
Core_0_LLC_prefetch_requested 0
Core_0_LLC_prefetch_issued 0
Core_0_LLC_prefetch_useful 0
Core_0_LLC_prefetch_useless 0
Core_0_LLC_prefetch_late 0
Core_0_LLC_prefetch_accuracy 0
Core_0_LLC_prefetch_coverage 0

[DRAM Statistics]
Channel_0_RQ_row_buffer_hit 28415
Channel_0_RQ_row_buffer_miss 1605198
Channel_0_WQ_row_buffer_hit 36737
Channel_0_WQ_row_buffer_miss 65160
Channel_0_WQ_full 0
Channel_0_dbus_congested 3843862
DRAM_total_RQ_row_buffer_hit 28415
DRAM_total_RQ_row_buffer_miss 1605198
DRAM_total_WQ_row_buffer_hit 36737
DRAM_total_WQ_row_buffer_miss 65160
DRAM_total_WQ_full 0
DRAM_total_dbus_congested 3843862
DRAM_avg_congested_cycle 10.1671

======STLB miss causes ========
Core_0_STLB_miss_cause_breakdown
Core_0_STLB_cause_Demand_Data_miss 0
Core_0_STLB_cause_Demand_Data_miss_rate 0
Core_0_STLB_cause_Demand_Instruction_miss 0
Core_0_STLB_cause_Demand_Instruction_miss_rate 0
Core_0_STLB_cause_L1D_Prefetch_miss 11515
Core_0_STLB_cause_L1D_Prefetch_miss_rate 0.0114561
Core_0_STLB_cause_L1I_Prefetch_miss 0
Core_0_STLB_cause_L1I_Prefetch_miss_rate 0
Core_0_STLB_cause_Other_miss 0
Core_0_STLB_cause_Other_miss_rate 0
Core_0_STLB_Demand_miss 0
Core_0_STLB_Demand_miss_rate 0
Core_0_STLB_L1D_Prefetch_miss 11515
Core_0_STLB_L1D_Prefetch_miss_rate 0.0114561
Core_0_STLB_Other_miss 0
Core_0_STLB_Other_miss_rate 0
