[VMEM] WARNING: physical memory size is smaller than virtual memory size.

*** ChampSim Multicore Out-of-Order Simulator ***
Warmup Instructions: 20000000
Simulation Instructions: 50000000
Number of CPUs: 1
Page size: 4096
STLB ideal mode: demand
STLB ideal fill: on
Core 0: /data0/tzh/champsim_traces/PARSEC/parsec_2.1.canneal.simlarge.prebuilt.drop_1250M.length_250M.champsimtrace.xz
 L1D Berti prefetcher
Off-chip DRAM Size: 16 GiB Channels: 1 Width: 64-bit Data Rate: 3205 MT/s
Warmup halting CPU 0 at instruction 20000002 cycle 4329394 for remainder of phase
Warmup finished CPU 0 instructions: 20000002 cycles: 4329394 cumulative IPC: 4.62 (Simulation time: 00 hr 01 min 06 sec)
Warmup complete CPU 0 instructions: 20000002 cycles: 4329394 cumulative IPC: 4.62 (Simulation time: 00 hr 01 min 06 sec)
Simulation finished CPU 0 instructions: 50000001 cycles: 93604095 cumulative IPC: 0.5342 (Simulation time: 00 hr 08 min 59 sec)
Simulation complete CPU 0 instructions: 50000001 cycles: 93604095 cumulative IPC: 0.5342 (Simulation time: 00 hr 08 min 59 sec)

ChampSim completed all CPUs

=== Simulation ===
CPU 0 runs /data0/tzh/champsim_traces/PARSEC/parsec_2.1.canneal.simlarge.prebuilt.drop_1250M.length_250M.champsimtrace.xz

Region of Interest Statistics

CPU 0 cumulative IPC: 0.5342 instructions: 50000001 cycles: 93604095
CPU 0 Branch Prediction Accuracy: 95.73% MPKI: 8.421 Average ROB Occupancy at Mispredict: 73.24
Branch type MPKI
BRANCH_DIRECT_JUMP: 6e-05
BRANCH_INDIRECT: 0.06032
BRANCH_CONDITIONAL: 8.209
BRANCH_DIRECT_CALL: 0.1512
BRANCH_INDIRECT_CALL: 0.00014
BRANCH_RETURN: 4e-05

cpu0->cpu0_STLB TOTAL        ACCESS:     447433 HIT:     438260 MISS:       9173 MSHR_MERGE:          0
cpu0->cpu0_STLB LOAD         ACCESS:     447433 HIT:     438260 MISS:       9173 MSHR_MERGE:          0
cpu0->cpu0_STLB RFO          ACCESS:          0 HIT:          0 MISS:          0 MSHR_MERGE:          0
cpu0->cpu0_STLB PREFETCH     ACCESS:          0 HIT:          0 MISS:          0 MSHR_MERGE:          0
cpu0->cpu0_STLB WRITE        ACCESS:          0 HIT:          0 MISS:          0 MSHR_MERGE:          0
cpu0->cpu0_STLB TRANSLATION  ACCESS:          0 HIT:          0 MISS:          0 MSHR_MERGE:          0
cpu0->cpu0_STLB PREFETCH REQUESTED:          0 ISSUED:          0 USEFUL:          0 USELESS:          0 LATE:          0
cpu0->cpu0_STLB AVERAGE MISS LATENCY: 158.1 cycles
cpu0->cpu0_L2C TOTAL        ACCESS:    1117105 HIT:     354529 MISS:     762576 MSHR_MERGE:        304
cpu0->cpu0_L2C LOAD         ACCESS:     587307 HIT:     159410 MISS:     427897 MSHR_MERGE:          3
cpu0->cpu0_L2C RFO          ACCESS:      19828 HIT:       5301 MISS:      14527 MSHR_MERGE:          0
cpu0->cpu0_L2C PREFETCH     ACCESS:     401791 HIT:      90279 MISS:     311512 MSHR_MERGE:        301
cpu0->cpu0_L2C WRITE        ACCESS:      99008 HIT:      98753 MISS:        255 MSHR_MERGE:          0
cpu0->cpu0_L2C TRANSLATION  ACCESS:       9171 HIT:        786 MISS:       8385 MSHR_MERGE:          0
cpu0->cpu0_L2C PREFETCH REQUESTED:      14328 ISSUED:      14328 USEFUL:       4019 USELESS:       7470 LATE:          3
cpu0->cpu0_L2C AVERAGE MISS LATENCY: 154.5 cycles
cpu0->cpu0_L1I TOTAL        ACCESS:    5402138 HIT:    5392889 MISS:       9249 MSHR_MERGE:        340
cpu0->cpu0_L1I LOAD         ACCESS:    5402138 HIT:    5392889 MISS:       9249 MSHR_MERGE:        340
cpu0->cpu0_L1I RFO          ACCESS:          0 HIT:          0 MISS:          0 MSHR_MERGE:          0
cpu0->cpu0_L1I PREFETCH     ACCESS:          0 HIT:          0 MISS:          0 MSHR_MERGE:          0
cpu0->cpu0_L1I WRITE        ACCESS:          0 HIT:          0 MISS:          0 MSHR_MERGE:          0
cpu0->cpu0_L1I TRANSLATION  ACCESS:          0 HIT:          0 MISS:          0 MSHR_MERGE:          0
cpu0->cpu0_L1I PREFETCH REQUESTED:          0 ISSUED:          0 USEFUL:          0 USELESS:          0 LATE:          0
cpu0->cpu0_L1I AVERAGE MISS LATENCY: 10.08 cycles
cpu0->cpu0_L1D TOTAL        ACCESS:   15987434 HIT:   14856310 MISS:    1131124 MSHR_MERGE:     136261
cpu0->cpu0_L1D LOAD         ACCESS:    9724092 HIT:    9073778 MISS:     650314 MSHR_MERGE:      71914
cpu0->cpu0_L1D RFO          ACCESS:          0 HIT:          0 MISS:          0 MSHR_MERGE:          0
cpu0->cpu0_L1D PREFETCH     ACCESS:     866028 HIT:     466967 MISS:     399061 MSHR_MERGE:      11598
cpu0->cpu0_L1D WRITE        ACCESS:    5378902 HIT:    5306326 MISS:      72576 MSHR_MERGE:      52747
cpu0->cpu0_L1D TRANSLATION  ACCESS:      18412 HIT:       9239 MISS:       9173 MSHR_MERGE:          2
cpu0->cpu0_L1D PREFETCH REQUESTED:     866335 ISSUED:     866022 USEFUL:      98258 USELESS:     289094 LATE:      31968
cpu0->cpu0_L1D AVERAGE MISS LATENCY: 119.6 cycles
cpu0->cpu0_ITLB TOTAL        ACCESS:    4691332 HIT:    4691309 MISS:         23 MSHR_MERGE:          0
cpu0->cpu0_ITLB LOAD         ACCESS:    4691332 HIT:    4691309 MISS:         23 MSHR_MERGE:          0
cpu0->cpu0_ITLB RFO          ACCESS:          0 HIT:          0 MISS:          0 MSHR_MERGE:          0
cpu0->cpu0_ITLB PREFETCH     ACCESS:          0 HIT:          0 MISS:          0 MSHR_MERGE:          0
cpu0->cpu0_ITLB WRITE        ACCESS:          0 HIT:          0 MISS:          0 MSHR_MERGE:          0
cpu0->cpu0_ITLB TRANSLATION  ACCESS:          0 HIT:          0 MISS:          0 MSHR_MERGE:          0
cpu0->cpu0_ITLB PREFETCH REQUESTED:          0 ISSUED:          0 USEFUL:          0 USELESS:          0 LATE:          0
cpu0->cpu0_ITLB AVERAGE MISS LATENCY: 5 cycles
cpu0->cpu0_DTLB TOTAL        ACCESS:   15192570 HIT:   14656820 MISS:     535750 MSHR_MERGE:      88340
cpu0->cpu0_DTLB LOAD         ACCESS:   15192570 HIT:   14656820 MISS:     535750 MSHR_MERGE:      88340
cpu0->cpu0_DTLB RFO          ACCESS:          0 HIT:          0 MISS:          0 MSHR_MERGE:          0
cpu0->cpu0_DTLB PREFETCH     ACCESS:          0 HIT:          0 MISS:          0 MSHR_MERGE:          0
cpu0->cpu0_DTLB WRITE        ACCESS:          0 HIT:          0 MISS:          0 MSHR_MERGE:          0
cpu0->cpu0_DTLB TRANSLATION  ACCESS:          0 HIT:          0 MISS:          0 MSHR_MERGE:          0
cpu0->cpu0_DTLB PREFETCH REQUESTED:          0 ISSUED:          0 USEFUL:          0 USELESS:          0 LATE:          0
cpu0->cpu0_DTLB AVERAGE MISS LATENCY: 8.263 cycles
cpu0->LLC TOTAL        ACCESS:     855216 HIT:     279857 MISS:     575359 MSHR_MERGE:          0
cpu0->LLC LOAD         ACCESS:     427894 HIT:     121573 MISS:     306321 MSHR_MERGE:          0
cpu0->LLC RFO          ACCESS:      14527 HIT:         37 MISS:      14490 MSHR_MERGE:          0
cpu0->LLC PREFETCH     ACCESS:     311211 HIT:      72916 MISS:     238295 MSHR_MERGE:          0
cpu0->LLC WRITE        ACCESS:      93199 HIT:      82338 MISS:      10861 MSHR_MERGE:          0
cpu0->LLC TRANSLATION  ACCESS:       8385 HIT:       2993 MISS:       5392 MSHR_MERGE:          0
cpu0->LLC PREFETCH REQUESTED:          0 ISSUED:          0 USEFUL:          0 USELESS:          0 LATE:          0
cpu0->LLC AVERAGE MISS LATENCY: 186 cycles

DRAM Statistics

Channel 0 RQ ROW_BUFFER_HIT:        789
  ROW_BUFFER_MISS:     563708
  AVG DBUS CONGESTED CYCLE: 17.72
Channel 0 WQ ROW_BUFFER_HIT:      39548
  ROW_BUFFER_MISS:      54140
  FULL:          0
Channel 0 REFRESHES ISSUED:       7801

[ROI Statistics]
[System Configuration]
num_cpus 1
cpu_freq 4000
fetch_width 6
decode_width 6
dispatch_width 6
execute_width 6
lq_width 2
sq_width 2
retire_width 6
scheduler_size 128
branch_mispredict_penalty 15
rob_size 352
lq_size 128
sq_size 72
ifetch_buffer_size 64
decode_buffer_size 32
dispatch_buffer_size 32
register_file_size 288
decode_latency 1
dispatch_latency 1
schedule_latency 1
execute_latency 1
page_size 4096
block_size 64
core_0_itlb_set 16
core_0_itlb_way 4
core_0_itlb_rq_size 16
core_0_itlb_wq_size 16
core_0_itlb_pq_size 0
core_0_itlb_mshr_size 8
core_0_itlb_hit_latency 1
core_0_itlb_fill_latency 1
core_0_itlb_max_tag_check 2
core_0_itlb_max_fill 2
core_0_dtlb_set 16
core_0_dtlb_way 4
core_0_dtlb_rq_size 16
core_0_dtlb_wq_size 16
core_0_dtlb_pq_size 0
core_0_dtlb_mshr_size 8
core_0_dtlb_hit_latency 1
core_0_dtlb_fill_latency 1
core_0_dtlb_max_tag_check 2
core_0_dtlb_max_fill 2
core_0_stlb_set 128
core_0_stlb_way 12
core_0_stlb_rq_size 32
core_0_stlb_wq_size 32
core_0_stlb_pq_size 0
core_0_stlb_mshr_size 16
core_0_stlb_hit_latency 4
core_0_stlb_fill_latency 4
core_0_stlb_max_tag_check 1
core_0_stlb_max_fill 1
core_0_l1i_set 64
core_0_l1i_way 8
core_0_l1i_rq_size 64
core_0_l1i_wq_size 64
core_0_l1i_pq_size 32
core_0_l1i_mshr_size 8
core_0_l1i_hit_latency 2
core_0_l1i_fill_latency 2
core_0_l1i_max_tag_check 2
core_0_l1i_max_fill 2
core_0_l1d_set 64
core_0_l1d_way 12
core_0_l1d_rq_size 64
core_0_l1d_wq_size 64
core_0_l1d_pq_size 8
core_0_l1d_mshr_size 16
core_0_l1d_hit_latency 2
core_0_l1d_fill_latency 3
core_0_l1d_max_tag_check 2
core_0_l1d_max_fill 2
core_0_l2c_set 1024
core_0_l2c_way 8
core_0_l2c_rq_size 32
core_0_l2c_wq_size 32
core_0_l2c_pq_size 16
core_0_l2c_mshr_size 32
core_0_l2c_hit_latency 5
core_0_l2c_fill_latency 5
core_0_l2c_max_tag_check 1
core_0_l2c_max_fill 1
llc_set 2048
llc_way 16
llc_rq_size 32
llc_wq_size 32
llc_pq_size 32
llc_mshr_size 64
llc_hit_latency 10
llc_fill_latency 10
llc_max_tag_check 1
llc_max_fill 1
dram_channels 1
dram_ranks 1
dram_bankgroups 8
dram_banks 4
dram_rows 65536
dram_columns 1024
dram_channel_width 8
dram_rq_size 64
dram_wq_size 64
dram_size 17179869184
core_0_itlb_prefetcher no
core_0_dtlb_prefetcher no
core_0_stlb_prefetcher no
core_0_l1i_prefetcher next_line
core_0_l1d_prefetcher berti
core_0_l2c_prefetcher ip_stride
llc_prefetcher no
llc_replacement drrip

Core_0_instructions 50000001
Core_0_cycles 93604095
Core_0_IPC 0.534165
Core_0_branch_prediction_accuracy 95.7305
Core_0_branch_MPKI 8.42062
Core_0_average_ROB_occupancy_at_mispredict 73.2404

Core_0_ITLB_total_access 4691332
Core_0_ITLB_total_hit 4691309
Core_0_ITLB_total_miss 23
Core_0_ITLB_total_MPKI 0.00046
Core_0_ITLB_total_miss_rate 4.90266e-06
Core_0_ITLB_demand_access 4691332
Core_0_ITLB_demand_hit 4691309
Core_0_ITLB_demand_miss 23
Core_0_ITLB_demand_MPKI 0.00046
Core_0_ITLB_demand_miss_rate 4.90266e-06
Core_0_ITLB_load_access 4691332
Core_0_ITLB_load_hit 4691309
Core_0_ITLB_load_miss 23
Core_0_ITLB_load_MPKI 0.00046
Core_0_ITLB_load_miss_rate 4.90266e-06
Core_0_ITLB_rfo_access 0
Core_0_ITLB_rfo_hit 0
Core_0_ITLB_rfo_miss 0
Core_0_ITLB_rfo_MPKI 0
Core_0_ITLB_rfo_miss_rate 0
Core_0_ITLB_prefetch_access 0
Core_0_ITLB_prefetch_hit 0
Core_0_ITLB_prefetch_miss 0
Core_0_ITLB_prefetch_MPKI 0
Core_0_ITLB_prefetch_miss_rate 0
Core_0_ITLB_writeback_access 0
Core_0_ITLB_writeback_hit 0
Core_0_ITLB_writeback_miss 0
Core_0_ITLB_writeback_MPKI 0
Core_0_ITLB_writeback_miss_rate 0
Core_0_ITLB_prefetch_requested 0
Core_0_ITLB_prefetch_issued 0
Core_0_ITLB_prefetch_useful 0
Core_0_ITLB_prefetch_useless 0
Core_0_ITLB_prefetch_late 0
Core_0_ITLB_prefetch_accuracy 0
Core_0_ITLB_prefetch_coverage 0

Core_0_DTLB_total_access 15192570
Core_0_DTLB_total_hit 14656820
Core_0_DTLB_total_miss 535750
Core_0_DTLB_total_MPKI 10.715
Core_0_DTLB_total_miss_rate 0.0352639
Core_0_DTLB_demand_access 15192570
Core_0_DTLB_demand_hit 14656820
Core_0_DTLB_demand_miss 535750
Core_0_DTLB_demand_MPKI 10.715
Core_0_DTLB_demand_miss_rate 0.0352639
Core_0_DTLB_load_access 15192570
Core_0_DTLB_load_hit 14656820
Core_0_DTLB_load_miss 535750
Core_0_DTLB_load_MPKI 10.715
Core_0_DTLB_load_miss_rate 0.0352639
Core_0_DTLB_rfo_access 0
Core_0_DTLB_rfo_hit 0
Core_0_DTLB_rfo_miss 0
Core_0_DTLB_rfo_MPKI 0
Core_0_DTLB_rfo_miss_rate 0
Core_0_DTLB_prefetch_access 0
Core_0_DTLB_prefetch_hit 0
Core_0_DTLB_prefetch_miss 0
Core_0_DTLB_prefetch_MPKI 0
Core_0_DTLB_prefetch_miss_rate 0
Core_0_DTLB_writeback_access 0
Core_0_DTLB_writeback_hit 0
Core_0_DTLB_writeback_miss 0
Core_0_DTLB_writeback_MPKI 0
Core_0_DTLB_writeback_miss_rate 0
Core_0_DTLB_prefetch_requested 0
Core_0_DTLB_prefetch_issued 0
Core_0_DTLB_prefetch_useful 0
Core_0_DTLB_prefetch_useless 0
Core_0_DTLB_prefetch_late 0
Core_0_DTLB_prefetch_accuracy 0
Core_0_DTLB_prefetch_coverage 0

Core_0_STLB_total_access 447433
Core_0_STLB_total_hit 438260
Core_0_STLB_total_miss 9173
Core_0_STLB_total_MPKI 0.18346
Core_0_STLB_total_miss_rate 0.0205014
Core_0_STLB_demand_access 447433
Core_0_STLB_demand_hit 438260
Core_0_STLB_demand_miss 9173
Core_0_STLB_demand_MPKI 0.18346
Core_0_STLB_demand_miss_rate 0.0205014
Core_0_STLB_load_access 447433
Core_0_STLB_load_hit 438260
Core_0_STLB_load_miss 9173
Core_0_STLB_load_MPKI 0.18346
Core_0_STLB_load_miss_rate 0.0205014
Core_0_STLB_rfo_access 0
Core_0_STLB_rfo_hit 0
Core_0_STLB_rfo_miss 0
Core_0_STLB_rfo_MPKI 0
Core_0_STLB_rfo_miss_rate 0
Core_0_STLB_prefetch_access 0
Core_0_STLB_prefetch_hit 0
Core_0_STLB_prefetch_miss 0
Core_0_STLB_prefetch_MPKI 0
Core_0_STLB_prefetch_miss_rate 0
Core_0_STLB_writeback_access 0
Core_0_STLB_writeback_hit 0
Core_0_STLB_writeback_miss 0
Core_0_STLB_writeback_MPKI 0
Core_0_STLB_writeback_miss_rate 0
Core_0_STLB_prefetch_requested 0
Core_0_STLB_prefetch_issued 0
Core_0_STLB_prefetch_useful 0
Core_0_STLB_prefetch_useless 0
Core_0_STLB_prefetch_late 0
Core_0_STLB_prefetch_accuracy 0
Core_0_STLB_prefetch_coverage 0

Core_0_L1I_total_access 5402138
Core_0_L1I_total_hit 5392889
Core_0_L1I_total_miss 9249
Core_0_L1I_total_MPKI 0.18498
Core_0_L1I_total_miss_rate 0.0017121
Core_0_L1I_demand_access 5402138
Core_0_L1I_demand_hit 5392889
Core_0_L1I_demand_miss 9249
Core_0_L1I_demand_MPKI 0.18498
Core_0_L1I_demand_miss_rate 0.0017121
Core_0_L1I_load_access 5402138
Core_0_L1I_load_hit 5392889
Core_0_L1I_load_miss 9249
Core_0_L1I_load_MPKI 0.18498
Core_0_L1I_load_miss_rate 0.0017121
Core_0_L1I_rfo_access 0
Core_0_L1I_rfo_hit 0
Core_0_L1I_rfo_miss 0
Core_0_L1I_rfo_MPKI 0
Core_0_L1I_rfo_miss_rate 0
Core_0_L1I_prefetch_access 0
Core_0_L1I_prefetch_hit 0
Core_0_L1I_prefetch_miss 0
Core_0_L1I_prefetch_MPKI 0
Core_0_L1I_prefetch_miss_rate 0
Core_0_L1I_writeback_access 0
Core_0_L1I_writeback_hit 0
Core_0_L1I_writeback_miss 0
Core_0_L1I_writeback_MPKI 0
Core_0_L1I_writeback_miss_rate 0
Core_0_L1I_prefetch_requested 0
Core_0_L1I_prefetch_issued 0
Core_0_L1I_prefetch_useful 0
Core_0_L1I_prefetch_useless 0
Core_0_L1I_prefetch_late 0
Core_0_L1I_prefetch_accuracy 0
Core_0_L1I_prefetch_coverage 0

Core_0_L1D_total_access 15969022
Core_0_L1D_total_hit 14847071
Core_0_L1D_total_miss 1121951
Core_0_L1D_total_MPKI 22.439
Core_0_L1D_total_miss_rate 0.070258
Core_0_L1D_demand_access 9724092
Core_0_L1D_demand_hit 9073778
Core_0_L1D_demand_miss 650314
Core_0_L1D_demand_MPKI 13.0063
Core_0_L1D_demand_miss_rate 0.0668766
Core_0_L1D_load_access 9724092
Core_0_L1D_load_hit 9073778
Core_0_L1D_load_miss 650314
Core_0_L1D_load_MPKI 13.0063
Core_0_L1D_load_miss_rate 0.0668766
Core_0_L1D_rfo_access 0
Core_0_L1D_rfo_hit 0
Core_0_L1D_rfo_miss 0
Core_0_L1D_rfo_MPKI 0
Core_0_L1D_rfo_miss_rate 0
Core_0_L1D_prefetch_access 866028
Core_0_L1D_prefetch_hit 466967
Core_0_L1D_prefetch_miss 399061
Core_0_L1D_prefetch_MPKI 7.98122
Core_0_L1D_prefetch_miss_rate 0.460795
Core_0_L1D_writeback_access 5378902
Core_0_L1D_writeback_hit 5306326
Core_0_L1D_writeback_miss 72576
Core_0_L1D_writeback_MPKI 1.45152
Core_0_L1D_writeback_miss_rate 0.0134927
Core_0_L1D_prefetch_requested 866335
Core_0_L1D_prefetch_issued 866022
Core_0_L1D_prefetch_useful 98258
Core_0_L1D_prefetch_useless 289094
Core_0_L1D_prefetch_late 31968
Core_0_L1D_prefetch_accuracy 0.113459
Core_0_L1D_prefetch_coverage 0.131261

Core_0_L2C_total_access 1107934
Core_0_L2C_total_hit 353743
Core_0_L2C_total_miss 754191
Core_0_L2C_total_MPKI 15.0838
Core_0_L2C_total_miss_rate 0.680718
Core_0_L2C_demand_access 607135
Core_0_L2C_demand_hit 164711
Core_0_L2C_demand_miss 442424
Core_0_L2C_demand_MPKI 8.84848
Core_0_L2C_demand_miss_rate 0.728708
Core_0_L2C_load_access 587307
Core_0_L2C_load_hit 159410
Core_0_L2C_load_miss 427897
Core_0_L2C_load_MPKI 8.55794
Core_0_L2C_load_miss_rate 0.728575
Core_0_L2C_rfo_access 19828
Core_0_L2C_rfo_hit 5301
Core_0_L2C_rfo_miss 14527
Core_0_L2C_rfo_MPKI 0.29054
Core_0_L2C_rfo_miss_rate 0.732651
Core_0_L2C_prefetch_access 401791
Core_0_L2C_prefetch_hit 90279
Core_0_L2C_prefetch_miss 311512
Core_0_L2C_prefetch_MPKI 6.23024
Core_0_L2C_prefetch_miss_rate 0.775309
Core_0_L2C_writeback_access 99008
Core_0_L2C_writeback_hit 98753
Core_0_L2C_writeback_miss 255
Core_0_L2C_writeback_MPKI 0.0051
Core_0_L2C_writeback_miss_rate 0.00257555
Core_0_L2C_prefetch_requested 14328
Core_0_L2C_prefetch_issued 14328
Core_0_L2C_prefetch_useful 4019
Core_0_L2C_prefetch_useless 7470
Core_0_L2C_prefetch_late 3
Core_0_L2C_prefetch_accuracy 0.2805
Core_0_L2C_prefetch_coverage 0.00900227

Core_0_LLC_total_access 846831
Core_0_LLC_total_hit 276864
Core_0_LLC_total_miss 569967
Core_0_LLC_total_MPKI 11.3993
Core_0_LLC_total_miss_rate 0.673059
Core_0_LLC_demand_access 442421
Core_0_LLC_demand_hit 121610
Core_0_LLC_demand_miss 320811
Core_0_LLC_demand_MPKI 6.41622
Core_0_LLC_demand_miss_rate 0.725126
Core_0_LLC_load_access 427894
Core_0_LLC_load_hit 121573
Core_0_LLC_load_miss 306321
Core_0_LLC_load_MPKI 6.12642
Core_0_LLC_load_miss_rate 0.715881
Core_0_LLC_rfo_access 14527
Core_0_LLC_rfo_hit 37
Core_0_LLC_rfo_miss 14490
Core_0_LLC_rfo_MPKI 0.2898
Core_0_LLC_rfo_miss_rate 0.997453
Core_0_LLC_prefetch_access 311211
Core_0_LLC_prefetch_hit 72916
Core_0_LLC_prefetch_miss 238295
Core_0_LLC_prefetch_MPKI 4.7659
Core_0_LLC_prefetch_miss_rate 0.765702
Core_0_LLC_writeback_access 93199
Core_0_LLC_writeback_hit 82338
Core_0_LLC_writeback_miss 10861
Core_0_LLC_writeback_MPKI 0.21722
Core_0_LLC_writeback_miss_rate 0.116536
Core_0_LLC_prefetch_requested 0
Core_0_LLC_prefetch_issued 0
Core_0_LLC_prefetch_useful 0
Core_0_LLC_prefetch_useless 0
Core_0_LLC_prefetch_late 0
Core_0_LLC_prefetch_accuracy 0
Core_0_LLC_prefetch_coverage 0

[DRAM Statistics]
Channel_0_RQ_row_buffer_hit 789
Channel_0_RQ_row_buffer_miss 563708
Channel_0_WQ_row_buffer_hit 39548
Channel_0_WQ_row_buffer_miss 54140
Channel_0_WQ_full 0
Channel_0_dbus_congested 1594992
DRAM_total_RQ_row_buffer_hit 789
DRAM_total_RQ_row_buffer_miss 563708
DRAM_total_WQ_row_buffer_hit 39548
DRAM_total_WQ_row_buffer_miss 54140
DRAM_total_WQ_full 0
DRAM_total_dbus_congested 1594992
DRAM_avg_congested_cycle 17.7238

======STLB miss causes ========
Core_0_STLB_miss_cause_breakdown
Core_0_STLB_cause_Demand_Data_miss 0
Core_0_STLB_cause_Demand_Data_miss_rate 0
Core_0_STLB_cause_Demand_Instruction_miss 0
Core_0_STLB_cause_Demand_Instruction_miss_rate 0
Core_0_STLB_cause_L1D_Prefetch_miss 9173
Core_0_STLB_cause_L1D_Prefetch_miss_rate 0.0205014
Core_0_STLB_cause_L1I_Prefetch_miss 0
Core_0_STLB_cause_L1I_Prefetch_miss_rate 0
Core_0_STLB_cause_Other_miss 0
Core_0_STLB_cause_Other_miss_rate 0
Core_0_STLB_Demand_miss 0
Core_0_STLB_Demand_miss_rate 0
Core_0_STLB_L1D_Prefetch_miss 9173
Core_0_STLB_L1D_Prefetch_miss_rate 0.0205014
Core_0_STLB_Other_miss 0
Core_0_STLB_Other_miss_rate 0
