[VMEM] WARNING: physical memory size is smaller than virtual memory size.

*** ChampSim Multicore Out-of-Order Simulator ***
Warmup Instructions: 20000000
Simulation Instructions: 50000000
Number of CPUs: 1
Page size: 4096
STLB ideal mode: demand
STLB ideal fill: on
Core 0: /data0/tzh/champsim_traces/QMM/srv_5_new.xz
 L1D Berti prefetcher
Off-chip DRAM Size: 16 GiB Channels: 1 Width: 64-bit Data Rate: 3205 MT/s
[BTB] WARNING: target of return is a lower address than the corresponding call. This is usually a problem with your trace.
[BTB] WARNING: target of return is a lower address than the corresponding call. This is usually a problem with your trace.
[BTB] WARNING: target of return is a lower address than the corresponding call. This is usually a problem with your trace.
[BTB] WARNING: target of return is a lower address than the corresponding call. This is usually a problem with your trace.
[BTB] WARNING: target of return is a lower address than the corresponding call. This is usually a problem with your trace.
[BTB] WARNING: target of return is a lower address than the corresponding call. This is usually a problem with your trace.
[BTB] WARNING: target of return is a lower address than the corresponding call. This is usually a problem with your trace.
[BTB] WARNING: target of return is a lower address than the corresponding call. This is usually a problem with your trace.
[BTB] WARNING: target of return is a lower address than the corresponding call. This is usually a problem with your trace.
[BTB] WARNING: target of return is a lower address than the corresponding call. This is usually a problem with your trace.
Warmup halting CPU 0 at instruction 20000002 cycle 4109975 for remainder of phase
Warmup finished CPU 0 instructions: 20000002 cycles: 4109975 cumulative IPC: 4.866 (Simulation time: 00 hr 01 min 08 sec)
Warmup complete CPU 0 instructions: 20000002 cycles: 4109975 cumulative IPC: 4.866 (Simulation time: 00 hr 01 min 08 sec)
*** Reached end of trace: (0, "/data0/tzh/champsim_traces/QMM/srv_5_new.xz")
*** Reached end of trace: (0, "/data0/tzh/champsim_traces/QMM/srv_5_new.xz")
Simulation finished CPU 0 instructions: 50000000 cycles: 24138749 cumulative IPC: 2.071 (Simulation time: 00 hr 05 min 13 sec)
Simulation complete CPU 0 instructions: 50000000 cycles: 24138749 cumulative IPC: 2.071 (Simulation time: 00 hr 05 min 13 sec)

ChampSim completed all CPUs

=== Simulation ===
CPU 0 runs /data0/tzh/champsim_traces/QMM/srv_5_new.xz

Region of Interest Statistics

CPU 0 cumulative IPC: 2.071 instructions: 50000000 cycles: 24138749
CPU 0 Branch Prediction Accuracy: 98.74% MPKI: 2.256 Average ROB Occupancy at Mispredict: 128.7
Branch type MPKI
BRANCH_DIRECT_JUMP: 0.1324
BRANCH_INDIRECT: 0.1836
BRANCH_CONDITIONAL: 1.374
BRANCH_DIRECT_CALL: 0.2424
BRANCH_INDIRECT_CALL: 0.07656
BRANCH_RETURN: 0.2472

cpu0->cpu0_STLB TOTAL        ACCESS:     848440 HIT:     844241 MISS:       4199 MSHR_MERGE:          0
cpu0->cpu0_STLB LOAD         ACCESS:     848440 HIT:     844241 MISS:       4199 MSHR_MERGE:          0
cpu0->cpu0_STLB RFO          ACCESS:          0 HIT:          0 MISS:          0 MSHR_MERGE:          0
cpu0->cpu0_STLB PREFETCH     ACCESS:          0 HIT:          0 MISS:          0 MSHR_MERGE:          0
cpu0->cpu0_STLB WRITE        ACCESS:          0 HIT:          0 MISS:          0 MSHR_MERGE:          0
cpu0->cpu0_STLB TRANSLATION  ACCESS:          0 HIT:          0 MISS:          0 MSHR_MERGE:          0
cpu0->cpu0_STLB PREFETCH REQUESTED:          0 ISSUED:          0 USEFUL:          0 USELESS:          0 LATE:          0
cpu0->cpu0_STLB AVERAGE MISS LATENCY: 96.81 cycles
cpu0->cpu0_L2C TOTAL        ACCESS:    2396184 HIT:    1493262 MISS:     902922 MSHR_MERGE:      15898
cpu0->cpu0_L2C LOAD         ACCESS:    1763177 HIT:    1078628 MISS:     684549 MSHR_MERGE:        161
cpu0->cpu0_L2C RFO          ACCESS:      75332 HIT:      38410 MISS:      36922 MSHR_MERGE:         25
cpu0->cpu0_L2C PREFETCH     ACCESS:     285106 HIT:     110423 MISS:     174683 MSHR_MERGE:      15712
cpu0->cpu0_L2C WRITE        ACCESS:     266939 HIT:     265179 MISS:       1760 MSHR_MERGE:          0
cpu0->cpu0_L2C TRANSLATION  ACCESS:       5630 HIT:        622 MISS:       5008 MSHR_MERGE:          0
cpu0->cpu0_L2C PREFETCH REQUESTED:      45767 ISSUED:      45708 USEFUL:      15657 USELESS:       6556 LATE:        186
cpu0->cpu0_L2C AVERAGE MISS LATENCY: 26.01 cycles
cpu0->cpu0_L1I TOTAL        ACCESS:    7897669 HIT:    5786334 MISS:    2111335 MSHR_MERGE:     821546
cpu0->cpu0_L1I LOAD         ACCESS:    7897669 HIT:    5786334 MISS:    2111335 MSHR_MERGE:     821546
cpu0->cpu0_L1I RFO          ACCESS:          0 HIT:          0 MISS:          0 MSHR_MERGE:          0
cpu0->cpu0_L1I PREFETCH     ACCESS:          0 HIT:          0 MISS:          0 MSHR_MERGE:          0
cpu0->cpu0_L1I WRITE        ACCESS:          0 HIT:          0 MISS:          0 MSHR_MERGE:          0
cpu0->cpu0_L1I TRANSLATION  ACCESS:          0 HIT:          0 MISS:          0 MSHR_MERGE:          0
cpu0->cpu0_L1I PREFETCH REQUESTED:          0 ISSUED:          0 USEFUL:          0 USELESS:          0 LATE:          0
cpu0->cpu0_L1I AVERAGE MISS LATENCY: 13.55 cycles
cpu0->cpu0_L1D TOTAL        ACCESS:   11830428 HIT:   10727817 MISS:    1102611 MSHR_MERGE:     308849
cpu0->cpu0_L1D LOAD         ACCESS:    6455232 HIT:    5812646 MISS:     642586 MSHR_MERGE:     169192
cpu0->cpu0_L1D RFO          ACCESS:          0 HIT:          0 MISS:          0 MSHR_MERGE:          0
cpu0->cpu0_L1D PREFETCH     ACCESS:     412566 HIT:     156786 MISS:     255780 MSHR_MERGE:      16379
cpu0->cpu0_L1D WRITE        ACCESS:    4952618 HIT:    4754006 MISS:     198612 MSHR_MERGE:     123275
cpu0->cpu0_L1D TRANSLATION  ACCESS:      10012 HIT:       4379 MISS:       5633 MSHR_MERGE:          3
cpu0->cpu0_L1D PREFETCH REQUESTED:     414715 ISSUED:     412558 USEFUL:     101149 USELESS:     138223 LATE:      10714
cpu0->cpu0_L1D AVERAGE MISS LATENCY: 29.59 cycles
cpu0->cpu0_ITLB TOTAL        ACCESS:    6719177 HIT:    6244410 MISS:     474767 MSHR_MERGE:     282419
cpu0->cpu0_ITLB LOAD         ACCESS:    6719177 HIT:    6244410 MISS:     474767 MSHR_MERGE:     282419
cpu0->cpu0_ITLB RFO          ACCESS:          0 HIT:          0 MISS:          0 MSHR_MERGE:          0
cpu0->cpu0_ITLB PREFETCH     ACCESS:          0 HIT:          0 MISS:          0 MSHR_MERGE:          0
cpu0->cpu0_ITLB WRITE        ACCESS:          0 HIT:          0 MISS:          0 MSHR_MERGE:          0
cpu0->cpu0_ITLB TRANSLATION  ACCESS:          0 HIT:          0 MISS:          0 MSHR_MERGE:          0
cpu0->cpu0_ITLB PREFETCH REQUESTED:          0 ISSUED:          0 USEFUL:          0 USELESS:          0 LATE:          0
cpu0->cpu0_ITLB AVERAGE MISS LATENCY: 5.031 cycles
cpu0->cpu0_DTLB TOTAL        ACCESS:   11040453 HIT:   10174949 MISS:     865504 MSHR_MERGE:     209412
cpu0->cpu0_DTLB LOAD         ACCESS:   11040453 HIT:   10174949 MISS:     865504 MSHR_MERGE:     209412
cpu0->cpu0_DTLB RFO          ACCESS:          0 HIT:          0 MISS:          0 MSHR_MERGE:          0
cpu0->cpu0_DTLB PREFETCH     ACCESS:          0 HIT:          0 MISS:          0 MSHR_MERGE:          0
cpu0->cpu0_DTLB WRITE        ACCESS:          0 HIT:          0 MISS:          0 MSHR_MERGE:          0
cpu0->cpu0_DTLB TRANSLATION  ACCESS:          0 HIT:          0 MISS:          0 MSHR_MERGE:          0
cpu0->cpu0_DTLB PREFETCH REQUESTED:          0 ISSUED:          0 USEFUL:          0 USELESS:          0 LATE:          0
cpu0->cpu0_DTLB AVERAGE MISS LATENCY: 5.635 cycles
cpu0->LLC TOTAL        ACCESS:    1028726 HIT:     927190 MISS:     101536 MSHR_MERGE:         17
cpu0->LLC LOAD         ACCESS:     684387 HIT:     653173 MISS:      31214 MSHR_MERGE:          1
cpu0->LLC RFO          ACCESS:      36897 HIT:      28477 MISS:       8420 MSHR_MERGE:          0
cpu0->LLC PREFETCH     ACCESS:     158971 HIT:     100751 MISS:      58220 MSHR_MERGE:         16
cpu0->LLC WRITE        ACCESS:     143463 HIT:     140535 MISS:       2928 MSHR_MERGE:          0
cpu0->LLC TRANSLATION  ACCESS:       5008 HIT:       4254 MISS:        754 MSHR_MERGE:          0
cpu0->LLC PREFETCH REQUESTED:          0 ISSUED:          0 USEFUL:          0 USELESS:          0 LATE:          0
cpu0->LLC AVERAGE MISS LATENCY: 184.7 cycles

DRAM Statistics

Channel 0 RQ ROW_BUFFER_HIT:       4223
  ROW_BUFFER_MISS:      94359
  AVG DBUS CONGESTED CYCLE: 14.02
Channel 0 WQ ROW_BUFFER_HIT:      11565
  ROW_BUFFER_MISS:      45527
  FULL:          0
Channel 0 REFRESHES ISSUED:       2012

[ROI Statistics]
[System Configuration]
num_cpus 1
cpu_freq 4000
fetch_width 6
decode_width 6
dispatch_width 6
execute_width 6
lq_width 2
sq_width 2
retire_width 6
scheduler_size 128
branch_mispredict_penalty 15
rob_size 352
lq_size 128
sq_size 72
ifetch_buffer_size 64
decode_buffer_size 32
dispatch_buffer_size 32
register_file_size 288
decode_latency 1
dispatch_latency 1
schedule_latency 1
execute_latency 1
page_size 4096
block_size 64
core_0_itlb_set 16
core_0_itlb_way 4
core_0_itlb_rq_size 16
core_0_itlb_wq_size 16
core_0_itlb_pq_size 0
core_0_itlb_mshr_size 8
core_0_itlb_hit_latency 1
core_0_itlb_fill_latency 1
core_0_itlb_max_tag_check 2
core_0_itlb_max_fill 2
core_0_dtlb_set 16
core_0_dtlb_way 4
core_0_dtlb_rq_size 16
core_0_dtlb_wq_size 16
core_0_dtlb_pq_size 0
core_0_dtlb_mshr_size 8
core_0_dtlb_hit_latency 1
core_0_dtlb_fill_latency 1
core_0_dtlb_max_tag_check 2
core_0_dtlb_max_fill 2
core_0_stlb_set 128
core_0_stlb_way 12
core_0_stlb_rq_size 32
core_0_stlb_wq_size 32
core_0_stlb_pq_size 0
core_0_stlb_mshr_size 16
core_0_stlb_hit_latency 4
core_0_stlb_fill_latency 4
core_0_stlb_max_tag_check 1
core_0_stlb_max_fill 1
core_0_l1i_set 64
core_0_l1i_way 8
core_0_l1i_rq_size 64
core_0_l1i_wq_size 64
core_0_l1i_pq_size 32
core_0_l1i_mshr_size 8
core_0_l1i_hit_latency 2
core_0_l1i_fill_latency 2
core_0_l1i_max_tag_check 2
core_0_l1i_max_fill 2
core_0_l1d_set 64
core_0_l1d_way 12
core_0_l1d_rq_size 64
core_0_l1d_wq_size 64
core_0_l1d_pq_size 8
core_0_l1d_mshr_size 16
core_0_l1d_hit_latency 2
core_0_l1d_fill_latency 3
core_0_l1d_max_tag_check 2
core_0_l1d_max_fill 2
core_0_l2c_set 1024
core_0_l2c_way 8
core_0_l2c_rq_size 32
core_0_l2c_wq_size 32
core_0_l2c_pq_size 16
core_0_l2c_mshr_size 32
core_0_l2c_hit_latency 5
core_0_l2c_fill_latency 5
core_0_l2c_max_tag_check 1
core_0_l2c_max_fill 1
llc_set 2048
llc_way 16
llc_rq_size 32
llc_wq_size 32
llc_pq_size 32
llc_mshr_size 64
llc_hit_latency 10
llc_fill_latency 10
llc_max_tag_check 1
llc_max_fill 1
dram_channels 1
dram_ranks 1
dram_bankgroups 8
dram_banks 4
dram_rows 65536
dram_columns 1024
dram_channel_width 8
dram_rq_size 64
dram_wq_size 64
dram_size 17179869184
core_0_itlb_prefetcher no
core_0_dtlb_prefetcher no
core_0_stlb_prefetcher no
core_0_l1i_prefetcher next_line
core_0_l1d_prefetcher berti
core_0_l2c_prefetcher ip_stride
llc_prefetcher no
llc_replacement drrip

Core_0_instructions 50000000
Core_0_cycles 24138749
Core_0_IPC 2.07136
Core_0_branch_prediction_accuracy 98.744
Core_0_branch_MPKI 2.25596
Core_0_average_ROB_occupancy_at_mispredict 128.698

Core_0_ITLB_total_access 6719177
Core_0_ITLB_total_hit 6244410
Core_0_ITLB_total_miss 474767
Core_0_ITLB_total_MPKI 9.49534
Core_0_ITLB_total_miss_rate 0.0706585
Core_0_ITLB_demand_access 6719177
Core_0_ITLB_demand_hit 6244410
Core_0_ITLB_demand_miss 474767
Core_0_ITLB_demand_MPKI 9.49534
Core_0_ITLB_demand_miss_rate 0.0706585
Core_0_ITLB_load_access 6719177
Core_0_ITLB_load_hit 6244410
Core_0_ITLB_load_miss 474767
Core_0_ITLB_load_MPKI 9.49534
Core_0_ITLB_load_miss_rate 0.0706585
Core_0_ITLB_rfo_access 0
Core_0_ITLB_rfo_hit 0
Core_0_ITLB_rfo_miss 0
Core_0_ITLB_rfo_MPKI 0
Core_0_ITLB_rfo_miss_rate 0
Core_0_ITLB_prefetch_access 0
Core_0_ITLB_prefetch_hit 0
Core_0_ITLB_prefetch_miss 0
Core_0_ITLB_prefetch_MPKI 0
Core_0_ITLB_prefetch_miss_rate 0
Core_0_ITLB_writeback_access 0
Core_0_ITLB_writeback_hit 0
Core_0_ITLB_writeback_miss 0
Core_0_ITLB_writeback_MPKI 0
Core_0_ITLB_writeback_miss_rate 0
Core_0_ITLB_prefetch_requested 0
Core_0_ITLB_prefetch_issued 0
Core_0_ITLB_prefetch_useful 0
Core_0_ITLB_prefetch_useless 0
Core_0_ITLB_prefetch_late 0
Core_0_ITLB_prefetch_accuracy 0
Core_0_ITLB_prefetch_coverage 0

Core_0_DTLB_total_access 11040453
Core_0_DTLB_total_hit 10174949
Core_0_DTLB_total_miss 865504
Core_0_DTLB_total_MPKI 17.3101
Core_0_DTLB_total_miss_rate 0.0783939
Core_0_DTLB_demand_access 11040453
Core_0_DTLB_demand_hit 10174949
Core_0_DTLB_demand_miss 865504
Core_0_DTLB_demand_MPKI 17.3101
Core_0_DTLB_demand_miss_rate 0.0783939
Core_0_DTLB_load_access 11040453
Core_0_DTLB_load_hit 10174949
Core_0_DTLB_load_miss 865504
Core_0_DTLB_load_MPKI 17.3101
Core_0_DTLB_load_miss_rate 0.0783939
Core_0_DTLB_rfo_access 0
Core_0_DTLB_rfo_hit 0
Core_0_DTLB_rfo_miss 0
Core_0_DTLB_rfo_MPKI 0
Core_0_DTLB_rfo_miss_rate 0
Core_0_DTLB_prefetch_access 0
Core_0_DTLB_prefetch_hit 0
Core_0_DTLB_prefetch_miss 0
Core_0_DTLB_prefetch_MPKI 0
Core_0_DTLB_prefetch_miss_rate 0
Core_0_DTLB_writeback_access 0
Core_0_DTLB_writeback_hit 0
Core_0_DTLB_writeback_miss 0
Core_0_DTLB_writeback_MPKI 0
Core_0_DTLB_writeback_miss_rate 0
Core_0_DTLB_prefetch_requested 0
Core_0_DTLB_prefetch_issued 0
Core_0_DTLB_prefetch_useful 0
Core_0_DTLB_prefetch_useless 0
Core_0_DTLB_prefetch_late 0
Core_0_DTLB_prefetch_accuracy 0
Core_0_DTLB_prefetch_coverage 0

Core_0_STLB_total_access 848440
Core_0_STLB_total_hit 844241
Core_0_STLB_total_miss 4199
Core_0_STLB_total_MPKI 0.08398
Core_0_STLB_total_miss_rate 0.00494908
Core_0_STLB_demand_access 848440
Core_0_STLB_demand_hit 844241
Core_0_STLB_demand_miss 4199
Core_0_STLB_demand_MPKI 0.08398
Core_0_STLB_demand_miss_rate 0.00494908
Core_0_STLB_load_access 848440
Core_0_STLB_load_hit 844241
Core_0_STLB_load_miss 4199
Core_0_STLB_load_MPKI 0.08398
Core_0_STLB_load_miss_rate 0.00494908
Core_0_STLB_rfo_access 0
Core_0_STLB_rfo_hit 0
Core_0_STLB_rfo_miss 0
Core_0_STLB_rfo_MPKI 0
Core_0_STLB_rfo_miss_rate 0
Core_0_STLB_prefetch_access 0
Core_0_STLB_prefetch_hit 0
Core_0_STLB_prefetch_miss 0
Core_0_STLB_prefetch_MPKI 0
Core_0_STLB_prefetch_miss_rate 0
Core_0_STLB_writeback_access 0
Core_0_STLB_writeback_hit 0
Core_0_STLB_writeback_miss 0
Core_0_STLB_writeback_MPKI 0
Core_0_STLB_writeback_miss_rate 0
Core_0_STLB_prefetch_requested 0
Core_0_STLB_prefetch_issued 0
Core_0_STLB_prefetch_useful 0
Core_0_STLB_prefetch_useless 0
Core_0_STLB_prefetch_late 0
Core_0_STLB_prefetch_accuracy 0
Core_0_STLB_prefetch_coverage 0

Core_0_L1I_total_access 7897669
Core_0_L1I_total_hit 5786334
Core_0_L1I_total_miss 2111335
Core_0_L1I_total_MPKI 42.2267
Core_0_L1I_total_miss_rate 0.267336
Core_0_L1I_demand_access 7897669
Core_0_L1I_demand_hit 5786334
Core_0_L1I_demand_miss 2111335
Core_0_L1I_demand_MPKI 42.2267
Core_0_L1I_demand_miss_rate 0.267336
Core_0_L1I_load_access 7897669
Core_0_L1I_load_hit 5786334
Core_0_L1I_load_miss 2111335
Core_0_L1I_load_MPKI 42.2267
Core_0_L1I_load_miss_rate 0.267336
Core_0_L1I_rfo_access 0
Core_0_L1I_rfo_hit 0
Core_0_L1I_rfo_miss 0
Core_0_L1I_rfo_MPKI 0
Core_0_L1I_rfo_miss_rate 0
Core_0_L1I_prefetch_access 0
Core_0_L1I_prefetch_hit 0
Core_0_L1I_prefetch_miss 0
Core_0_L1I_prefetch_MPKI 0
Core_0_L1I_prefetch_miss_rate 0
Core_0_L1I_writeback_access 0
Core_0_L1I_writeback_hit 0
Core_0_L1I_writeback_miss 0
Core_0_L1I_writeback_MPKI 0
Core_0_L1I_writeback_miss_rate 0
Core_0_L1I_prefetch_requested 0
Core_0_L1I_prefetch_issued 0
Core_0_L1I_prefetch_useful 0
Core_0_L1I_prefetch_useless 0
Core_0_L1I_prefetch_late 0
Core_0_L1I_prefetch_accuracy 0
Core_0_L1I_prefetch_coverage 0

Core_0_L1D_total_access 11820416
Core_0_L1D_total_hit 10723438
Core_0_L1D_total_miss 1096978
Core_0_L1D_total_MPKI 21.9396
Core_0_L1D_total_miss_rate 0.0928037
Core_0_L1D_demand_access 6455232
Core_0_L1D_demand_hit 5812646
Core_0_L1D_demand_miss 642586
Core_0_L1D_demand_MPKI 12.8517
Core_0_L1D_demand_miss_rate 0.099545
Core_0_L1D_load_access 6455232
Core_0_L1D_load_hit 5812646
Core_0_L1D_load_miss 642586
Core_0_L1D_load_MPKI 12.8517
Core_0_L1D_load_miss_rate 0.099545
Core_0_L1D_rfo_access 0
Core_0_L1D_rfo_hit 0
Core_0_L1D_rfo_miss 0
Core_0_L1D_rfo_MPKI 0
Core_0_L1D_rfo_miss_rate 0
Core_0_L1D_prefetch_access 412566
Core_0_L1D_prefetch_hit 156786
Core_0_L1D_prefetch_miss 255780
Core_0_L1D_prefetch_MPKI 5.1156
Core_0_L1D_prefetch_miss_rate 0.619974
Core_0_L1D_writeback_access 4952618
Core_0_L1D_writeback_hit 4754006
Core_0_L1D_writeback_miss 198612
Core_0_L1D_writeback_MPKI 3.97224
Core_0_L1D_writeback_miss_rate 0.0401024
Core_0_L1D_prefetch_requested 414715
Core_0_L1D_prefetch_issued 412558
Core_0_L1D_prefetch_useful 101149
Core_0_L1D_prefetch_useless 138223
Core_0_L1D_prefetch_late 10714
Core_0_L1D_prefetch_accuracy 0.245175
Core_0_L1D_prefetch_coverage 0.136001

Core_0_L2C_total_access 2390554
Core_0_L2C_total_hit 1492640
Core_0_L2C_total_miss 897914
Core_0_L2C_total_MPKI 17.9583
Core_0_L2C_total_miss_rate 0.375609
Core_0_L2C_demand_access 1838509
Core_0_L2C_demand_hit 1117038
Core_0_L2C_demand_miss 721471
Core_0_L2C_demand_MPKI 14.4294
Core_0_L2C_demand_miss_rate 0.392422
Core_0_L2C_load_access 1763177
Core_0_L2C_load_hit 1078628
Core_0_L2C_load_miss 684549
Core_0_L2C_load_MPKI 13.691
Core_0_L2C_load_miss_rate 0.388247
Core_0_L2C_rfo_access 75332
Core_0_L2C_rfo_hit 38410
Core_0_L2C_rfo_miss 36922
Core_0_L2C_rfo_MPKI 0.73844
Core_0_L2C_rfo_miss_rate 0.490124
Core_0_L2C_prefetch_access 285106
Core_0_L2C_prefetch_hit 110423
Core_0_L2C_prefetch_miss 174683
Core_0_L2C_prefetch_MPKI 3.49366
Core_0_L2C_prefetch_miss_rate 0.612695
Core_0_L2C_writeback_access 266939
Core_0_L2C_writeback_hit 265179
Core_0_L2C_writeback_miss 1760
Core_0_L2C_writeback_MPKI 0.0352
Core_0_L2C_writeback_miss_rate 0.00659327
Core_0_L2C_prefetch_requested 45767
Core_0_L2C_prefetch_issued 45708
Core_0_L2C_prefetch_useful 15657
Core_0_L2C_prefetch_useless 6556
Core_0_L2C_prefetch_late 186
Core_0_L2C_prefetch_accuracy 0.342544
Core_0_L2C_prefetch_coverage 0.0212405

Core_0_LLC_total_access 1023718
Core_0_LLC_total_hit 922936
Core_0_LLC_total_miss 100782
Core_0_LLC_total_MPKI 2.01564
Core_0_LLC_total_miss_rate 0.098447
Core_0_LLC_demand_access 721284
Core_0_LLC_demand_hit 681650
Core_0_LLC_demand_miss 39634
Core_0_LLC_demand_MPKI 0.79268
Core_0_LLC_demand_miss_rate 0.0549492
Core_0_LLC_load_access 684387
Core_0_LLC_load_hit 653173
Core_0_LLC_load_miss 31214
Core_0_LLC_load_MPKI 0.62428
Core_0_LLC_load_miss_rate 0.0456087
Core_0_LLC_rfo_access 36897
Core_0_LLC_rfo_hit 28477
Core_0_LLC_rfo_miss 8420
Core_0_LLC_rfo_MPKI 0.1684
Core_0_LLC_rfo_miss_rate 0.228203
Core_0_LLC_prefetch_access 158971
Core_0_LLC_prefetch_hit 100751
Core_0_LLC_prefetch_miss 58220
Core_0_LLC_prefetch_MPKI 1.1644
Core_0_LLC_prefetch_miss_rate 0.36623
Core_0_LLC_writeback_access 143463
Core_0_LLC_writeback_hit 140535
Core_0_LLC_writeback_miss 2928
Core_0_LLC_writeback_MPKI 0.05856
Core_0_LLC_writeback_miss_rate 0.0204094
Core_0_LLC_prefetch_requested 0
Core_0_LLC_prefetch_issued 0
Core_0_LLC_prefetch_useful 0
Core_0_LLC_prefetch_useless 0
Core_0_LLC_prefetch_late 0
Core_0_LLC_prefetch_accuracy 0
Core_0_LLC_prefetch_coverage 0

[DRAM Statistics]
Channel_0_RQ_row_buffer_hit 4223
Channel_0_RQ_row_buffer_miss 94359
Channel_0_WQ_row_buffer_hit 11565
Channel_0_WQ_row_buffer_miss 45527
Channel_0_WQ_full 0
Channel_0_dbus_congested 416788
DRAM_total_RQ_row_buffer_hit 4223
DRAM_total_RQ_row_buffer_miss 94359
DRAM_total_WQ_row_buffer_hit 11565
DRAM_total_WQ_row_buffer_miss 45527
DRAM_total_WQ_full 0
DRAM_total_dbus_congested 416788
DRAM_avg_congested_cycle 14.0223

======STLB miss causes ========
Core_0_STLB_miss_cause_breakdown
Core_0_STLB_cause_Demand_Data_miss 0
Core_0_STLB_cause_Demand_Data_miss_rate 0
Core_0_STLB_cause_Demand_Instruction_miss 0
Core_0_STLB_cause_Demand_Instruction_miss_rate 0
Core_0_STLB_cause_L1D_Prefetch_miss 4199
Core_0_STLB_cause_L1D_Prefetch_miss_rate 0.00494908
Core_0_STLB_cause_L1I_Prefetch_miss 0
Core_0_STLB_cause_L1I_Prefetch_miss_rate 0
Core_0_STLB_cause_Other_miss 0
Core_0_STLB_cause_Other_miss_rate 0
Core_0_STLB_Demand_miss 0
Core_0_STLB_Demand_miss_rate 0
Core_0_STLB_L1D_Prefetch_miss 4199
Core_0_STLB_L1D_Prefetch_miss_rate 0.00494908
Core_0_STLB_Other_miss 0
Core_0_STLB_Other_miss_rate 0
