[VMEM] WARNING: physical memory size is smaller than virtual memory size.

*** ChampSim Multicore Out-of-Order Simulator ***
Warmup Instructions: 20000000
Simulation Instructions: 50000000
Number of CPUs: 1
Page size: 4096
STLB ideal mode: demand
STLB ideal fill: on
Core 0: /data0/tzh/champsim_traces/QMM/srv_65_new.xz
 L1D Berti prefetcher
Off-chip DRAM Size: 16 GiB Channels: 1 Width: 64-bit Data Rate: 3205 MT/s
[BTB] WARNING: target of return is a lower address than the corresponding call. This is usually a problem with your trace.
[BTB] WARNING: target of return is a lower address than the corresponding call. This is usually a problem with your trace.
[BTB] WARNING: target of return is a lower address than the corresponding call. This is usually a problem with your trace.
[BTB] WARNING: target of return is a lower address than the corresponding call. This is usually a problem with your trace.
[BTB] WARNING: target of return is a lower address than the corresponding call. This is usually a problem with your trace.
[BTB] WARNING: target of return is a lower address than the corresponding call. This is usually a problem with your trace.
[BTB] WARNING: target of return is a lower address than the corresponding call. This is usually a problem with your trace.
[BTB] WARNING: target of return is a lower address than the corresponding call. This is usually a problem with your trace.
[BTB] WARNING: target of return is a lower address than the corresponding call. This is usually a problem with your trace.
[BTB] WARNING: target of return is a lower address than the corresponding call. This is usually a problem with your trace.
Warmup halting CPU 0 at instruction 20000000 cycle 4115274 for remainder of phase
Warmup finished CPU 0 instructions: 20000000 cycles: 4115274 cumulative IPC: 4.86 (Simulation time: 00 hr 01 min 05 sec)
Warmup complete CPU 0 instructions: 20000000 cycles: 4115274 cumulative IPC: 4.86 (Simulation time: 00 hr 01 min 05 sec)
*** Reached end of trace: (0, "/data0/tzh/champsim_traces/QMM/srv_65_new.xz")
*** Reached end of trace: (0, "/data0/tzh/champsim_traces/QMM/srv_65_new.xz")
Simulation finished CPU 0 instructions: 50000000 cycles: 23753866 cumulative IPC: 2.105 (Simulation time: 00 hr 05 min 20 sec)
Simulation complete CPU 0 instructions: 50000000 cycles: 23753866 cumulative IPC: 2.105 (Simulation time: 00 hr 05 min 20 sec)

ChampSim completed all CPUs

=== Simulation ===
CPU 0 runs /data0/tzh/champsim_traces/QMM/srv_65_new.xz

Region of Interest Statistics

CPU 0 cumulative IPC: 2.105 instructions: 50000000 cycles: 23753866
CPU 0 Branch Prediction Accuracy: 98.77% MPKI: 2.209 Average ROB Occupancy at Mispredict: 130.2
Branch type MPKI
BRANCH_DIRECT_JUMP: 0.1291
BRANCH_INDIRECT: 0.1717
BRANCH_CONDITIONAL: 1.355
BRANCH_DIRECT_CALL: 0.2379
BRANCH_INDIRECT_CALL: 0.07532
BRANCH_RETURN: 0.2399

cpu0->cpu0_STLB TOTAL        ACCESS:     788734 HIT:     784570 MISS:       4164 MSHR_MERGE:          0
cpu0->cpu0_STLB LOAD         ACCESS:     788734 HIT:     784570 MISS:       4164 MSHR_MERGE:          0
cpu0->cpu0_STLB RFO          ACCESS:          0 HIT:          0 MISS:          0 MSHR_MERGE:          0
cpu0->cpu0_STLB PREFETCH     ACCESS:          0 HIT:          0 MISS:          0 MSHR_MERGE:          0
cpu0->cpu0_STLB WRITE        ACCESS:          0 HIT:          0 MISS:          0 MSHR_MERGE:          0
cpu0->cpu0_STLB TRANSLATION  ACCESS:          0 HIT:          0 MISS:          0 MSHR_MERGE:          0
cpu0->cpu0_STLB PREFETCH REQUESTED:          0 ISSUED:          0 USEFUL:          0 USELESS:          0 LATE:          0
cpu0->cpu0_STLB AVERAGE MISS LATENCY: 104.8 cycles
cpu0->cpu0_L2C TOTAL        ACCESS:    2366006 HIT:    1505078 MISS:     860928 MSHR_MERGE:      15321
cpu0->cpu0_L2C LOAD         ACCESS:    1740827 HIT:    1088480 MISS:     652347 MSHR_MERGE:        168
cpu0->cpu0_L2C RFO          ACCESS:      74678 HIT:      38483 MISS:      36195 MSHR_MERGE:         15
cpu0->cpu0_L2C PREFETCH     ACCESS:     280312 HIT:     114282 MISS:     166030 MSHR_MERGE:      15138
cpu0->cpu0_L2C WRITE        ACCESS:     264645 HIT:     263226 MISS:       1419 MSHR_MERGE:          0
cpu0->cpu0_L2C TRANSLATION  ACCESS:       5544 HIT:        607 MISS:       4937 MSHR_MERGE:          0
cpu0->cpu0_L2C PREFETCH REQUESTED:      45198 ISSUED:      45160 USEFUL:      15270 USELESS:       6311 LATE:        183
cpu0->cpu0_L2C AVERAGE MISS LATENCY: 26.26 cycles
cpu0->cpu0_L1I TOTAL        ACCESS:    7884041 HIT:    5798004 MISS:    2086037 MSHR_MERGE:     812937
cpu0->cpu0_L1I LOAD         ACCESS:    7884041 HIT:    5798004 MISS:    2086037 MSHR_MERGE:     812937
cpu0->cpu0_L1I RFO          ACCESS:          0 HIT:          0 MISS:          0 MSHR_MERGE:          0
cpu0->cpu0_L1I PREFETCH     ACCESS:          0 HIT:          0 MISS:          0 MSHR_MERGE:          0
cpu0->cpu0_L1I WRITE        ACCESS:          0 HIT:          0 MISS:          0 MSHR_MERGE:          0
cpu0->cpu0_L1I TRANSLATION  ACCESS:          0 HIT:          0 MISS:          0 MSHR_MERGE:          0
cpu0->cpu0_L1I PREFETCH REQUESTED:          0 ISSUED:          0 USEFUL:          0 USELESS:          0 LATE:          0
cpu0->cpu0_L1I AVERAGE MISS LATENCY: 13.45 cycles
cpu0->cpu0_L1D TOTAL        ACCESS:   11799919 HIT:   10712730 MISS:    1087189 MSHR_MERGE:     304074
cpu0->cpu0_L1D LOAD         ACCESS:    6442200 HIT:    5810574 MISS:     631626 MSHR_MERGE:     163894
cpu0->cpu0_L1D RFO          ACCESS:          0 HIT:          0 MISS:          0 MSHR_MERGE:          0
cpu0->cpu0_L1D PREFETCH     ACCESS:     405671 HIT:     154182 MISS:     251489 MSHR_MERGE:      16332
cpu0->cpu0_L1D WRITE        ACCESS:    4942135 HIT:    4743612 MISS:     198523 MSHR_MERGE:     123841
cpu0->cpu0_L1D TRANSLATION  ACCESS:       9913 HIT:       4362 MISS:       5551 MSHR_MERGE:          7
cpu0->cpu0_L1D PREFETCH REQUESTED:     408270 ISSUED:     405673 USEFUL:     101138 USELESS:     134030 LATE:      10317
cpu0->cpu0_L1D AVERAGE MISS LATENCY: 28.95 cycles
cpu0->cpu0_ITLB TOTAL        ACCESS:    6702801 HIT:    6233847 MISS:     468954 MSHR_MERGE:     278996
cpu0->cpu0_ITLB LOAD         ACCESS:    6702801 HIT:    6233847 MISS:     468954 MSHR_MERGE:     278996
cpu0->cpu0_ITLB RFO          ACCESS:          0 HIT:          0 MISS:          0 MSHR_MERGE:          0
cpu0->cpu0_ITLB PREFETCH     ACCESS:          0 HIT:          0 MISS:          0 MSHR_MERGE:          0
cpu0->cpu0_ITLB WRITE        ACCESS:          0 HIT:          0 MISS:          0 MSHR_MERGE:          0
cpu0->cpu0_ITLB TRANSLATION  ACCESS:          0 HIT:          0 MISS:          0 MSHR_MERGE:          0
cpu0->cpu0_ITLB PREFETCH REQUESTED:          0 ISSUED:          0 USEFUL:          0 USELESS:          0 LATE:          0
cpu0->cpu0_ITLB AVERAGE MISS LATENCY: 5.032 cycles
cpu0->cpu0_DTLB TOTAL        ACCESS:   11015406 HIT:   10210399 MISS:     805007 MSHR_MERGE:     206231
cpu0->cpu0_DTLB LOAD         ACCESS:   11015406 HIT:   10210399 MISS:     805007 MSHR_MERGE:     206231
cpu0->cpu0_DTLB RFO          ACCESS:          0 HIT:          0 MISS:          0 MSHR_MERGE:          0
cpu0->cpu0_DTLB PREFETCH     ACCESS:          0 HIT:          0 MISS:          0 MSHR_MERGE:          0
cpu0->cpu0_DTLB WRITE        ACCESS:          0 HIT:          0 MISS:          0 MSHR_MERGE:          0
cpu0->cpu0_DTLB TRANSLATION  ACCESS:          0 HIT:          0 MISS:          0 MSHR_MERGE:          0
cpu0->cpu0_DTLB PREFETCH REQUESTED:          0 ISSUED:          0 USEFUL:          0 USELESS:          0 LATE:          0
cpu0->cpu0_DTLB AVERAGE MISS LATENCY: 5.743 cycles
cpu0->LLC TOTAL        ACCESS:     977765 HIT:     877953 MISS:      99812 MSHR_MERGE:         22
cpu0->LLC LOAD         ACCESS:     652178 HIT:     622071 MISS:      30107 MSHR_MERGE:          0
cpu0->LLC RFO          ACCESS:      36180 HIT:      27538 MISS:       8642 MSHR_MERGE:          0
cpu0->LLC PREFETCH     ACCESS:     150891 HIT:      93704 MISS:      57187 MSHR_MERGE:         22
cpu0->LLC WRITE        ACCESS:     133579 HIT:     130541 MISS:       3038 MSHR_MERGE:          0
cpu0->LLC TRANSLATION  ACCESS:       4937 HIT:       4099 MISS:        838 MSHR_MERGE:          0
cpu0->LLC PREFETCH REQUESTED:          0 ISSUED:          0 USEFUL:          0 USELESS:          0 LATE:          0
cpu0->LLC AVERAGE MISS LATENCY: 183 cycles

DRAM Statistics

Channel 0 RQ ROW_BUFFER_HIT:       3999
  ROW_BUFFER_MISS:      92743
  AVG DBUS CONGESTED CYCLE: 14.11
Channel 0 WQ ROW_BUFFER_HIT:      11300
  ROW_BUFFER_MISS:      44114
  FULL:          0
Channel 0 REFRESHES ISSUED:       1980

[ROI Statistics]
[System Configuration]
num_cpus 1
cpu_freq 4000
fetch_width 6
decode_width 6
dispatch_width 6
execute_width 6
lq_width 2
sq_width 2
retire_width 6
scheduler_size 128
branch_mispredict_penalty 15
rob_size 352
lq_size 128
sq_size 72
ifetch_buffer_size 64
decode_buffer_size 32
dispatch_buffer_size 32
register_file_size 288
decode_latency 1
dispatch_latency 1
schedule_latency 1
execute_latency 1
page_size 4096
block_size 64
core_0_itlb_set 16
core_0_itlb_way 4
core_0_itlb_rq_size 16
core_0_itlb_wq_size 16
core_0_itlb_pq_size 0
core_0_itlb_mshr_size 8
core_0_itlb_hit_latency 1
core_0_itlb_fill_latency 1
core_0_itlb_max_tag_check 2
core_0_itlb_max_fill 2
core_0_dtlb_set 16
core_0_dtlb_way 4
core_0_dtlb_rq_size 16
core_0_dtlb_wq_size 16
core_0_dtlb_pq_size 0
core_0_dtlb_mshr_size 8
core_0_dtlb_hit_latency 1
core_0_dtlb_fill_latency 1
core_0_dtlb_max_tag_check 2
core_0_dtlb_max_fill 2
core_0_stlb_set 128
core_0_stlb_way 12
core_0_stlb_rq_size 32
core_0_stlb_wq_size 32
core_0_stlb_pq_size 0
core_0_stlb_mshr_size 16
core_0_stlb_hit_latency 4
core_0_stlb_fill_latency 4
core_0_stlb_max_tag_check 1
core_0_stlb_max_fill 1
core_0_l1i_set 64
core_0_l1i_way 8
core_0_l1i_rq_size 64
core_0_l1i_wq_size 64
core_0_l1i_pq_size 32
core_0_l1i_mshr_size 8
core_0_l1i_hit_latency 2
core_0_l1i_fill_latency 2
core_0_l1i_max_tag_check 2
core_0_l1i_max_fill 2
core_0_l1d_set 64
core_0_l1d_way 12
core_0_l1d_rq_size 64
core_0_l1d_wq_size 64
core_0_l1d_pq_size 8
core_0_l1d_mshr_size 16
core_0_l1d_hit_latency 2
core_0_l1d_fill_latency 3
core_0_l1d_max_tag_check 2
core_0_l1d_max_fill 2
core_0_l2c_set 1024
core_0_l2c_way 8
core_0_l2c_rq_size 32
core_0_l2c_wq_size 32
core_0_l2c_pq_size 16
core_0_l2c_mshr_size 32
core_0_l2c_hit_latency 5
core_0_l2c_fill_latency 5
core_0_l2c_max_tag_check 1
core_0_l2c_max_fill 1
llc_set 2048
llc_way 16
llc_rq_size 32
llc_wq_size 32
llc_pq_size 32
llc_mshr_size 64
llc_hit_latency 10
llc_fill_latency 10
llc_max_tag_check 1
llc_max_fill 1
dram_channels 1
dram_ranks 1
dram_bankgroups 8
dram_banks 4
dram_rows 65536
dram_columns 1024
dram_channel_width 8
dram_rq_size 64
dram_wq_size 64
dram_size 17179869184
core_0_itlb_prefetcher no
core_0_dtlb_prefetcher no
core_0_stlb_prefetcher no
core_0_l1i_prefetcher next_line
core_0_l1d_prefetcher berti
core_0_l2c_prefetcher ip_stride
llc_prefetcher no
llc_replacement drrip

Core_0_instructions 50000000
Core_0_cycles 23753866
Core_0_IPC 2.10492
Core_0_branch_prediction_accuracy 98.7707
Core_0_branch_MPKI 2.20914
Core_0_average_ROB_occupancy_at_mispredict 130.25

Core_0_ITLB_total_access 6702801
Core_0_ITLB_total_hit 6233847
Core_0_ITLB_total_miss 468954
Core_0_ITLB_total_MPKI 9.37908
Core_0_ITLB_total_miss_rate 0.0699639
Core_0_ITLB_demand_access 6702801
Core_0_ITLB_demand_hit 6233847
Core_0_ITLB_demand_miss 468954
Core_0_ITLB_demand_MPKI 9.37908
Core_0_ITLB_demand_miss_rate 0.0699639
Core_0_ITLB_load_access 6702801
Core_0_ITLB_load_hit 6233847
Core_0_ITLB_load_miss 468954
Core_0_ITLB_load_MPKI 9.37908
Core_0_ITLB_load_miss_rate 0.0699639
Core_0_ITLB_rfo_access 0
Core_0_ITLB_rfo_hit 0
Core_0_ITLB_rfo_miss 0
Core_0_ITLB_rfo_MPKI 0
Core_0_ITLB_rfo_miss_rate 0
Core_0_ITLB_prefetch_access 0
Core_0_ITLB_prefetch_hit 0
Core_0_ITLB_prefetch_miss 0
Core_0_ITLB_prefetch_MPKI 0
Core_0_ITLB_prefetch_miss_rate 0
Core_0_ITLB_writeback_access 0
Core_0_ITLB_writeback_hit 0
Core_0_ITLB_writeback_miss 0
Core_0_ITLB_writeback_MPKI 0
Core_0_ITLB_writeback_miss_rate 0
Core_0_ITLB_prefetch_requested 0
Core_0_ITLB_prefetch_issued 0
Core_0_ITLB_prefetch_useful 0
Core_0_ITLB_prefetch_useless 0
Core_0_ITLB_prefetch_late 0
Core_0_ITLB_prefetch_accuracy 0
Core_0_ITLB_prefetch_coverage 0

Core_0_DTLB_total_access 11015406
Core_0_DTLB_total_hit 10210399
Core_0_DTLB_total_miss 805007
Core_0_DTLB_total_MPKI 16.1001
Core_0_DTLB_total_miss_rate 0.0730801
Core_0_DTLB_demand_access 11015406
Core_0_DTLB_demand_hit 10210399
Core_0_DTLB_demand_miss 805007
Core_0_DTLB_demand_MPKI 16.1001
Core_0_DTLB_demand_miss_rate 0.0730801
Core_0_DTLB_load_access 11015406
Core_0_DTLB_load_hit 10210399
Core_0_DTLB_load_miss 805007
Core_0_DTLB_load_MPKI 16.1001
Core_0_DTLB_load_miss_rate 0.0730801
Core_0_DTLB_rfo_access 0
Core_0_DTLB_rfo_hit 0
Core_0_DTLB_rfo_miss 0
Core_0_DTLB_rfo_MPKI 0
Core_0_DTLB_rfo_miss_rate 0
Core_0_DTLB_prefetch_access 0
Core_0_DTLB_prefetch_hit 0
Core_0_DTLB_prefetch_miss 0
Core_0_DTLB_prefetch_MPKI 0
Core_0_DTLB_prefetch_miss_rate 0
Core_0_DTLB_writeback_access 0
Core_0_DTLB_writeback_hit 0
Core_0_DTLB_writeback_miss 0
Core_0_DTLB_writeback_MPKI 0
Core_0_DTLB_writeback_miss_rate 0
Core_0_DTLB_prefetch_requested 0
Core_0_DTLB_prefetch_issued 0
Core_0_DTLB_prefetch_useful 0
Core_0_DTLB_prefetch_useless 0
Core_0_DTLB_prefetch_late 0
Core_0_DTLB_prefetch_accuracy 0
Core_0_DTLB_prefetch_coverage 0

Core_0_STLB_total_access 788734
Core_0_STLB_total_hit 784570
Core_0_STLB_total_miss 4164
Core_0_STLB_total_MPKI 0.08328
Core_0_STLB_total_miss_rate 0.00527935
Core_0_STLB_demand_access 788734
Core_0_STLB_demand_hit 784570
Core_0_STLB_demand_miss 4164
Core_0_STLB_demand_MPKI 0.08328
Core_0_STLB_demand_miss_rate 0.00527935
Core_0_STLB_load_access 788734
Core_0_STLB_load_hit 784570
Core_0_STLB_load_miss 4164
Core_0_STLB_load_MPKI 0.08328
Core_0_STLB_load_miss_rate 0.00527935
Core_0_STLB_rfo_access 0
Core_0_STLB_rfo_hit 0
Core_0_STLB_rfo_miss 0
Core_0_STLB_rfo_MPKI 0
Core_0_STLB_rfo_miss_rate 0
Core_0_STLB_prefetch_access 0
Core_0_STLB_prefetch_hit 0
Core_0_STLB_prefetch_miss 0
Core_0_STLB_prefetch_MPKI 0
Core_0_STLB_prefetch_miss_rate 0
Core_0_STLB_writeback_access 0
Core_0_STLB_writeback_hit 0
Core_0_STLB_writeback_miss 0
Core_0_STLB_writeback_MPKI 0
Core_0_STLB_writeback_miss_rate 0
Core_0_STLB_prefetch_requested 0
Core_0_STLB_prefetch_issued 0
Core_0_STLB_prefetch_useful 0
Core_0_STLB_prefetch_useless 0
Core_0_STLB_prefetch_late 0
Core_0_STLB_prefetch_accuracy 0
Core_0_STLB_prefetch_coverage 0

Core_0_L1I_total_access 7884041
Core_0_L1I_total_hit 5798004
Core_0_L1I_total_miss 2086037
Core_0_L1I_total_MPKI 41.7207
Core_0_L1I_total_miss_rate 0.26459
Core_0_L1I_demand_access 7884041
Core_0_L1I_demand_hit 5798004
Core_0_L1I_demand_miss 2086037
Core_0_L1I_demand_MPKI 41.7207
Core_0_L1I_demand_miss_rate 0.26459
Core_0_L1I_load_access 7884041
Core_0_L1I_load_hit 5798004
Core_0_L1I_load_miss 2086037
Core_0_L1I_load_MPKI 41.7207
Core_0_L1I_load_miss_rate 0.26459
Core_0_L1I_rfo_access 0
Core_0_L1I_rfo_hit 0
Core_0_L1I_rfo_miss 0
Core_0_L1I_rfo_MPKI 0
Core_0_L1I_rfo_miss_rate 0
Core_0_L1I_prefetch_access 0
Core_0_L1I_prefetch_hit 0
Core_0_L1I_prefetch_miss 0
Core_0_L1I_prefetch_MPKI 0
Core_0_L1I_prefetch_miss_rate 0
Core_0_L1I_writeback_access 0
Core_0_L1I_writeback_hit 0
Core_0_L1I_writeback_miss 0
Core_0_L1I_writeback_MPKI 0
Core_0_L1I_writeback_miss_rate 0
Core_0_L1I_prefetch_requested 0
Core_0_L1I_prefetch_issued 0
Core_0_L1I_prefetch_useful 0
Core_0_L1I_prefetch_useless 0
Core_0_L1I_prefetch_late 0
Core_0_L1I_prefetch_accuracy 0
Core_0_L1I_prefetch_coverage 0

Core_0_L1D_total_access 11790006
Core_0_L1D_total_hit 10708368
Core_0_L1D_total_miss 1081638
Core_0_L1D_total_MPKI 21.6328
Core_0_L1D_total_miss_rate 0.0917419
Core_0_L1D_demand_access 6442200
Core_0_L1D_demand_hit 5810574
Core_0_L1D_demand_miss 631626
Core_0_L1D_demand_MPKI 12.6325
Core_0_L1D_demand_miss_rate 0.0980451
Core_0_L1D_load_access 6442200
Core_0_L1D_load_hit 5810574
Core_0_L1D_load_miss 631626
Core_0_L1D_load_MPKI 12.6325
Core_0_L1D_load_miss_rate 0.0980451
Core_0_L1D_rfo_access 0
Core_0_L1D_rfo_hit 0
Core_0_L1D_rfo_miss 0
Core_0_L1D_rfo_MPKI 0
Core_0_L1D_rfo_miss_rate 0
Core_0_L1D_prefetch_access 405671
Core_0_L1D_prefetch_hit 154182
Core_0_L1D_prefetch_miss 251489
Core_0_L1D_prefetch_MPKI 5.02978
Core_0_L1D_prefetch_miss_rate 0.619933
Core_0_L1D_writeback_access 4942135
Core_0_L1D_writeback_hit 4743612
Core_0_L1D_writeback_miss 198523
Core_0_L1D_writeback_MPKI 3.97046
Core_0_L1D_writeback_miss_rate 0.0401695
Core_0_L1D_prefetch_requested 408270
Core_0_L1D_prefetch_issued 405673
Core_0_L1D_prefetch_useful 101138
Core_0_L1D_prefetch_useless 134030
Core_0_L1D_prefetch_late 10317
Core_0_L1D_prefetch_accuracy 0.249309
Core_0_L1D_prefetch_coverage 0.138023

Core_0_L2C_total_access 2360462
Core_0_L2C_total_hit 1504471
Core_0_L2C_total_miss 855991
Core_0_L2C_total_MPKI 17.1198
Core_0_L2C_total_miss_rate 0.362637
Core_0_L2C_demand_access 1815505
Core_0_L2C_demand_hit 1126963
Core_0_L2C_demand_miss 688542
Core_0_L2C_demand_MPKI 13.7708
Core_0_L2C_demand_miss_rate 0.379256
Core_0_L2C_load_access 1740827
Core_0_L2C_load_hit 1088480
Core_0_L2C_load_miss 652347
Core_0_L2C_load_MPKI 13.0469
Core_0_L2C_load_miss_rate 0.374734
Core_0_L2C_rfo_access 74678
Core_0_L2C_rfo_hit 38483
Core_0_L2C_rfo_miss 36195
Core_0_L2C_rfo_MPKI 0.7239
Core_0_L2C_rfo_miss_rate 0.484681
Core_0_L2C_prefetch_access 280312
Core_0_L2C_prefetch_hit 114282
Core_0_L2C_prefetch_miss 166030
Core_0_L2C_prefetch_MPKI 3.3206
Core_0_L2C_prefetch_miss_rate 0.592304
Core_0_L2C_writeback_access 264645
Core_0_L2C_writeback_hit 263226
Core_0_L2C_writeback_miss 1419
Core_0_L2C_writeback_MPKI 0.02838
Core_0_L2C_writeback_miss_rate 0.0053619
Core_0_L2C_prefetch_requested 45198
Core_0_L2C_prefetch_issued 45160
Core_0_L2C_prefetch_useful 15270
Core_0_L2C_prefetch_useless 6311
Core_0_L2C_prefetch_late 183
Core_0_L2C_prefetch_accuracy 0.338131
Core_0_L2C_prefetch_coverage 0.0216961

Core_0_LLC_total_access 972828
Core_0_LLC_total_hit 873854
Core_0_LLC_total_miss 98974
Core_0_LLC_total_MPKI 1.97948
Core_0_LLC_total_miss_rate 0.101738
Core_0_LLC_demand_access 688358
Core_0_LLC_demand_hit 649609
Core_0_LLC_demand_miss 38749
Core_0_LLC_demand_MPKI 0.77498
Core_0_LLC_demand_miss_rate 0.0562919
Core_0_LLC_load_access 652178
Core_0_LLC_load_hit 622071
Core_0_LLC_load_miss 30107
Core_0_LLC_load_MPKI 0.60214
Core_0_LLC_load_miss_rate 0.0461638
Core_0_LLC_rfo_access 36180
Core_0_LLC_rfo_hit 27538
Core_0_LLC_rfo_miss 8642
Core_0_LLC_rfo_MPKI 0.17284
Core_0_LLC_rfo_miss_rate 0.238861
Core_0_LLC_prefetch_access 150891
Core_0_LLC_prefetch_hit 93704
Core_0_LLC_prefetch_miss 57187
Core_0_LLC_prefetch_MPKI 1.14374
Core_0_LLC_prefetch_miss_rate 0.378995
Core_0_LLC_writeback_access 133579
Core_0_LLC_writeback_hit 130541
Core_0_LLC_writeback_miss 3038
Core_0_LLC_writeback_MPKI 0.06076
Core_0_LLC_writeback_miss_rate 0.0227431
Core_0_LLC_prefetch_requested 0
Core_0_LLC_prefetch_issued 0
Core_0_LLC_prefetch_useful 0
Core_0_LLC_prefetch_useless 0
Core_0_LLC_prefetch_late 0
Core_0_LLC_prefetch_accuracy 0
Core_0_LLC_prefetch_coverage 0

[DRAM Statistics]
Channel_0_RQ_row_buffer_hit 3999
Channel_0_RQ_row_buffer_miss 92743
Channel_0_WQ_row_buffer_hit 11300
Channel_0_WQ_row_buffer_miss 44114
Channel_0_WQ_full 0
Channel_0_dbus_congested 403994
DRAM_total_RQ_row_buffer_hit 3999
DRAM_total_RQ_row_buffer_miss 92743
DRAM_total_WQ_row_buffer_hit 11300
DRAM_total_WQ_row_buffer_miss 44114
DRAM_total_WQ_full 0
DRAM_total_dbus_congested 403994
DRAM_avg_congested_cycle 14.1069

======STLB miss causes ========
Core_0_STLB_miss_cause_breakdown
Core_0_STLB_cause_Demand_Data_miss 0
Core_0_STLB_cause_Demand_Data_miss_rate 0
Core_0_STLB_cause_Demand_Instruction_miss 0
Core_0_STLB_cause_Demand_Instruction_miss_rate 0
Core_0_STLB_cause_L1D_Prefetch_miss 4164
Core_0_STLB_cause_L1D_Prefetch_miss_rate 0.00527935
Core_0_STLB_cause_L1I_Prefetch_miss 0
Core_0_STLB_cause_L1I_Prefetch_miss_rate 0
Core_0_STLB_cause_Other_miss 0
Core_0_STLB_cause_Other_miss_rate 0
Core_0_STLB_Demand_miss 0
Core_0_STLB_Demand_miss_rate 0
Core_0_STLB_L1D_Prefetch_miss 4164
Core_0_STLB_L1D_Prefetch_miss_rate 0.00527935
Core_0_STLB_Other_miss 0
Core_0_STLB_Other_miss_rate 0
