[VMEM] WARNING: physical memory size is smaller than virtual memory size.

*** ChampSim Multicore Out-of-Order Simulator ***
Warmup Instructions: 20000000
Simulation Instructions: 50000000
Number of CPUs: 1
Page size: 4096
STLB ideal mode: demand
STLB ideal fill: on
Core 0: /data2/zcq/champsim_traces_xsbench/xs.XXL64nuclide-531B.champsimtrace.xz
 L1D Berti prefetcher
Off-chip DRAM Size: 16 GiB Channels: 1 Width: 64-bit Data Rate: 3205 MT/s
Warmup halting CPU 0 at instruction 20000005 cycle 4752856 for remainder of phase
Warmup finished CPU 0 instructions: 20000005 cycles: 4752856 cumulative IPC: 4.208 (Simulation time: 00 hr 01 min 00 sec)
Warmup complete CPU 0 instructions: 20000005 cycles: 4752856 cumulative IPC: 4.208 (Simulation time: 00 hr 01 min 00 sec)
Simulation finished CPU 0 instructions: 50000002 cycles: 264386451 cumulative IPC: 0.1891 (Simulation time: 00 hr 15 min 40 sec)
Simulation complete CPU 0 instructions: 50000002 cycles: 264386451 cumulative IPC: 0.1891 (Simulation time: 00 hr 15 min 40 sec)

ChampSim completed all CPUs

=== Simulation ===
CPU 0 runs /data2/zcq/champsim_traces_xsbench/xs.XXL64nuclide-531B.champsimtrace.xz

Region of Interest Statistics

CPU 0 cumulative IPC: 0.1891 instructions: 50000002 cycles: 264386451
CPU 0 Branch Prediction Accuracy: 87.22% MPKI: 21.54 Average ROB Occupancy at Mispredict: 26.07
Branch type MPKI
BRANCH_DIRECT_JUMP: 0
BRANCH_INDIRECT: 0
BRANCH_CONDITIONAL: 21.54
BRANCH_DIRECT_CALL: 0
BRANCH_INDIRECT_CALL: 0
BRANCH_RETURN: 0

cpu0->cpu0_STLB TOTAL        ACCESS:    2072708 HIT:    1990579 MISS:      82129 MSHR_MERGE:          0
cpu0->cpu0_STLB LOAD         ACCESS:    2072708 HIT:    1990579 MISS:      82129 MSHR_MERGE:          0
cpu0->cpu0_STLB RFO          ACCESS:          0 HIT:          0 MISS:          0 MSHR_MERGE:          0
cpu0->cpu0_STLB PREFETCH     ACCESS:          0 HIT:          0 MISS:          0 MSHR_MERGE:          0
cpu0->cpu0_STLB WRITE        ACCESS:          0 HIT:          0 MISS:          0 MSHR_MERGE:          0
cpu0->cpu0_STLB TRANSLATION  ACCESS:          0 HIT:          0 MISS:          0 MSHR_MERGE:          0
cpu0->cpu0_STLB PREFETCH REQUESTED:          0 ISSUED:          0 USEFUL:          0 USELESS:          0 LATE:          0
cpu0->cpu0_STLB AVERAGE MISS LATENCY: 448.9 cycles
cpu0->cpu0_L2C TOTAL        ACCESS:    3657223 HIT:     247469 MISS:    3409754 MSHR_MERGE:       2813
cpu0->cpu0_L2C LOAD         ACCESS:    2966525 HIT:     165378 MISS:    2801147 MSHR_MERGE:          0
cpu0->cpu0_L2C RFO          ACCESS:       5092 HIT:       4846 MISS:        246 MSHR_MERGE:          0
cpu0->cpu0_L2C PREFETCH     ACCESS:     536814 HIT:      58233 MISS:     478581 MSHR_MERGE:       2813
cpu0->cpu0_L2C WRITE        ACCESS:       7273 HIT:       7213 MISS:         60 MSHR_MERGE:          0
cpu0->cpu0_L2C TRANSLATION  ACCESS:     141519 HIT:      11799 MISS:     129720 MSHR_MERGE:          0
cpu0->cpu0_L2C PREFETCH REQUESTED:     127688 ISSUED:     127688 USEFUL:       5032 USELESS:      70132 LATE:          0
cpu0->cpu0_L2C AVERAGE MISS LATENCY: 180.2 cycles
cpu0->cpu0_L1I TOTAL        ACCESS:      10455 HIT:      10455 MISS:          0 MSHR_MERGE:          0
cpu0->cpu0_L1I LOAD         ACCESS:      10455 HIT:      10455 MISS:          0 MSHR_MERGE:          0
cpu0->cpu0_L1I RFO          ACCESS:          0 HIT:          0 MISS:          0 MSHR_MERGE:          0
cpu0->cpu0_L1I PREFETCH     ACCESS:          0 HIT:          0 MISS:          0 MSHR_MERGE:          0
cpu0->cpu0_L1I WRITE        ACCESS:          0 HIT:          0 MISS:          0 MSHR_MERGE:          0
cpu0->cpu0_L1I TRANSLATION  ACCESS:          0 HIT:          0 MISS:          0 MSHR_MERGE:          0
cpu0->cpu0_L1I PREFETCH REQUESTED:          0 ISSUED:          0 USEFUL:          0 USELESS:          0 LATE:          0
cpu0->cpu0_L1I AVERAGE MISS LATENCY: - cycles
cpu0->cpu0_L1D TOTAL        ACCESS:    6349533 HIT:    2743200 MISS:    3606333 MSHR_MERGE:      84058
cpu0->cpu0_L1D LOAD         ACCESS:    4781200 HIT:    1762436 MISS:    3018764 MSHR_MERGE:      52240
cpu0->cpu0_L1D RFO          ACCESS:          0 HIT:          0 MISS:          0 MSHR_MERGE:          0
cpu0->cpu0_L1D PREFETCH     ACCESS:     434359 HIT:      20781 MISS:     413578 MSHR_MERGE:       4452
cpu0->cpu0_L1D WRITE        ACCESS:     905471 HIT:     885517 MISS:      19954 MSHR_MERGE:      14848
cpu0->cpu0_L1D TRANSLATION  ACCESS:     228503 HIT:      74466 MISS:     154037 MSHR_MERGE:      12518
cpu0->cpu0_L1D PREFETCH REQUESTED:     434358 ISSUED:     434358 USEFUL:      29869 USELESS:     379257 LATE:       4075
cpu0->cpu0_L1D AVERAGE MISS LATENCY: 178.7 cycles
cpu0->cpu0_ITLB TOTAL        ACCESS:       8472 HIT:       8472 MISS:          0 MSHR_MERGE:          0
cpu0->cpu0_ITLB LOAD         ACCESS:       8472 HIT:       8472 MISS:          0 MSHR_MERGE:          0
cpu0->cpu0_ITLB RFO          ACCESS:          0 HIT:          0 MISS:          0 MSHR_MERGE:          0
cpu0->cpu0_ITLB PREFETCH     ACCESS:          0 HIT:          0 MISS:          0 MSHR_MERGE:          0
cpu0->cpu0_ITLB WRITE        ACCESS:          0 HIT:          0 MISS:          0 MSHR_MERGE:          0
cpu0->cpu0_ITLB TRANSLATION  ACCESS:          0 HIT:          0 MISS:          0 MSHR_MERGE:          0
cpu0->cpu0_ITLB PREFETCH REQUESTED:          0 ISSUED:          0 USEFUL:          0 USELESS:          0 LATE:          0
cpu0->cpu0_ITLB AVERAGE MISS LATENCY: - cycles
cpu0->cpu0_DTLB TOTAL        ACCESS:    6051658 HIT:    3903167 MISS:    2148491 MSHR_MERGE:      75783
cpu0->cpu0_DTLB LOAD         ACCESS:    6051658 HIT:    3903167 MISS:    2148491 MSHR_MERGE:      75783
cpu0->cpu0_DTLB RFO          ACCESS:          0 HIT:          0 MISS:          0 MSHR_MERGE:          0
cpu0->cpu0_DTLB PREFETCH     ACCESS:          0 HIT:          0 MISS:          0 MSHR_MERGE:          0
cpu0->cpu0_DTLB WRITE        ACCESS:          0 HIT:          0 MISS:          0 MSHR_MERGE:          0
cpu0->cpu0_DTLB TRANSLATION  ACCESS:          0 HIT:          0 MISS:          0 MSHR_MERGE:          0
cpu0->cpu0_DTLB PREFETCH REQUESTED:          0 ISSUED:          0 USEFUL:          0 USELESS:          0 LATE:          0
cpu0->cpu0_DTLB AVERAGE MISS LATENCY: 22.84 cycles
cpu0->LLC TOTAL        ACCESS:    3408115 HIT:     677015 MISS:    2731100 MSHR_MERGE:          0
cpu0->LLC LOAD         ACCESS:    2801147 HIT:     608827 MISS:    2192320 MSHR_MERGE:          0
cpu0->LLC RFO          ACCESS:        246 HIT:        246 MISS:          0 MSHR_MERGE:          0
cpu0->LLC PREFETCH     ACCESS:     475768 HIT:      14237 MISS:     461531 MSHR_MERGE:          0
cpu0->LLC WRITE        ACCESS:       1234 HIT:       1231 MISS:          3 MSHR_MERGE:          0
cpu0->LLC TRANSLATION  ACCESS:     129720 HIT:      52474 MISS:      77246 MSHR_MERGE:          0
cpu0->LLC PREFETCH REQUESTED:          0 ISSUED:          0 USEFUL:          0 USELESS:          0 LATE:          0
cpu0->LLC AVERAGE MISS LATENCY: 212.4 cycles

DRAM Statistics

Channel 0 RQ ROW_BUFFER_HIT:      22076
  ROW_BUFFER_MISS:    2709021
  AVG DBUS CONGESTED CYCLE: 2.989
Channel 0 WQ ROW_BUFFER_HIT:          2
  ROW_BUFFER_MISS:          1
  FULL:          0
Channel 0 REFRESHES ISSUED:      22032

[ROI Statistics]
[System Configuration]
num_cpus 1
cpu_freq 4000
fetch_width 6
decode_width 6
dispatch_width 6
execute_width 6
lq_width 2
sq_width 2
retire_width 6
scheduler_size 128
branch_mispredict_penalty 15
rob_size 352
lq_size 128
sq_size 72
ifetch_buffer_size 64
decode_buffer_size 32
dispatch_buffer_size 32
register_file_size 288
decode_latency 1
dispatch_latency 1
schedule_latency 1
execute_latency 1
page_size 4096
block_size 64
core_0_itlb_set 16
core_0_itlb_way 4
core_0_itlb_rq_size 16
core_0_itlb_wq_size 16
core_0_itlb_pq_size 0
core_0_itlb_mshr_size 8
core_0_itlb_hit_latency 1
core_0_itlb_fill_latency 1
core_0_itlb_max_tag_check 2
core_0_itlb_max_fill 2
core_0_dtlb_set 16
core_0_dtlb_way 4
core_0_dtlb_rq_size 16
core_0_dtlb_wq_size 16
core_0_dtlb_pq_size 0
core_0_dtlb_mshr_size 8
core_0_dtlb_hit_latency 1
core_0_dtlb_fill_latency 1
core_0_dtlb_max_tag_check 2
core_0_dtlb_max_fill 2
core_0_stlb_set 128
core_0_stlb_way 12
core_0_stlb_rq_size 32
core_0_stlb_wq_size 32
core_0_stlb_pq_size 0
core_0_stlb_mshr_size 16
core_0_stlb_hit_latency 4
core_0_stlb_fill_latency 4
core_0_stlb_max_tag_check 1
core_0_stlb_max_fill 1
core_0_l1i_set 64
core_0_l1i_way 8
core_0_l1i_rq_size 64
core_0_l1i_wq_size 64
core_0_l1i_pq_size 32
core_0_l1i_mshr_size 8
core_0_l1i_hit_latency 2
core_0_l1i_fill_latency 2
core_0_l1i_max_tag_check 2
core_0_l1i_max_fill 2
core_0_l1d_set 64
core_0_l1d_way 12
core_0_l1d_rq_size 64
core_0_l1d_wq_size 64
core_0_l1d_pq_size 8
core_0_l1d_mshr_size 16
core_0_l1d_hit_latency 2
core_0_l1d_fill_latency 3
core_0_l1d_max_tag_check 2
core_0_l1d_max_fill 2
core_0_l2c_set 1024
core_0_l2c_way 8
core_0_l2c_rq_size 32
core_0_l2c_wq_size 32
core_0_l2c_pq_size 16
core_0_l2c_mshr_size 32
core_0_l2c_hit_latency 5
core_0_l2c_fill_latency 5
core_0_l2c_max_tag_check 1
core_0_l2c_max_fill 1
llc_set 2048
llc_way 16
llc_rq_size 32
llc_wq_size 32
llc_pq_size 32
llc_mshr_size 64
llc_hit_latency 10
llc_fill_latency 10
llc_max_tag_check 1
llc_max_fill 1
dram_channels 1
dram_ranks 1
dram_bankgroups 8
dram_banks 4
dram_rows 65536
dram_columns 1024
dram_channel_width 8
dram_rq_size 64
dram_wq_size 64
dram_size 17179869184
core_0_itlb_prefetcher no
core_0_dtlb_prefetcher no
core_0_stlb_prefetcher no
core_0_l1i_prefetcher next_line
core_0_l1d_prefetcher berti
core_0_l2c_prefetcher ip_stride
llc_prefetcher no
llc_replacement drrip

Core_0_instructions 50000002
Core_0_cycles 264386451
Core_0_IPC 0.189117
Core_0_branch_prediction_accuracy 87.2242
Core_0_branch_MPKI 21.5414
Core_0_average_ROB_occupancy_at_mispredict 26.0696

Core_0_ITLB_total_access 8472
Core_0_ITLB_total_hit 8472
Core_0_ITLB_total_miss 0
Core_0_ITLB_total_MPKI 0
Core_0_ITLB_total_miss_rate 0
Core_0_ITLB_demand_access 8472
Core_0_ITLB_demand_hit 8472
Core_0_ITLB_demand_miss 0
Core_0_ITLB_demand_MPKI 0
Core_0_ITLB_demand_miss_rate 0
Core_0_ITLB_load_access 8472
Core_0_ITLB_load_hit 8472
Core_0_ITLB_load_miss 0
Core_0_ITLB_load_MPKI 0
Core_0_ITLB_load_miss_rate 0
Core_0_ITLB_rfo_access 0
Core_0_ITLB_rfo_hit 0
Core_0_ITLB_rfo_miss 0
Core_0_ITLB_rfo_MPKI 0
Core_0_ITLB_rfo_miss_rate 0
Core_0_ITLB_prefetch_access 0
Core_0_ITLB_prefetch_hit 0
Core_0_ITLB_prefetch_miss 0
Core_0_ITLB_prefetch_MPKI 0
Core_0_ITLB_prefetch_miss_rate 0
Core_0_ITLB_writeback_access 0
Core_0_ITLB_writeback_hit 0
Core_0_ITLB_writeback_miss 0
Core_0_ITLB_writeback_MPKI 0
Core_0_ITLB_writeback_miss_rate 0
Core_0_ITLB_prefetch_requested 0
Core_0_ITLB_prefetch_issued 0
Core_0_ITLB_prefetch_useful 0
Core_0_ITLB_prefetch_useless 0
Core_0_ITLB_prefetch_late 0
Core_0_ITLB_prefetch_accuracy 0
Core_0_ITLB_prefetch_coverage 0
Core_0_ITLB_total_eviction 0

Core_0_DTLB_total_access 6051658
Core_0_DTLB_total_hit 3903167
Core_0_DTLB_total_miss 2148491
Core_0_DTLB_total_MPKI 42.9698
Core_0_DTLB_total_miss_rate 0.355025
Core_0_DTLB_demand_access 6051658
Core_0_DTLB_demand_hit 3903167
Core_0_DTLB_demand_miss 2148491
Core_0_DTLB_demand_MPKI 42.9698
Core_0_DTLB_demand_miss_rate 0.355025
Core_0_DTLB_load_access 6051658
Core_0_DTLB_load_hit 3903167
Core_0_DTLB_load_miss 2148491
Core_0_DTLB_load_MPKI 42.9698
Core_0_DTLB_load_miss_rate 0.355025
Core_0_DTLB_rfo_access 0
Core_0_DTLB_rfo_hit 0
Core_0_DTLB_rfo_miss 0
Core_0_DTLB_rfo_MPKI 0
Core_0_DTLB_rfo_miss_rate 0
Core_0_DTLB_prefetch_access 0
Core_0_DTLB_prefetch_hit 0
Core_0_DTLB_prefetch_miss 0
Core_0_DTLB_prefetch_MPKI 0
Core_0_DTLB_prefetch_miss_rate 0
Core_0_DTLB_writeback_access 0
Core_0_DTLB_writeback_hit 0
Core_0_DTLB_writeback_miss 0
Core_0_DTLB_writeback_MPKI 0
Core_0_DTLB_writeback_miss_rate 0
Core_0_DTLB_prefetch_requested 0
Core_0_DTLB_prefetch_issued 0
Core_0_DTLB_prefetch_useful 0
Core_0_DTLB_prefetch_useless 0
Core_0_DTLB_prefetch_late 0
Core_0_DTLB_prefetch_accuracy 0
Core_0_DTLB_prefetch_coverage 0
Core_0_DTLB_total_eviction 2072708

Core_0_STLB_total_access 2072708
Core_0_STLB_total_hit 1990579
Core_0_STLB_total_miss 82129
Core_0_STLB_total_MPKI 1.64258
Core_0_STLB_total_miss_rate 0.039624
Core_0_STLB_demand_access 2072708
Core_0_STLB_demand_hit 1990579
Core_0_STLB_demand_miss 82129
Core_0_STLB_demand_MPKI 1.64258
Core_0_STLB_demand_miss_rate 0.039624
Core_0_STLB_load_access 2072708
Core_0_STLB_load_hit 1990579
Core_0_STLB_load_miss 82129
Core_0_STLB_load_MPKI 1.64258
Core_0_STLB_load_miss_rate 0.039624
Core_0_STLB_rfo_access 0
Core_0_STLB_rfo_hit 0
Core_0_STLB_rfo_miss 0
Core_0_STLB_rfo_MPKI 0
Core_0_STLB_rfo_miss_rate 0
Core_0_STLB_prefetch_access 0
Core_0_STLB_prefetch_hit 0
Core_0_STLB_prefetch_miss 0
Core_0_STLB_prefetch_MPKI 0
Core_0_STLB_prefetch_miss_rate 0
Core_0_STLB_writeback_access 0
Core_0_STLB_writeback_hit 0
Core_0_STLB_writeback_miss 0
Core_0_STLB_writeback_MPKI 0
Core_0_STLB_writeback_miss_rate 0
Core_0_STLB_prefetch_requested 0
Core_0_STLB_prefetch_issued 0
Core_0_STLB_prefetch_useful 0
Core_0_STLB_prefetch_useless 0
Core_0_STLB_prefetch_late 0
Core_0_STLB_prefetch_accuracy 0
Core_0_STLB_prefetch_coverage 0
Core_0_STLB_total_eviction 2003103

Core_0_L1I_total_access 10455
Core_0_L1I_total_hit 10455
Core_0_L1I_total_miss 0
Core_0_L1I_total_MPKI 0
Core_0_L1I_total_miss_rate 0
Core_0_L1I_demand_access 10455
Core_0_L1I_demand_hit 10455
Core_0_L1I_demand_miss 0
Core_0_L1I_demand_MPKI 0
Core_0_L1I_demand_miss_rate 0
Core_0_L1I_load_access 10455
Core_0_L1I_load_hit 10455
Core_0_L1I_load_miss 0
Core_0_L1I_load_MPKI 0
Core_0_L1I_load_miss_rate 0
Core_0_L1I_rfo_access 0
Core_0_L1I_rfo_hit 0
Core_0_L1I_rfo_miss 0
Core_0_L1I_rfo_MPKI 0
Core_0_L1I_rfo_miss_rate 0
Core_0_L1I_prefetch_access 0
Core_0_L1I_prefetch_hit 0
Core_0_L1I_prefetch_miss 0
Core_0_L1I_prefetch_MPKI 0
Core_0_L1I_prefetch_miss_rate 0
Core_0_L1I_writeback_access 0
Core_0_L1I_writeback_hit 0
Core_0_L1I_writeback_miss 0
Core_0_L1I_writeback_MPKI 0
Core_0_L1I_writeback_miss_rate 0
Core_0_L1I_prefetch_requested 0
Core_0_L1I_prefetch_issued 0
Core_0_L1I_prefetch_useful 0
Core_0_L1I_prefetch_useless 0
Core_0_L1I_prefetch_late 0
Core_0_L1I_prefetch_accuracy 0
Core_0_L1I_prefetch_coverage 0
Core_0_L1I_total_eviction 0

Core_0_L1D_total_access 6121030
Core_0_L1D_total_hit 2668734
Core_0_L1D_total_miss 3452296
Core_0_L1D_total_MPKI 69.0459
Core_0_L1D_total_miss_rate 0.564006
Core_0_L1D_demand_access 4781200
Core_0_L1D_demand_hit 1762436
Core_0_L1D_demand_miss 3018764
Core_0_L1D_demand_MPKI 60.3753
Core_0_L1D_demand_miss_rate 0.631382
Core_0_L1D_load_access 4781200
Core_0_L1D_load_hit 1762436
Core_0_L1D_load_miss 3018764
Core_0_L1D_load_MPKI 60.3753
Core_0_L1D_load_miss_rate 0.631382
Core_0_L1D_rfo_access 0
Core_0_L1D_rfo_hit 0
Core_0_L1D_rfo_miss 0
Core_0_L1D_rfo_MPKI 0
Core_0_L1D_rfo_miss_rate 0
Core_0_L1D_prefetch_access 434359
Core_0_L1D_prefetch_hit 20781
Core_0_L1D_prefetch_miss 413578
Core_0_L1D_prefetch_MPKI 8.27156
Core_0_L1D_prefetch_miss_rate 0.952157
Core_0_L1D_writeback_access 905471
Core_0_L1D_writeback_hit 885517
Core_0_L1D_writeback_miss 19954
Core_0_L1D_writeback_MPKI 0.39908
Core_0_L1D_writeback_miss_rate 0.0220371
Core_0_L1D_prefetch_requested 434358
Core_0_L1D_prefetch_issued 434358
Core_0_L1D_prefetch_useful 29869
Core_0_L1D_prefetch_useless 379257
Core_0_L1D_prefetch_late 4075
Core_0_L1D_prefetch_accuracy 0.0687659
Core_0_L1D_prefetch_coverage 0.00979751
Core_0_L1D_total_eviction 3522277

Core_0_L2C_total_access 3515704
Core_0_L2C_total_hit 235670
Core_0_L2C_total_miss 3280034
Core_0_L2C_total_MPKI 65.6007
Core_0_L2C_total_miss_rate 0.932966
Core_0_L2C_demand_access 2971617
Core_0_L2C_demand_hit 170224
Core_0_L2C_demand_miss 2801393
Core_0_L2C_demand_MPKI 56.0279
Core_0_L2C_demand_miss_rate 0.942717
Core_0_L2C_load_access 2966525
Core_0_L2C_load_hit 165378
Core_0_L2C_load_miss 2801147
Core_0_L2C_load_MPKI 56.0229
Core_0_L2C_load_miss_rate 0.944252
Core_0_L2C_rfo_access 5092
Core_0_L2C_rfo_hit 4846
Core_0_L2C_rfo_miss 246
Core_0_L2C_rfo_MPKI 0.00492
Core_0_L2C_rfo_miss_rate 0.0483111
Core_0_L2C_prefetch_access 536814
Core_0_L2C_prefetch_hit 58233
Core_0_L2C_prefetch_miss 478581
Core_0_L2C_prefetch_MPKI 9.57162
Core_0_L2C_prefetch_miss_rate 0.891521
Core_0_L2C_writeback_access 7273
Core_0_L2C_writeback_hit 7213
Core_0_L2C_writeback_miss 60
Core_0_L2C_writeback_MPKI 0.0012
Core_0_L2C_writeback_miss_rate 0.00824969
Core_0_L2C_prefetch_requested 127688
Core_0_L2C_prefetch_issued 127688
Core_0_L2C_prefetch_useful 5032
Core_0_L2C_prefetch_useless 70132
Core_0_L2C_prefetch_late 0
Core_0_L2C_prefetch_accuracy 0.0394086
Core_0_L2C_prefetch_coverage 0.00179303
Core_0_L2C_total_eviction 3406875

Core_0_LLC_total_access 3278395
Core_0_LLC_total_hit 624541
Core_0_LLC_total_miss 2653854
Core_0_LLC_total_MPKI 53.0771
Core_0_LLC_total_miss_rate 0.809498
Core_0_LLC_demand_access 2801393
Core_0_LLC_demand_hit 609073
Core_0_LLC_demand_miss 2192320
Core_0_LLC_demand_MPKI 43.8464
Core_0_LLC_demand_miss_rate 0.782582
Core_0_LLC_load_access 2801147
Core_0_LLC_load_hit 608827
Core_0_LLC_load_miss 2192320
Core_0_LLC_load_MPKI 43.8464
Core_0_LLC_load_miss_rate 0.782651
Core_0_LLC_rfo_access 246
Core_0_LLC_rfo_hit 246
Core_0_LLC_rfo_miss 0
Core_0_LLC_rfo_MPKI 0
Core_0_LLC_rfo_miss_rate 0
Core_0_LLC_prefetch_access 475768
Core_0_LLC_prefetch_hit 14237
Core_0_LLC_prefetch_miss 461531
Core_0_LLC_prefetch_MPKI 9.23062
Core_0_LLC_prefetch_miss_rate 0.970076
Core_0_LLC_writeback_access 1234
Core_0_LLC_writeback_hit 1231
Core_0_LLC_writeback_miss 3
Core_0_LLC_writeback_MPKI 6e-05
Core_0_LLC_writeback_miss_rate 0.00243112
Core_0_LLC_prefetch_requested 0
Core_0_LLC_prefetch_issued 0
Core_0_LLC_prefetch_useful 0
Core_0_LLC_prefetch_useless 0
Core_0_LLC_prefetch_late 0
Core_0_LLC_prefetch_accuracy 0
Core_0_LLC_prefetch_coverage 0
Core_0_LLC_total_eviction 2731101

[DRAM Statistics]
Channel_0_RQ_row_buffer_hit 22076
Channel_0_RQ_row_buffer_miss 2709021
Channel_0_WQ_row_buffer_hit 2
Channel_0_WQ_row_buffer_miss 1
Channel_0_WQ_full 0
Channel_0_dbus_congested 3957339
DRAM_total_RQ_row_buffer_hit 22076
DRAM_total_RQ_row_buffer_miss 2709021
DRAM_total_WQ_row_buffer_hit 2
DRAM_total_WQ_row_buffer_miss 1
DRAM_total_WQ_full 0
DRAM_total_dbus_congested 3957339
DRAM_avg_congested_cycle 2.98919

======STLB miss causes ========
Core_0_STLB_miss_cause_breakdown
Core_0_STLB_cause_Demand_Data_miss 0
Core_0_STLB_cause_Demand_Data_miss_rate 0
Core_0_STLB_cause_Demand_Instruction_miss 0
Core_0_STLB_cause_Demand_Instruction_miss_rate 0
Core_0_STLB_cause_L1D_Prefetch_miss 82129
Core_0_STLB_cause_L1D_Prefetch_miss_rate 0.039624
Core_0_STLB_cause_L1I_Prefetch_miss 0
Core_0_STLB_cause_L1I_Prefetch_miss_rate 0
Core_0_STLB_cause_Other_miss 0
Core_0_STLB_cause_Other_miss_rate 0
Core_0_STLB_Demand_miss 0
Core_0_STLB_Demand_miss_rate 0
Core_0_STLB_L1D_Prefetch_miss 82129
Core_0_STLB_L1D_Prefetch_miss_rate 0.039624
Core_0_STLB_Other_miss 0
Core_0_STLB_Other_miss_rate 0
