[VMEM] WARNING: physical memory size is smaller than virtual memory size.

*** ChampSim Multicore Out-of-Order Simulator ***
Warmup Instructions: 20000000
Simulation Instructions: 50000000
Number of CPUs: 1
Page size: 4096
STLB ideal mode: demand
STLB ideal fill: on
Core 0: /data2/zcq/champsim_traces_xsbench/xs.XL64nuclide-7B.champsimtrace.xz
 L1D Berti prefetcher
Off-chip DRAM Size: 16 GiB Channels: 1 Width: 64-bit Data Rate: 3205 MT/s
Warmup halting CPU 0 at instruction 20000000 cycle 4907718 for remainder of phase
Warmup finished CPU 0 instructions: 20000000 cycles: 4907718 cumulative IPC: 4.075 (Simulation time: 00 hr 00 min 52 sec)
Warmup complete CPU 0 instructions: 20000000 cycles: 4907718 cumulative IPC: 4.075 (Simulation time: 00 hr 00 min 52 sec)
Simulation finished CPU 0 instructions: 50000000 cycles: 155910234 cumulative IPC: 0.3207 (Simulation time: 00 hr 13 min 08 sec)
Simulation complete CPU 0 instructions: 50000000 cycles: 155910234 cumulative IPC: 0.3207 (Simulation time: 00 hr 13 min 08 sec)

ChampSim completed all CPUs

=== Simulation ===
CPU 0 runs /data2/zcq/champsim_traces_xsbench/xs.XL64nuclide-7B.champsimtrace.xz

Region of Interest Statistics

CPU 0 cumulative IPC: 0.3207 instructions: 50000000 cycles: 155910234
CPU 0 Branch Prediction Accuracy: 93.14% MPKI: 16.33 Average ROB Occupancy at Mispredict: 41.54
Branch type MPKI
BRANCH_DIRECT_JUMP: 0.00026
BRANCH_INDIRECT: 0
BRANCH_CONDITIONAL: 16.33
BRANCH_DIRECT_CALL: 0.00016
BRANCH_INDIRECT_CALL: 4e-05
BRANCH_RETURN: 0.00052

cpu0->cpu0_STLB TOTAL        ACCESS:     980871 HIT:     978780 MISS:       2091 MSHR_MERGE:          0
cpu0->cpu0_STLB LOAD         ACCESS:     980871 HIT:     978780 MISS:       2091 MSHR_MERGE:          0
cpu0->cpu0_STLB RFO          ACCESS:          0 HIT:          0 MISS:          0 MSHR_MERGE:          0
cpu0->cpu0_STLB PREFETCH     ACCESS:          0 HIT:          0 MISS:          0 MSHR_MERGE:          0
cpu0->cpu0_STLB WRITE        ACCESS:          0 HIT:          0 MISS:          0 MSHR_MERGE:          0
cpu0->cpu0_STLB TRANSLATION  ACCESS:          0 HIT:          0 MISS:          0 MSHR_MERGE:          0
cpu0->cpu0_STLB PREFETCH REQUESTED:          0 ISSUED:          0 USEFUL:          0 USELESS:          0 LATE:          0
cpu0->cpu0_STLB AVERAGE MISS LATENCY: 254.2 cycles
cpu0->cpu0_L2C TOTAL        ACCESS:    2839332 HIT:    1267059 MISS:    1572273 MSHR_MERGE:      76436
cpu0->cpu0_L2C LOAD         ACCESS:    1337711 HIT:     216887 MISS:    1120824 MSHR_MERGE:      12026
cpu0->cpu0_L2C RFO          ACCESS:     163525 HIT:      31589 MISS:     131936 MSHR_MERGE:          0
cpu0->cpu0_L2C PREFETCH     ACCESS:     528752 HIT:     210939 MISS:     317813 MSHR_MERGE:      64410
cpu0->cpu0_L2C WRITE        ACCESS:     807253 HIT:     807235 MISS:         18 MSHR_MERGE:          0
cpu0->cpu0_L2C TRANSLATION  ACCESS:       2091 HIT:        409 MISS:       1682 MSHR_MERGE:          0
cpu0->cpu0_L2C PREFETCH REQUESTED:     247556 ISSUED:     240496 USEFUL:      63031 USELESS:      10203 LATE:      12026
cpu0->cpu0_L2C AVERAGE MISS LATENCY: 205.9 cycles
cpu0->cpu0_L1I TOTAL        ACCESS:    1245051 HIT:    1244987 MISS:         64 MSHR_MERGE:         10
cpu0->cpu0_L1I LOAD         ACCESS:    1245051 HIT:    1244987 MISS:         64 MSHR_MERGE:         10
cpu0->cpu0_L1I RFO          ACCESS:          0 HIT:          0 MISS:          0 MSHR_MERGE:          0
cpu0->cpu0_L1I PREFETCH     ACCESS:          0 HIT:          0 MISS:          0 MSHR_MERGE:          0
cpu0->cpu0_L1I WRITE        ACCESS:          0 HIT:          0 MISS:          0 MSHR_MERGE:          0
cpu0->cpu0_L1I TRANSLATION  ACCESS:          0 HIT:          0 MISS:          0 MSHR_MERGE:          0
cpu0->cpu0_L1I PREFETCH REQUESTED:          0 ISSUED:          0 USEFUL:          0 USELESS:          0 LATE:          0
cpu0->cpu0_L1I AVERAGE MISS LATENCY: 222.7 cycles
cpu0->cpu0_L1D TOTAL        ACCESS:   16356641 HIT:   13379522 MISS:    2977119 MSHR_MERGE:    1185589
cpu0->cpu0_L1D LOAD         ACCESS:    9256741 HIT:    7322108 MISS:    1934633 MSHR_MERGE:     596976
cpu0->cpu0_L1D RFO          ACCESS:          0 HIT:          0 MISS:          0 MSHR_MERGE:          0
cpu0->cpu0_L1D PREFETCH     ACCESS:     389931 HIT:      79293 MISS:     310638 MSHR_MERGE:      22382
cpu0->cpu0_L1D WRITE        ACCESS:    6705781 HIT:    5976024 MISS:     729757 MSHR_MERGE:     566231
cpu0->cpu0_L1D TRANSLATION  ACCESS:       4188 HIT:       2097 MISS:       2091 MSHR_MERGE:          0
cpu0->cpu0_L1D PREFETCH REQUESTED:     425061 ISSUED:     389931 USEFUL:     198265 USELESS:      89972 LATE:      23836
cpu0->cpu0_L1D AVERAGE MISS LATENCY: 180.7 cycles
cpu0->cpu0_ITLB TOTAL        ACCESS:    1058803 HIT:    1058793 MISS:         10 MSHR_MERGE:          2
cpu0->cpu0_ITLB LOAD         ACCESS:    1058803 HIT:    1058793 MISS:         10 MSHR_MERGE:          2
cpu0->cpu0_ITLB RFO          ACCESS:          0 HIT:          0 MISS:          0 MSHR_MERGE:          0
cpu0->cpu0_ITLB PREFETCH     ACCESS:          0 HIT:          0 MISS:          0 MSHR_MERGE:          0
cpu0->cpu0_ITLB WRITE        ACCESS:          0 HIT:          0 MISS:          0 MSHR_MERGE:          0
cpu0->cpu0_ITLB TRANSLATION  ACCESS:          0 HIT:          0 MISS:          0 MSHR_MERGE:          0
cpu0->cpu0_ITLB PREFETCH REQUESTED:          0 ISSUED:          0 USEFUL:          0 USELESS:          0 LATE:          0
cpu0->cpu0_ITLB AVERAGE MISS LATENCY: 5 cycles
cpu0->cpu0_DTLB TOTAL        ACCESS:   15790611 HIT:   14309426 MISS:    1481185 MSHR_MERGE:     500322
cpu0->cpu0_DTLB LOAD         ACCESS:   15790611 HIT:   14309426 MISS:    1481185 MSHR_MERGE:     500322
cpu0->cpu0_DTLB RFO          ACCESS:          0 HIT:          0 MISS:          0 MSHR_MERGE:          0
cpu0->cpu0_DTLB PREFETCH     ACCESS:          0 HIT:          0 MISS:          0 MSHR_MERGE:          0
cpu0->cpu0_DTLB WRITE        ACCESS:          0 HIT:          0 MISS:          0 MSHR_MERGE:          0
cpu0->cpu0_DTLB TRANSLATION  ACCESS:          0 HIT:          0 MISS:          0 MSHR_MERGE:          0
cpu0->cpu0_DTLB PREFETCH REQUESTED:          0 ISSUED:          0 USEFUL:          0 USELESS:          0 LATE:          0
cpu0->cpu0_DTLB AVERAGE MISS LATENCY: 5.545 cycles
cpu0->LLC TOTAL        ACCESS:    2237436 HIT:     620759 MISS:    1616677 MSHR_MERGE:      19752
cpu0->LLC LOAD         ACCESS:    1108798 HIT:     247360 MISS:     861438 MSHR_MERGE:       3367
cpu0->LLC RFO          ACCESS:     131936 HIT:      39967 MISS:      91969 MSHR_MERGE:          0
cpu0->LLC PREFETCH     ACCESS:     253400 HIT:      71745 MISS:     181655 MSHR_MERGE:      16385
cpu0->LLC WRITE        ACCESS:     741620 HIT:     261663 MISS:     479957 MSHR_MERGE:          0
cpu0->LLC TRANSLATION  ACCESS:       1682 HIT:         24 MISS:       1658 MSHR_MERGE:          0
cpu0->LLC PREFETCH REQUESTED:          0 ISSUED:          0 USEFUL:          0 USELESS:          0 LATE:          0
cpu0->LLC AVERAGE MISS LATENCY: 167.6 cycles

DRAM Statistics

Channel 0 RQ ROW_BUFFER_HIT:      13618
  ROW_BUFFER_MISS:    1102863
  AVG DBUS CONGESTED CYCLE: 6.389
Channel 0 WQ ROW_BUFFER_HIT:     167267
  ROW_BUFFER_MISS:     419788
  FULL:       2146
Channel 0 REFRESHES ISSUED:      12993

[ROI Statistics]
[System Configuration]
num_cpus 1
cpu_freq 4000
fetch_width 6
decode_width 6
dispatch_width 6
execute_width 6
lq_width 2
sq_width 2
retire_width 6
scheduler_size 128
branch_mispredict_penalty 15
rob_size 352
lq_size 128
sq_size 72
ifetch_buffer_size 64
decode_buffer_size 32
dispatch_buffer_size 32
register_file_size 288
decode_latency 1
dispatch_latency 1
schedule_latency 1
execute_latency 1
page_size 4096
block_size 64
core_0_itlb_set 16
core_0_itlb_way 4
core_0_itlb_rq_size 16
core_0_itlb_wq_size 16
core_0_itlb_pq_size 0
core_0_itlb_mshr_size 8
core_0_itlb_hit_latency 1
core_0_itlb_fill_latency 1
core_0_itlb_max_tag_check 2
core_0_itlb_max_fill 2
core_0_dtlb_set 16
core_0_dtlb_way 4
core_0_dtlb_rq_size 16
core_0_dtlb_wq_size 16
core_0_dtlb_pq_size 0
core_0_dtlb_mshr_size 8
core_0_dtlb_hit_latency 1
core_0_dtlb_fill_latency 1
core_0_dtlb_max_tag_check 2
core_0_dtlb_max_fill 2
core_0_stlb_set 128
core_0_stlb_way 12
core_0_stlb_rq_size 32
core_0_stlb_wq_size 32
core_0_stlb_pq_size 0
core_0_stlb_mshr_size 16
core_0_stlb_hit_latency 4
core_0_stlb_fill_latency 4
core_0_stlb_max_tag_check 1
core_0_stlb_max_fill 1
core_0_l1i_set 64
core_0_l1i_way 8
core_0_l1i_rq_size 64
core_0_l1i_wq_size 64
core_0_l1i_pq_size 32
core_0_l1i_mshr_size 8
core_0_l1i_hit_latency 2
core_0_l1i_fill_latency 2
core_0_l1i_max_tag_check 2
core_0_l1i_max_fill 2
core_0_l1d_set 64
core_0_l1d_way 12
core_0_l1d_rq_size 64
core_0_l1d_wq_size 64
core_0_l1d_pq_size 8
core_0_l1d_mshr_size 16
core_0_l1d_hit_latency 2
core_0_l1d_fill_latency 3
core_0_l1d_max_tag_check 2
core_0_l1d_max_fill 2
core_0_l2c_set 1024
core_0_l2c_way 8
core_0_l2c_rq_size 32
core_0_l2c_wq_size 32
core_0_l2c_pq_size 16
core_0_l2c_mshr_size 32
core_0_l2c_hit_latency 5
core_0_l2c_fill_latency 5
core_0_l2c_max_tag_check 1
core_0_l2c_max_fill 1
llc_set 2048
llc_way 16
llc_rq_size 32
llc_wq_size 32
llc_pq_size 32
llc_mshr_size 64
llc_hit_latency 10
llc_fill_latency 10
llc_max_tag_check 1
llc_max_fill 1
dram_channels 1
dram_ranks 1
dram_bankgroups 8
dram_banks 4
dram_rows 65536
dram_columns 1024
dram_channel_width 8
dram_rq_size 64
dram_wq_size 64
dram_size 17179869184
core_0_itlb_prefetcher no
core_0_dtlb_prefetcher no
core_0_stlb_prefetcher no
core_0_l1i_prefetcher next_line
core_0_l1d_prefetcher berti
core_0_l2c_prefetcher ip_stride
llc_prefetcher no
llc_replacement drrip

Core_0_instructions 50000000
Core_0_cycles 155910234
Core_0_IPC 0.320697
Core_0_branch_prediction_accuracy 93.1447
Core_0_branch_MPKI 16.3275
Core_0_average_ROB_occupancy_at_mispredict 41.5415

Core_0_ITLB_total_access 1058803
Core_0_ITLB_total_hit 1058793
Core_0_ITLB_total_miss 10
Core_0_ITLB_total_MPKI 0.0002
Core_0_ITLB_total_miss_rate 9.44463e-06
Core_0_ITLB_demand_access 1058803
Core_0_ITLB_demand_hit 1058793
Core_0_ITLB_demand_miss 10
Core_0_ITLB_demand_MPKI 0.0002
Core_0_ITLB_demand_miss_rate 9.44463e-06
Core_0_ITLB_load_access 1058803
Core_0_ITLB_load_hit 1058793
Core_0_ITLB_load_miss 10
Core_0_ITLB_load_MPKI 0.0002
Core_0_ITLB_load_miss_rate 9.44463e-06
Core_0_ITLB_rfo_access 0
Core_0_ITLB_rfo_hit 0
Core_0_ITLB_rfo_miss 0
Core_0_ITLB_rfo_MPKI 0
Core_0_ITLB_rfo_miss_rate 0
Core_0_ITLB_prefetch_access 0
Core_0_ITLB_prefetch_hit 0
Core_0_ITLB_prefetch_miss 0
Core_0_ITLB_prefetch_MPKI 0
Core_0_ITLB_prefetch_miss_rate 0
Core_0_ITLB_writeback_access 0
Core_0_ITLB_writeback_hit 0
Core_0_ITLB_writeback_miss 0
Core_0_ITLB_writeback_MPKI 0
Core_0_ITLB_writeback_miss_rate 0
Core_0_ITLB_prefetch_requested 0
Core_0_ITLB_prefetch_issued 0
Core_0_ITLB_prefetch_useful 0
Core_0_ITLB_prefetch_useless 0
Core_0_ITLB_prefetch_late 0
Core_0_ITLB_prefetch_accuracy 0
Core_0_ITLB_prefetch_coverage 0
Core_0_ITLB_total_eviction 0

Core_0_DTLB_total_access 15790611
Core_0_DTLB_total_hit 14309426
Core_0_DTLB_total_miss 1481185
Core_0_DTLB_total_MPKI 29.6237
Core_0_DTLB_total_miss_rate 0.0938016
Core_0_DTLB_demand_access 15790611
Core_0_DTLB_demand_hit 14309426
Core_0_DTLB_demand_miss 1481185
Core_0_DTLB_demand_MPKI 29.6237
Core_0_DTLB_demand_miss_rate 0.0938016
Core_0_DTLB_load_access 15790611
Core_0_DTLB_load_hit 14309426
Core_0_DTLB_load_miss 1481185
Core_0_DTLB_load_MPKI 29.6237
Core_0_DTLB_load_miss_rate 0.0938016
Core_0_DTLB_rfo_access 0
Core_0_DTLB_rfo_hit 0
Core_0_DTLB_rfo_miss 0
Core_0_DTLB_rfo_MPKI 0
Core_0_DTLB_rfo_miss_rate 0
Core_0_DTLB_prefetch_access 0
Core_0_DTLB_prefetch_hit 0
Core_0_DTLB_prefetch_miss 0
Core_0_DTLB_prefetch_MPKI 0
Core_0_DTLB_prefetch_miss_rate 0
Core_0_DTLB_writeback_access 0
Core_0_DTLB_writeback_hit 0
Core_0_DTLB_writeback_miss 0
Core_0_DTLB_writeback_MPKI 0
Core_0_DTLB_writeback_miss_rate 0
Core_0_DTLB_prefetch_requested 0
Core_0_DTLB_prefetch_issued 0
Core_0_DTLB_prefetch_useful 0
Core_0_DTLB_prefetch_useless 0
Core_0_DTLB_prefetch_late 0
Core_0_DTLB_prefetch_accuracy 0
Core_0_DTLB_prefetch_coverage 0
Core_0_DTLB_total_eviction 980863

Core_0_STLB_total_access 980871
Core_0_STLB_total_hit 978780
Core_0_STLB_total_miss 2091
Core_0_STLB_total_MPKI 0.04182
Core_0_STLB_total_miss_rate 0.00213178
Core_0_STLB_demand_access 980871
Core_0_STLB_demand_hit 978780
Core_0_STLB_demand_miss 2091
Core_0_STLB_demand_MPKI 0.04182
Core_0_STLB_demand_miss_rate 0.00213178
Core_0_STLB_load_access 980871
Core_0_STLB_load_hit 978780
Core_0_STLB_load_miss 2091
Core_0_STLB_load_MPKI 0.04182
Core_0_STLB_load_miss_rate 0.00213178
Core_0_STLB_rfo_access 0
Core_0_STLB_rfo_hit 0
Core_0_STLB_rfo_miss 0
Core_0_STLB_rfo_MPKI 0
Core_0_STLB_rfo_miss_rate 0
Core_0_STLB_prefetch_access 0
Core_0_STLB_prefetch_hit 0
Core_0_STLB_prefetch_miss 0
Core_0_STLB_prefetch_MPKI 0
Core_0_STLB_prefetch_miss_rate 0
Core_0_STLB_writeback_access 0
Core_0_STLB_writeback_hit 0
Core_0_STLB_writeback_miss 0
Core_0_STLB_writeback_MPKI 0
Core_0_STLB_writeback_miss_rate 0
Core_0_STLB_prefetch_requested 0
Core_0_STLB_prefetch_issued 0
Core_0_STLB_prefetch_useful 0
Core_0_STLB_prefetch_useless 0
Core_0_STLB_prefetch_late 0
Core_0_STLB_prefetch_accuracy 0
Core_0_STLB_prefetch_coverage 0
Core_0_STLB_total_eviction 276197

Core_0_L1I_total_access 1245051
Core_0_L1I_total_hit 1244987
Core_0_L1I_total_miss 64
Core_0_L1I_total_MPKI 0.00128
Core_0_L1I_total_miss_rate 5.14035e-05
Core_0_L1I_demand_access 1245051
Core_0_L1I_demand_hit 1244987
Core_0_L1I_demand_miss 64
Core_0_L1I_demand_MPKI 0.00128
Core_0_L1I_demand_miss_rate 5.14035e-05
Core_0_L1I_load_access 1245051
Core_0_L1I_load_hit 1244987
Core_0_L1I_load_miss 64
Core_0_L1I_load_MPKI 0.00128
Core_0_L1I_load_miss_rate 5.14035e-05
Core_0_L1I_rfo_access 0
Core_0_L1I_rfo_hit 0
Core_0_L1I_rfo_miss 0
Core_0_L1I_rfo_MPKI 0
Core_0_L1I_rfo_miss_rate 0
Core_0_L1I_prefetch_access 0
Core_0_L1I_prefetch_hit 0
Core_0_L1I_prefetch_miss 0
Core_0_L1I_prefetch_MPKI 0
Core_0_L1I_prefetch_miss_rate 0
Core_0_L1I_writeback_access 0
Core_0_L1I_writeback_hit 0
Core_0_L1I_writeback_miss 0
Core_0_L1I_writeback_MPKI 0
Core_0_L1I_writeback_miss_rate 0
Core_0_L1I_prefetch_requested 0
Core_0_L1I_prefetch_issued 0
Core_0_L1I_prefetch_useful 0
Core_0_L1I_prefetch_useless 0
Core_0_L1I_prefetch_late 0
Core_0_L1I_prefetch_accuracy 0
Core_0_L1I_prefetch_coverage 0
Core_0_L1I_total_eviction 0

Core_0_L1D_total_access 16352453
Core_0_L1D_total_hit 13377425
Core_0_L1D_total_miss 2975028
Core_0_L1D_total_MPKI 59.5006
Core_0_L1D_total_miss_rate 0.181932
Core_0_L1D_demand_access 9256741
Core_0_L1D_demand_hit 7322108
Core_0_L1D_demand_miss 1934633
Core_0_L1D_demand_MPKI 38.6927
Core_0_L1D_demand_miss_rate 0.208997
Core_0_L1D_load_access 9256741
Core_0_L1D_load_hit 7322108
Core_0_L1D_load_miss 1934633
Core_0_L1D_load_MPKI 38.6927
Core_0_L1D_load_miss_rate 0.208997
Core_0_L1D_rfo_access 0
Core_0_L1D_rfo_hit 0
Core_0_L1D_rfo_miss 0
Core_0_L1D_rfo_MPKI 0
Core_0_L1D_rfo_miss_rate 0
Core_0_L1D_prefetch_access 389931
Core_0_L1D_prefetch_hit 79293
Core_0_L1D_prefetch_miss 310638
Core_0_L1D_prefetch_MPKI 6.21276
Core_0_L1D_prefetch_miss_rate 0.796649
Core_0_L1D_writeback_access 6705781
Core_0_L1D_writeback_hit 5976024
Core_0_L1D_writeback_miss 729757
Core_0_L1D_writeback_MPKI 14.5951
Core_0_L1D_writeback_miss_rate 0.108825
Core_0_L1D_prefetch_requested 425061
Core_0_L1D_prefetch_issued 389931
Core_0_L1D_prefetch_useful 198265
Core_0_L1D_prefetch_useless 89972
Core_0_L1D_prefetch_late 23836
Core_0_L1D_prefetch_accuracy 0.508462
Core_0_L1D_prefetch_coverage 0.0929557
Core_0_L1D_total_eviction 1791529

Core_0_L2C_total_access 2837241
Core_0_L2C_total_hit 1266650
Core_0_L2C_total_miss 1570591
Core_0_L2C_total_MPKI 31.4118
Core_0_L2C_total_miss_rate 0.553563
Core_0_L2C_demand_access 1501236
Core_0_L2C_demand_hit 248476
Core_0_L2C_demand_miss 1252760
Core_0_L2C_demand_MPKI 25.0552
Core_0_L2C_demand_miss_rate 0.834486
Core_0_L2C_load_access 1337711
Core_0_L2C_load_hit 216887
Core_0_L2C_load_miss 1120824
Core_0_L2C_load_MPKI 22.4165
Core_0_L2C_load_miss_rate 0.837867
Core_0_L2C_rfo_access 163525
Core_0_L2C_rfo_hit 31589
Core_0_L2C_rfo_miss 131936
Core_0_L2C_rfo_MPKI 2.63872
Core_0_L2C_rfo_miss_rate 0.806825
Core_0_L2C_prefetch_access 528752
Core_0_L2C_prefetch_hit 210939
Core_0_L2C_prefetch_miss 317813
Core_0_L2C_prefetch_MPKI 6.35626
Core_0_L2C_prefetch_miss_rate 0.601063
Core_0_L2C_writeback_access 807253
Core_0_L2C_writeback_hit 807235
Core_0_L2C_writeback_miss 18
Core_0_L2C_writeback_MPKI 0.00036
Core_0_L2C_writeback_miss_rate 2.22978e-05
Core_0_L2C_prefetch_requested 247556
Core_0_L2C_prefetch_issued 240496
Core_0_L2C_prefetch_useful 63031
Core_0_L2C_prefetch_useless 10203
Core_0_L2C_prefetch_late 12026
Core_0_L2C_prefetch_accuracy 0.262088
Core_0_L2C_prefetch_coverage 0.0479035
Core_0_L2C_total_eviction 1471094

Core_0_LLC_total_access 2235754
Core_0_LLC_total_hit 620735
Core_0_LLC_total_miss 1615019
Core_0_LLC_total_MPKI 32.3004
Core_0_LLC_total_miss_rate 0.72236
Core_0_LLC_demand_access 1240734
Core_0_LLC_demand_hit 287327
Core_0_LLC_demand_miss 953407
Core_0_LLC_demand_MPKI 19.0681
Core_0_LLC_demand_miss_rate 0.768422
Core_0_LLC_load_access 1108798
Core_0_LLC_load_hit 247360
Core_0_LLC_load_miss 861438
Core_0_LLC_load_MPKI 17.2288
Core_0_LLC_load_miss_rate 0.776912
Core_0_LLC_rfo_access 131936
Core_0_LLC_rfo_hit 39967
Core_0_LLC_rfo_miss 91969
Core_0_LLC_rfo_MPKI 1.83938
Core_0_LLC_rfo_miss_rate 0.697073
Core_0_LLC_prefetch_access 253400
Core_0_LLC_prefetch_hit 71745
Core_0_LLC_prefetch_miss 181655
Core_0_LLC_prefetch_MPKI 3.6331
Core_0_LLC_prefetch_miss_rate 0.716871
Core_0_LLC_writeback_access 741620
Core_0_LLC_writeback_hit 261663
Core_0_LLC_writeback_miss 479957
Core_0_LLC_writeback_MPKI 9.59914
Core_0_LLC_writeback_miss_rate 0.647174
Core_0_LLC_prefetch_requested 0
Core_0_LLC_prefetch_issued 0
Core_0_LLC_prefetch_useful 0
Core_0_LLC_prefetch_useless 0
Core_0_LLC_prefetch_late 0
Core_0_LLC_prefetch_accuracy 0
Core_0_LLC_prefetch_coverage 0
Core_0_LLC_total_eviction 1596705

[DRAM Statistics]
Channel_0_RQ_row_buffer_hit 13618
Channel_0_RQ_row_buffer_miss 1102863
Channel_0_WQ_row_buffer_hit 167267
Channel_0_WQ_row_buffer_miss 419788
Channel_0_WQ_full 2146
Channel_0_dbus_congested 5282518
DRAM_total_RQ_row_buffer_hit 13618
DRAM_total_RQ_row_buffer_miss 1102863
DRAM_total_WQ_row_buffer_hit 167267
DRAM_total_WQ_row_buffer_miss 419788
DRAM_total_WQ_full 2146
DRAM_total_dbus_congested 5282518
DRAM_avg_congested_cycle 6.38885

======STLB miss causes ========
Core_0_STLB_miss_cause_breakdown
Core_0_STLB_cause_Demand_Data_miss 0
Core_0_STLB_cause_Demand_Data_miss_rate 0
Core_0_STLB_cause_Demand_Instruction_miss 0
Core_0_STLB_cause_Demand_Instruction_miss_rate 0
Core_0_STLB_cause_L1D_Prefetch_miss 2091
Core_0_STLB_cause_L1D_Prefetch_miss_rate 0.00213178
Core_0_STLB_cause_L1I_Prefetch_miss 0
Core_0_STLB_cause_L1I_Prefetch_miss_rate 0
Core_0_STLB_cause_Other_miss 0
Core_0_STLB_cause_Other_miss_rate 0
Core_0_STLB_Demand_miss 0
Core_0_STLB_Demand_miss_rate 0
Core_0_STLB_L1D_Prefetch_miss 2091
Core_0_STLB_L1D_Prefetch_miss_rate 0.00213178
Core_0_STLB_Other_miss 0
Core_0_STLB_Other_miss_rate 0
