[VMEM] WARNING: physical memory size is smaller than virtual memory size.

*** ChampSim Multicore Out-of-Order Simulator ***
Warmup Instructions: 20000000
Simulation Instructions: 50000000
Number of CPUs: 1
Page size: 4096
STLB ideal mode: demand
STLB ideal fill: on
Core 0: /data2/zcq/champsim_traces_xsbench/xs.XXL64hash-205B.champsimtrace.xz
 L1D Berti prefetcher
Off-chip DRAM Size: 16 GiB Channels: 1 Width: 64-bit Data Rate: 3205 MT/s
Warmup halting CPU 0 at instruction 20000001 cycle 4052784 for remainder of phase
Warmup finished CPU 0 instructions: 20000001 cycles: 4052784 cumulative IPC: 4.935 (Simulation time: 00 hr 00 min 56 sec)
Warmup complete CPU 0 instructions: 20000001 cycles: 4052784 cumulative IPC: 4.935 (Simulation time: 00 hr 00 min 56 sec)
Simulation finished CPU 0 instructions: 50000000 cycles: 163673812 cumulative IPC: 0.3055 (Simulation time: 00 hr 11 min 51 sec)
Simulation complete CPU 0 instructions: 50000000 cycles: 163673812 cumulative IPC: 0.3055 (Simulation time: 00 hr 11 min 51 sec)

ChampSim completed all CPUs

=== Simulation ===
CPU 0 runs /data2/zcq/champsim_traces_xsbench/xs.XXL64hash-205B.champsimtrace.xz

Region of Interest Statistics

CPU 0 cumulative IPC: 0.3055 instructions: 50000000 cycles: 163673812
CPU 0 Branch Prediction Accuracy: 92.84% MPKI: 10.34 Average ROB Occupancy at Mispredict: 63.61
Branch type MPKI
BRANCH_DIRECT_JUMP: 2e-05
BRANCH_INDIRECT: 0
BRANCH_CONDITIONAL: 10.34
BRANCH_DIRECT_CALL: 0
BRANCH_INDIRECT_CALL: 0
BRANCH_RETURN: 0

cpu0->cpu0_STLB TOTAL        ACCESS:     482661 HIT:     473517 MISS:       9144 MSHR_MERGE:          0
cpu0->cpu0_STLB LOAD         ACCESS:     482661 HIT:     473517 MISS:       9144 MSHR_MERGE:          0
cpu0->cpu0_STLB RFO          ACCESS:          0 HIT:          0 MISS:          0 MSHR_MERGE:          0
cpu0->cpu0_STLB PREFETCH     ACCESS:          0 HIT:          0 MISS:          0 MSHR_MERGE:          0
cpu0->cpu0_STLB WRITE        ACCESS:          0 HIT:          0 MISS:          0 MSHR_MERGE:          0
cpu0->cpu0_STLB TRANSLATION  ACCESS:          0 HIT:          0 MISS:          0 MSHR_MERGE:          0
cpu0->cpu0_STLB PREFETCH REQUESTED:          0 ISSUED:          0 USEFUL:          0 USELESS:          0 LATE:          0
cpu0->cpu0_STLB AVERAGE MISS LATENCY: 626.5 cycles
cpu0->cpu0_L2C TOTAL        ACCESS:    3337723 HIT:     127740 MISS:    3209983 MSHR_MERGE:      23901
cpu0->cpu0_L2C LOAD         ACCESS:    2100336 HIT:      26486 MISS:    2073850 MSHR_MERGE:       1038
cpu0->cpu0_L2C RFO          ACCESS:       4481 HIT:       4404 MISS:         77 MSHR_MERGE:          0
cpu0->cpu0_L2C PREFETCH     ACCESS:    1207282 HIT:      89180 MISS:    1118102 MSHR_MERGE:      22863
cpu0->cpu0_L2C WRITE        ACCESS:       6810 HIT:       6733 MISS:         77 MSHR_MERGE:          0
cpu0->cpu0_L2C TRANSLATION  ACCESS:      18814 HIT:        937 MISS:      17877 MSHR_MERGE:          0
cpu0->cpu0_L2C PREFETCH REQUESTED:     204632 ISSUED:     204632 USEFUL:      11713 USELESS:     121190 LATE:       1038
cpu0->cpu0_L2C AVERAGE MISS LATENCY: 242.4 cycles
cpu0->cpu0_L1I TOTAL        ACCESS:     129840 HIT:     129840 MISS:          0 MSHR_MERGE:          0
cpu0->cpu0_L1I LOAD         ACCESS:     129840 HIT:     129840 MISS:          0 MSHR_MERGE:          0
cpu0->cpu0_L1I RFO          ACCESS:          0 HIT:          0 MISS:          0 MSHR_MERGE:          0
cpu0->cpu0_L1I PREFETCH     ACCESS:          0 HIT:          0 MISS:          0 MSHR_MERGE:          0
cpu0->cpu0_L1I WRITE        ACCESS:          0 HIT:          0 MISS:          0 MSHR_MERGE:          0
cpu0->cpu0_L1I TRANSLATION  ACCESS:          0 HIT:          0 MISS:          0 MSHR_MERGE:          0
cpu0->cpu0_L1I PREFETCH REQUESTED:          0 ISSUED:          0 USEFUL:          0 USELESS:          0 LATE:          0
cpu0->cpu0_L1I AVERAGE MISS LATENCY: - cycles
cpu0->cpu0_L1D TOTAL        ACCESS:    9704964 HIT:    6048582 MISS:    3656382 MSHR_MERGE:     530084
cpu0->cpu0_L1D LOAD         ACCESS:    6933161 HIT:    4356353 MISS:    2576808 MSHR_MERGE:     476472
cpu0->cpu0_L1D RFO          ACCESS:          0 HIT:          0 MISS:          0 MSHR_MERGE:          0
cpu0->cpu0_L1D PREFETCH     ACCESS:    1107908 HIT:      63972 MISS:    1043936 MSHR_MERGE:      41286
cpu0->cpu0_L1D WRITE        ACCESS:    1635764 HIT:    1618940 MISS:      16824 MSHR_MERGE:      12326
cpu0->cpu0_L1D TRANSLATION  ACCESS:      28131 HIT:       9317 MISS:      18814 MSHR_MERGE:          0
cpu0->cpu0_L1D PREFETCH REQUESTED:    1107896 ISSUED:    1107891 USEFUL:     169389 USELESS:     833317 LATE:      40393
cpu0->cpu0_L1D AVERAGE MISS LATENCY: 247.7 cycles
cpu0->cpu0_ITLB TOTAL        ACCESS:     108164 HIT:     108164 MISS:          0 MSHR_MERGE:          0
cpu0->cpu0_ITLB LOAD         ACCESS:     108164 HIT:     108164 MISS:          0 MSHR_MERGE:          0
cpu0->cpu0_ITLB RFO          ACCESS:          0 HIT:          0 MISS:          0 MSHR_MERGE:          0
cpu0->cpu0_ITLB PREFETCH     ACCESS:          0 HIT:          0 MISS:          0 MSHR_MERGE:          0
cpu0->cpu0_ITLB WRITE        ACCESS:          0 HIT:          0 MISS:          0 MSHR_MERGE:          0
cpu0->cpu0_ITLB TRANSLATION  ACCESS:          0 HIT:          0 MISS:          0 MSHR_MERGE:          0
cpu0->cpu0_ITLB PREFETCH REQUESTED:          0 ISSUED:          0 USEFUL:          0 USELESS:          0 LATE:          0
cpu0->cpu0_ITLB AVERAGE MISS LATENCY: - cycles
cpu0->cpu0_DTLB TOTAL        ACCESS:    9197038 HIT:    8533728 MISS:     663310 MSHR_MERGE:     180649
cpu0->cpu0_DTLB LOAD         ACCESS:    9197038 HIT:    8533728 MISS:     663310 MSHR_MERGE:     180649
cpu0->cpu0_DTLB RFO          ACCESS:          0 HIT:          0 MISS:          0 MSHR_MERGE:          0
cpu0->cpu0_DTLB PREFETCH     ACCESS:          0 HIT:          0 MISS:          0 MSHR_MERGE:          0
cpu0->cpu0_DTLB WRITE        ACCESS:          0 HIT:          0 MISS:          0 MSHR_MERGE:          0
cpu0->cpu0_DTLB TRANSLATION  ACCESS:          0 HIT:          0 MISS:          0 MSHR_MERGE:          0
cpu0->cpu0_DTLB PREFETCH REQUESTED:          0 ISSUED:          0 USEFUL:          0 USELESS:          0 LATE:          0
cpu0->cpu0_DTLB AVERAGE MISS LATENCY: 16.89 cycles
cpu0->LLC TOTAL        ACCESS:    3186556 HIT:      22768 MISS:    3163788 MSHR_MERGE:        178
cpu0->LLC LOAD         ACCESS:    2072812 HIT:       7462 MISS:    2065350 MSHR_MERGE:         36
cpu0->LLC RFO          ACCESS:         77 HIT:         77 MISS:          0 MSHR_MERGE:          0
cpu0->LLC PREFETCH     ACCESS:    1095239 HIT:      10918 MISS:    1084321 MSHR_MERGE:        142
cpu0->LLC WRITE        ACCESS:        551 HIT:        520 MISS:         31 MSHR_MERGE:          0
cpu0->LLC TRANSLATION  ACCESS:      17877 HIT:       3791 MISS:      14086 MSHR_MERGE:          0
cpu0->LLC PREFETCH REQUESTED:          0 ISSUED:          0 USEFUL:          0 USELESS:          0 LATE:          0
cpu0->LLC AVERAGE MISS LATENCY: 227.7 cycles

DRAM Statistics

Channel 0 RQ ROW_BUFFER_HIT:      82478
  ROW_BUFFER_MISS:    3081099
  AVG DBUS CONGESTED CYCLE: 3.044
Channel 0 WQ ROW_BUFFER_HIT:         10
  ROW_BUFFER_MISS:         23
  FULL:          0
Channel 0 REFRESHES ISSUED:      13640

[ROI Statistics]
[System Configuration]
num_cpus 1
cpu_freq 4000
fetch_width 6
decode_width 6
dispatch_width 6
execute_width 6
lq_width 2
sq_width 2
retire_width 6
scheduler_size 128
branch_mispredict_penalty 15
rob_size 352
lq_size 128
sq_size 72
ifetch_buffer_size 64
decode_buffer_size 32
dispatch_buffer_size 32
register_file_size 288
decode_latency 1
dispatch_latency 1
schedule_latency 1
execute_latency 1
page_size 4096
block_size 64
core_0_itlb_set 16
core_0_itlb_way 4
core_0_itlb_rq_size 16
core_0_itlb_wq_size 16
core_0_itlb_pq_size 0
core_0_itlb_mshr_size 8
core_0_itlb_hit_latency 1
core_0_itlb_fill_latency 1
core_0_itlb_max_tag_check 2
core_0_itlb_max_fill 2
core_0_dtlb_set 16
core_0_dtlb_way 4
core_0_dtlb_rq_size 16
core_0_dtlb_wq_size 16
core_0_dtlb_pq_size 0
core_0_dtlb_mshr_size 8
core_0_dtlb_hit_latency 1
core_0_dtlb_fill_latency 1
core_0_dtlb_max_tag_check 2
core_0_dtlb_max_fill 2
core_0_stlb_set 128
core_0_stlb_way 12
core_0_stlb_rq_size 32
core_0_stlb_wq_size 32
core_0_stlb_pq_size 0
core_0_stlb_mshr_size 16
core_0_stlb_hit_latency 4
core_0_stlb_fill_latency 4
core_0_stlb_max_tag_check 1
core_0_stlb_max_fill 1
core_0_l1i_set 64
core_0_l1i_way 8
core_0_l1i_rq_size 64
core_0_l1i_wq_size 64
core_0_l1i_pq_size 32
core_0_l1i_mshr_size 8
core_0_l1i_hit_latency 2
core_0_l1i_fill_latency 2
core_0_l1i_max_tag_check 2
core_0_l1i_max_fill 2
core_0_l1d_set 64
core_0_l1d_way 12
core_0_l1d_rq_size 64
core_0_l1d_wq_size 64
core_0_l1d_pq_size 8
core_0_l1d_mshr_size 16
core_0_l1d_hit_latency 2
core_0_l1d_fill_latency 3
core_0_l1d_max_tag_check 2
core_0_l1d_max_fill 2
core_0_l2c_set 1024
core_0_l2c_way 8
core_0_l2c_rq_size 32
core_0_l2c_wq_size 32
core_0_l2c_pq_size 16
core_0_l2c_mshr_size 32
core_0_l2c_hit_latency 5
core_0_l2c_fill_latency 5
core_0_l2c_max_tag_check 1
core_0_l2c_max_fill 1
llc_set 2048
llc_way 16
llc_rq_size 32
llc_wq_size 32
llc_pq_size 32
llc_mshr_size 64
llc_hit_latency 10
llc_fill_latency 10
llc_max_tag_check 1
llc_max_fill 1
dram_channels 1
dram_ranks 1
dram_bankgroups 8
dram_banks 4
dram_rows 65536
dram_columns 1024
dram_channel_width 8
dram_rq_size 64
dram_wq_size 64
dram_size 17179869184
core_0_itlb_prefetcher no
core_0_dtlb_prefetcher no
core_0_stlb_prefetcher no
core_0_l1i_prefetcher next_line
core_0_l1d_prefetcher berti
core_0_l2c_prefetcher ip_stride
llc_prefetcher no
llc_replacement drrip

Core_0_instructions 50000000
Core_0_cycles 163673812
Core_0_IPC 0.305486
Core_0_branch_prediction_accuracy 92.8415
Core_0_branch_MPKI 10.3426
Core_0_average_ROB_occupancy_at_mispredict 63.6127

Core_0_ITLB_total_access 108164
Core_0_ITLB_total_hit 108164
Core_0_ITLB_total_miss 0
Core_0_ITLB_total_MPKI 0
Core_0_ITLB_total_miss_rate 0
Core_0_ITLB_demand_access 108164
Core_0_ITLB_demand_hit 108164
Core_0_ITLB_demand_miss 0
Core_0_ITLB_demand_MPKI 0
Core_0_ITLB_demand_miss_rate 0
Core_0_ITLB_load_access 108164
Core_0_ITLB_load_hit 108164
Core_0_ITLB_load_miss 0
Core_0_ITLB_load_MPKI 0
Core_0_ITLB_load_miss_rate 0
Core_0_ITLB_rfo_access 0
Core_0_ITLB_rfo_hit 0
Core_0_ITLB_rfo_miss 0
Core_0_ITLB_rfo_MPKI 0
Core_0_ITLB_rfo_miss_rate 0
Core_0_ITLB_prefetch_access 0
Core_0_ITLB_prefetch_hit 0
Core_0_ITLB_prefetch_miss 0
Core_0_ITLB_prefetch_MPKI 0
Core_0_ITLB_prefetch_miss_rate 0
Core_0_ITLB_writeback_access 0
Core_0_ITLB_writeback_hit 0
Core_0_ITLB_writeback_miss 0
Core_0_ITLB_writeback_MPKI 0
Core_0_ITLB_writeback_miss_rate 0
Core_0_ITLB_prefetch_requested 0
Core_0_ITLB_prefetch_issued 0
Core_0_ITLB_prefetch_useful 0
Core_0_ITLB_prefetch_useless 0
Core_0_ITLB_prefetch_late 0
Core_0_ITLB_prefetch_accuracy 0
Core_0_ITLB_prefetch_coverage 0
Core_0_ITLB_total_eviction 0

Core_0_DTLB_total_access 9197038
Core_0_DTLB_total_hit 8533728
Core_0_DTLB_total_miss 663310
Core_0_DTLB_total_MPKI 13.2662
Core_0_DTLB_total_miss_rate 0.0721221
Core_0_DTLB_demand_access 9197038
Core_0_DTLB_demand_hit 8533728
Core_0_DTLB_demand_miss 663310
Core_0_DTLB_demand_MPKI 13.2662
Core_0_DTLB_demand_miss_rate 0.0721221
Core_0_DTLB_load_access 9197038
Core_0_DTLB_load_hit 8533728
Core_0_DTLB_load_miss 663310
Core_0_DTLB_load_MPKI 13.2662
Core_0_DTLB_load_miss_rate 0.0721221
Core_0_DTLB_rfo_access 0
Core_0_DTLB_rfo_hit 0
Core_0_DTLB_rfo_miss 0
Core_0_DTLB_rfo_MPKI 0
Core_0_DTLB_rfo_miss_rate 0
Core_0_DTLB_prefetch_access 0
Core_0_DTLB_prefetch_hit 0
Core_0_DTLB_prefetch_miss 0
Core_0_DTLB_prefetch_MPKI 0
Core_0_DTLB_prefetch_miss_rate 0
Core_0_DTLB_writeback_access 0
Core_0_DTLB_writeback_hit 0
Core_0_DTLB_writeback_miss 0
Core_0_DTLB_writeback_MPKI 0
Core_0_DTLB_writeback_miss_rate 0
Core_0_DTLB_prefetch_requested 0
Core_0_DTLB_prefetch_issued 0
Core_0_DTLB_prefetch_useful 0
Core_0_DTLB_prefetch_useless 0
Core_0_DTLB_prefetch_late 0
Core_0_DTLB_prefetch_accuracy 0
Core_0_DTLB_prefetch_coverage 0
Core_0_DTLB_total_eviction 482664

Core_0_STLB_total_access 482661
Core_0_STLB_total_hit 473517
Core_0_STLB_total_miss 9144
Core_0_STLB_total_MPKI 0.18288
Core_0_STLB_total_miss_rate 0.018945
Core_0_STLB_demand_access 482661
Core_0_STLB_demand_hit 473517
Core_0_STLB_demand_miss 9144
Core_0_STLB_demand_MPKI 0.18288
Core_0_STLB_demand_miss_rate 0.018945
Core_0_STLB_load_access 482661
Core_0_STLB_load_hit 473517
Core_0_STLB_load_miss 9144
Core_0_STLB_load_MPKI 0.18288
Core_0_STLB_load_miss_rate 0.018945
Core_0_STLB_rfo_access 0
Core_0_STLB_rfo_hit 0
Core_0_STLB_rfo_miss 0
Core_0_STLB_rfo_MPKI 0
Core_0_STLB_rfo_miss_rate 0
Core_0_STLB_prefetch_access 0
Core_0_STLB_prefetch_hit 0
Core_0_STLB_prefetch_miss 0
Core_0_STLB_prefetch_MPKI 0
Core_0_STLB_prefetch_miss_rate 0
Core_0_STLB_writeback_access 0
Core_0_STLB_writeback_hit 0
Core_0_STLB_writeback_miss 0
Core_0_STLB_writeback_MPKI 0
Core_0_STLB_writeback_miss_rate 0
Core_0_STLB_prefetch_requested 0
Core_0_STLB_prefetch_issued 0
Core_0_STLB_prefetch_useful 0
Core_0_STLB_prefetch_useless 0
Core_0_STLB_prefetch_late 0
Core_0_STLB_prefetch_accuracy 0
Core_0_STLB_prefetch_coverage 0
Core_0_STLB_total_eviction 474784

Core_0_L1I_total_access 129840
Core_0_L1I_total_hit 129840
Core_0_L1I_total_miss 0
Core_0_L1I_total_MPKI 0
Core_0_L1I_total_miss_rate 0
Core_0_L1I_demand_access 129840
Core_0_L1I_demand_hit 129840
Core_0_L1I_demand_miss 0
Core_0_L1I_demand_MPKI 0
Core_0_L1I_demand_miss_rate 0
Core_0_L1I_load_access 129840
Core_0_L1I_load_hit 129840
Core_0_L1I_load_miss 0
Core_0_L1I_load_MPKI 0
Core_0_L1I_load_miss_rate 0
Core_0_L1I_rfo_access 0
Core_0_L1I_rfo_hit 0
Core_0_L1I_rfo_miss 0
Core_0_L1I_rfo_MPKI 0
Core_0_L1I_rfo_miss_rate 0
Core_0_L1I_prefetch_access 0
Core_0_L1I_prefetch_hit 0
Core_0_L1I_prefetch_miss 0
Core_0_L1I_prefetch_MPKI 0
Core_0_L1I_prefetch_miss_rate 0
Core_0_L1I_writeback_access 0
Core_0_L1I_writeback_hit 0
Core_0_L1I_writeback_miss 0
Core_0_L1I_writeback_MPKI 0
Core_0_L1I_writeback_miss_rate 0
Core_0_L1I_prefetch_requested 0
Core_0_L1I_prefetch_issued 0
Core_0_L1I_prefetch_useful 0
Core_0_L1I_prefetch_useless 0
Core_0_L1I_prefetch_late 0
Core_0_L1I_prefetch_accuracy 0
Core_0_L1I_prefetch_coverage 0
Core_0_L1I_total_eviction 0

Core_0_L1D_total_access 9676833
Core_0_L1D_total_hit 6039265
Core_0_L1D_total_miss 3637568
Core_0_L1D_total_MPKI 72.7514
Core_0_L1D_total_miss_rate 0.375905
Core_0_L1D_demand_access 6933161
Core_0_L1D_demand_hit 4356353
Core_0_L1D_demand_miss 2576808
Core_0_L1D_demand_MPKI 51.5362
Core_0_L1D_demand_miss_rate 0.371664
Core_0_L1D_load_access 6933161
Core_0_L1D_load_hit 4356353
Core_0_L1D_load_miss 2576808
Core_0_L1D_load_MPKI 51.5362
Core_0_L1D_load_miss_rate 0.371664
Core_0_L1D_rfo_access 0
Core_0_L1D_rfo_hit 0
Core_0_L1D_rfo_miss 0
Core_0_L1D_rfo_MPKI 0
Core_0_L1D_rfo_miss_rate 0
Core_0_L1D_prefetch_access 1107908
Core_0_L1D_prefetch_hit 63972
Core_0_L1D_prefetch_miss 1043936
Core_0_L1D_prefetch_MPKI 20.8787
Core_0_L1D_prefetch_miss_rate 0.942259
Core_0_L1D_writeback_access 1635764
Core_0_L1D_writeback_hit 1618940
Core_0_L1D_writeback_miss 16824
Core_0_L1D_writeback_MPKI 0.33648
Core_0_L1D_writeback_miss_rate 0.0102851
Core_0_L1D_prefetch_requested 1107896
Core_0_L1D_prefetch_issued 1107891
Core_0_L1D_prefetch_useful 169389
Core_0_L1D_prefetch_useless 833317
Core_0_L1D_prefetch_late 40393
Core_0_L1D_prefetch_accuracy 0.152893
Core_0_L1D_prefetch_coverage 0.0616813
Core_0_L1D_total_eviction 3126296

Core_0_L2C_total_access 3318909
Core_0_L2C_total_hit 126803
Core_0_L2C_total_miss 3192106
Core_0_L2C_total_MPKI 63.8421
Core_0_L2C_total_miss_rate 0.961794
Core_0_L2C_demand_access 2104817
Core_0_L2C_demand_hit 30890
Core_0_L2C_demand_miss 2073927
Core_0_L2C_demand_MPKI 41.4785
Core_0_L2C_demand_miss_rate 0.985324
Core_0_L2C_load_access 2100336
Core_0_L2C_load_hit 26486
Core_0_L2C_load_miss 2073850
Core_0_L2C_load_MPKI 41.477
Core_0_L2C_load_miss_rate 0.98739
Core_0_L2C_rfo_access 4481
Core_0_L2C_rfo_hit 4404
Core_0_L2C_rfo_miss 77
Core_0_L2C_rfo_MPKI 0.00154
Core_0_L2C_rfo_miss_rate 0.0171837
Core_0_L2C_prefetch_access 1207282
Core_0_L2C_prefetch_hit 89180
Core_0_L2C_prefetch_miss 1118102
Core_0_L2C_prefetch_MPKI 22.362
Core_0_L2C_prefetch_miss_rate 0.926132
Core_0_L2C_writeback_access 6810
Core_0_L2C_writeback_hit 6733
Core_0_L2C_writeback_miss 77
Core_0_L2C_writeback_MPKI 0.00154
Core_0_L2C_writeback_miss_rate 0.0113069
Core_0_L2C_prefetch_requested 204632
Core_0_L2C_prefetch_issued 204632
Core_0_L2C_prefetch_useful 11713
Core_0_L2C_prefetch_useless 121190
Core_0_L2C_prefetch_late 1038
Core_0_L2C_prefetch_accuracy 0.0572393
Core_0_L2C_prefetch_coverage 0.00561602
Core_0_L2C_total_eviction 3183201

Core_0_LLC_total_access 3168679
Core_0_LLC_total_hit 18977
Core_0_LLC_total_miss 3149702
Core_0_LLC_total_MPKI 62.994
Core_0_LLC_total_miss_rate 0.994011
Core_0_LLC_demand_access 2072889
Core_0_LLC_demand_hit 7539
Core_0_LLC_demand_miss 2065350
Core_0_LLC_demand_MPKI 41.307
Core_0_LLC_demand_miss_rate 0.996363
Core_0_LLC_load_access 2072812
Core_0_LLC_load_hit 7462
Core_0_LLC_load_miss 2065350
Core_0_LLC_load_MPKI 41.307
Core_0_LLC_load_miss_rate 0.9964
Core_0_LLC_rfo_access 77
Core_0_LLC_rfo_hit 77
Core_0_LLC_rfo_miss 0
Core_0_LLC_rfo_MPKI 0
Core_0_LLC_rfo_miss_rate 0
Core_0_LLC_prefetch_access 1095239
Core_0_LLC_prefetch_hit 10918
Core_0_LLC_prefetch_miss 1084321
Core_0_LLC_prefetch_MPKI 21.6864
Core_0_LLC_prefetch_miss_rate 0.990031
Core_0_LLC_writeback_access 551
Core_0_LLC_writeback_hit 520
Core_0_LLC_writeback_miss 31
Core_0_LLC_writeback_MPKI 0.00062
Core_0_LLC_writeback_miss_rate 0.0562613
Core_0_LLC_prefetch_requested 0
Core_0_LLC_prefetch_issued 0
Core_0_LLC_prefetch_useful 0
Core_0_LLC_prefetch_useless 0
Core_0_LLC_prefetch_late 0
Core_0_LLC_prefetch_accuracy 0
Core_0_LLC_prefetch_coverage 0
Core_0_LLC_total_eviction 3163608

[DRAM Statistics]
Channel_0_RQ_row_buffer_hit 82478
Channel_0_RQ_row_buffer_miss 3081099
Channel_0_WQ_row_buffer_hit 10
Channel_0_WQ_row_buffer_miss 23
Channel_0_WQ_full 0
Channel_0_dbus_congested 6533007
DRAM_total_RQ_row_buffer_hit 82478
DRAM_total_RQ_row_buffer_miss 3081099
DRAM_total_WQ_row_buffer_hit 10
DRAM_total_WQ_row_buffer_miss 23
DRAM_total_WQ_full 0
DRAM_total_dbus_congested 6533007
DRAM_avg_congested_cycle 3.04389

======STLB miss causes ========
Core_0_STLB_miss_cause_breakdown
Core_0_STLB_cause_Demand_Data_miss 0
Core_0_STLB_cause_Demand_Data_miss_rate 0
Core_0_STLB_cause_Demand_Instruction_miss 0
Core_0_STLB_cause_Demand_Instruction_miss_rate 0
Core_0_STLB_cause_L1D_Prefetch_miss 9144
Core_0_STLB_cause_L1D_Prefetch_miss_rate 0.018945
Core_0_STLB_cause_L1I_Prefetch_miss 0
Core_0_STLB_cause_L1I_Prefetch_miss_rate 0
Core_0_STLB_cause_Other_miss 0
Core_0_STLB_cause_Other_miss_rate 0
Core_0_STLB_Demand_miss 0
Core_0_STLB_Demand_miss_rate 0
Core_0_STLB_L1D_Prefetch_miss 9144
Core_0_STLB_L1D_Prefetch_miss_rate 0.018945
Core_0_STLB_Other_miss 0
Core_0_STLB_Other_miss_rate 0
