[VMEM] WARNING: physical memory size is smaller than virtual memory size.

*** ChampSim Multicore Out-of-Order Simulator ***
Warmup Instructions: 20000000
Simulation Instructions: 50000000
Number of CPUs: 1
Page size: 4096
STLB ideal mode: demand
STLB ideal fill: on
Core 0: /data2/zcq/champsim_traces_xsbench/xs.XL64unionized-28B.champsimtrace.xz
 L1D Berti prefetcher
Off-chip DRAM Size: 16 GiB Channels: 1 Width: 64-bit Data Rate: 3205 MT/s
Warmup halting CPU 0 at instruction 20000003 cycle 4977069 for remainder of phase
Warmup finished CPU 0 instructions: 20000003 cycles: 4977069 cumulative IPC: 4.018 (Simulation time: 00 hr 00 min 58 sec)
Warmup complete CPU 0 instructions: 20000003 cycles: 4977069 cumulative IPC: 4.018 (Simulation time: 00 hr 00 min 58 sec)
Simulation finished CPU 0 instructions: 50000000 cycles: 82410112 cumulative IPC: 0.6067 (Simulation time: 00 hr 07 min 38 sec)
Simulation complete CPU 0 instructions: 50000000 cycles: 82410112 cumulative IPC: 0.6067 (Simulation time: 00 hr 07 min 38 sec)

ChampSim completed all CPUs

=== Simulation ===
CPU 0 runs /data2/zcq/champsim_traces_xsbench/xs.XL64unionized-28B.champsimtrace.xz

Region of Interest Statistics

CPU 0 cumulative IPC: 0.6067 instructions: 50000000 cycles: 82410112
CPU 0 Branch Prediction Accuracy: 93.15% MPKI: 16.48 Average ROB Occupancy at Mispredict: 33.49
Branch type MPKI
BRANCH_DIRECT_JUMP: 0.00026
BRANCH_INDIRECT: 0
BRANCH_CONDITIONAL: 16.48
BRANCH_DIRECT_CALL: 0.00016
BRANCH_INDIRECT_CALL: 0.0005
BRANCH_RETURN: 0.00064

cpu0->cpu0_STLB TOTAL        ACCESS:     406263 HIT:     405866 MISS:        397 MSHR_MERGE:          0
cpu0->cpu0_STLB LOAD         ACCESS:     406263 HIT:     405866 MISS:        397 MSHR_MERGE:          0
cpu0->cpu0_STLB RFO          ACCESS:          0 HIT:          0 MISS:          0 MSHR_MERGE:          0
cpu0->cpu0_STLB PREFETCH     ACCESS:          0 HIT:          0 MISS:          0 MSHR_MERGE:          0
cpu0->cpu0_STLB WRITE        ACCESS:          0 HIT:          0 MISS:          0 MSHR_MERGE:          0
cpu0->cpu0_STLB TRANSLATION  ACCESS:          0 HIT:          0 MISS:          0 MSHR_MERGE:          0
cpu0->cpu0_STLB PREFETCH REQUESTED:          0 ISSUED:          0 USEFUL:          0 USELESS:          0 LATE:          0
cpu0->cpu0_STLB AVERAGE MISS LATENCY: 334.6 cycles
cpu0->cpu0_L2C TOTAL        ACCESS:    1931763 HIT:    1171181 MISS:     760582 MSHR_MERGE:      54045
cpu0->cpu0_L2C LOAD         ACCESS:     801722 HIT:     345617 MISS:     456105 MSHR_MERGE:       7208
cpu0->cpu0_L2C RFO          ACCESS:     126074 HIT:      61288 MISS:      64786 MSHR_MERGE:          0
cpu0->cpu0_L2C PREFETCH     ACCESS:     593659 HIT:     354381 MISS:     239278 MSHR_MERGE:      46837
cpu0->cpu0_L2C WRITE        ACCESS:     409905 HIT:     409885 MISS:         20 MSHR_MERGE:          0
cpu0->cpu0_L2C TRANSLATION  ACCESS:        403 HIT:         10 MISS:        393 MSHR_MERGE:          0
cpu0->cpu0_L2C PREFETCH REQUESTED:     267093 ISSUED:     253183 USEFUL:      65653 USELESS:       4431 LATE:       7208
cpu0->cpu0_L2C AVERAGE MISS LATENCY: 158.2 cycles
cpu0->cpu0_L1I TOTAL        ACCESS:    1331481 HIT:    1331424 MISS:         57 MSHR_MERGE:          6
cpu0->cpu0_L1I LOAD         ACCESS:    1331481 HIT:    1331424 MISS:         57 MSHR_MERGE:          6
cpu0->cpu0_L1I RFO          ACCESS:          0 HIT:          0 MISS:          0 MSHR_MERGE:          0
cpu0->cpu0_L1I PREFETCH     ACCESS:          0 HIT:          0 MISS:          0 MSHR_MERGE:          0
cpu0->cpu0_L1I WRITE        ACCESS:          0 HIT:          0 MISS:          0 MSHR_MERGE:          0
cpu0->cpu0_L1I TRANSLATION  ACCESS:          0 HIT:          0 MISS:          0 MSHR_MERGE:          0
cpu0->cpu0_L1I PREFETCH REQUESTED:          0 ISSUED:          0 USEFUL:          0 USELESS:          0 LATE:          0
cpu0->cpu0_L1I AVERAGE MISS LATENCY: 282.3 cycles
cpu0->cpu0_L1D TOTAL        ACCESS:   17567834 HIT:   15679216 MISS:    1888618 MSHR_MERGE:     619991
cpu0->cpu0_L1D LOAD         ACCESS:   10449479 HIT:    9368225 MISS:    1081254 MSHR_MERGE:     279583
cpu0->cpu0_L1D RFO          ACCESS:          0 HIT:          0 MISS:          0 MSHR_MERGE:          0
cpu0->cpu0_L1D PREFETCH     ACCESS:     489849 HIT:     132739 MISS:     357110 MSHR_MERGE:      16634
cpu0->cpu0_L1D WRITE        ACCESS:    6627705 HIT:    6177854 MISS:     449851 MSHR_MERGE:     323774
cpu0->cpu0_L1D TRANSLATION  ACCESS:        801 HIT:        398 MISS:        403 MSHR_MERGE:          0
cpu0->cpu0_L1D PREFETCH REQUESTED:     525029 ISSUED:     489849 USEFUL:     221665 USELESS:     118821 LATE:      12645
cpu0->cpu0_L1D AVERAGE MISS LATENCY: 97.6 cycles
cpu0->cpu0_ITLB TOTAL        ACCESS:    1144899 HIT:    1144891 MISS:          8 MSHR_MERGE:          1
cpu0->cpu0_ITLB LOAD         ACCESS:    1144899 HIT:    1144891 MISS:          8 MSHR_MERGE:          1
cpu0->cpu0_ITLB RFO          ACCESS:          0 HIT:          0 MISS:          0 MSHR_MERGE:          0
cpu0->cpu0_ITLB PREFETCH     ACCESS:          0 HIT:          0 MISS:          0 MSHR_MERGE:          0
cpu0->cpu0_ITLB WRITE        ACCESS:          0 HIT:          0 MISS:          0 MSHR_MERGE:          0
cpu0->cpu0_ITLB TRANSLATION  ACCESS:          0 HIT:          0 MISS:          0 MSHR_MERGE:          0
cpu0->cpu0_ITLB PREFETCH REQUESTED:          0 ISSUED:          0 USEFUL:          0 USELESS:          0 LATE:          0
cpu0->cpu0_ITLB AVERAGE MISS LATENCY: 5 cycles
cpu0->cpu0_DTLB TOTAL        ACCESS:   16824249 HIT:   16232356 MISS:     591893 MSHR_MERGE:     185637
cpu0->cpu0_DTLB LOAD         ACCESS:   16824249 HIT:   16232356 MISS:     591893 MSHR_MERGE:     185637
cpu0->cpu0_DTLB RFO          ACCESS:          0 HIT:          0 MISS:          0 MSHR_MERGE:          0
cpu0->cpu0_DTLB PREFETCH     ACCESS:          0 HIT:          0 MISS:          0 MSHR_MERGE:          0
cpu0->cpu0_DTLB WRITE        ACCESS:          0 HIT:          0 MISS:          0 MSHR_MERGE:          0
cpu0->cpu0_DTLB TRANSLATION  ACCESS:          0 HIT:          0 MISS:          0 MSHR_MERGE:          0
cpu0->cpu0_DTLB PREFETCH REQUESTED:          0 ISSUED:          0 USEFUL:          0 USELESS:          0 LATE:          0
cpu0->cpu0_DTLB AVERAGE MISS LATENCY: 5.328 cycles
cpu0->LLC TOTAL        ACCESS:    1028249 HIT:     442299 MISS:     585950 MSHR_MERGE:       1075
cpu0->LLC LOAD         ACCESS:     448897 HIT:     182172 MISS:     266725 MSHR_MERGE:        158
cpu0->LLC RFO          ACCESS:      64786 HIT:      35038 MISS:      29748 MSHR_MERGE:          0
cpu0->LLC PREFETCH     ACCESS:     192440 HIT:      74922 MISS:     117518 MSHR_MERGE:        917
cpu0->LLC WRITE        ACCESS:     321733 HIT:     150165 MISS:     171568 MSHR_MERGE:          0
cpu0->LLC TRANSLATION  ACCESS:        393 HIT:          2 MISS:        391 MSHR_MERGE:          0
cpu0->LLC PREFETCH REQUESTED:          0 ISSUED:          0 USEFUL:          0 USELESS:          0 LATE:          0
cpu0->LLC AVERAGE MISS LATENCY: 160.2 cycles

DRAM Statistics

Channel 0 RQ ROW_BUFFER_HIT:      12330
  ROW_BUFFER_MISS:     400783
  AVG DBUS CONGESTED CYCLE: 7.945
Channel 0 WQ ROW_BUFFER_HIT:      67551
  ROW_BUFFER_MISS:     185223
  FULL:       1407
Channel 0 REFRESHES ISSUED:       6868

[ROI Statistics]
[System Configuration]
num_cpus 1
cpu_freq 4000
fetch_width 6
decode_width 6
dispatch_width 6
execute_width 6
lq_width 2
sq_width 2
retire_width 6
scheduler_size 128
branch_mispredict_penalty 15
rob_size 352
lq_size 128
sq_size 72
ifetch_buffer_size 64
decode_buffer_size 32
dispatch_buffer_size 32
register_file_size 288
decode_latency 1
dispatch_latency 1
schedule_latency 1
execute_latency 1
page_size 4096
block_size 64
core_0_itlb_set 16
core_0_itlb_way 4
core_0_itlb_rq_size 16
core_0_itlb_wq_size 16
core_0_itlb_pq_size 0
core_0_itlb_mshr_size 8
core_0_itlb_hit_latency 1
core_0_itlb_fill_latency 1
core_0_itlb_max_tag_check 2
core_0_itlb_max_fill 2
core_0_dtlb_set 16
core_0_dtlb_way 4
core_0_dtlb_rq_size 16
core_0_dtlb_wq_size 16
core_0_dtlb_pq_size 0
core_0_dtlb_mshr_size 8
core_0_dtlb_hit_latency 1
core_0_dtlb_fill_latency 1
core_0_dtlb_max_tag_check 2
core_0_dtlb_max_fill 2
core_0_stlb_set 128
core_0_stlb_way 12
core_0_stlb_rq_size 32
core_0_stlb_wq_size 32
core_0_stlb_pq_size 0
core_0_stlb_mshr_size 16
core_0_stlb_hit_latency 4
core_0_stlb_fill_latency 4
core_0_stlb_max_tag_check 1
core_0_stlb_max_fill 1
core_0_l1i_set 64
core_0_l1i_way 8
core_0_l1i_rq_size 64
core_0_l1i_wq_size 64
core_0_l1i_pq_size 32
core_0_l1i_mshr_size 8
core_0_l1i_hit_latency 2
core_0_l1i_fill_latency 2
core_0_l1i_max_tag_check 2
core_0_l1i_max_fill 2
core_0_l1d_set 64
core_0_l1d_way 12
core_0_l1d_rq_size 64
core_0_l1d_wq_size 64
core_0_l1d_pq_size 8
core_0_l1d_mshr_size 16
core_0_l1d_hit_latency 2
core_0_l1d_fill_latency 3
core_0_l1d_max_tag_check 2
core_0_l1d_max_fill 2
core_0_l2c_set 1024
core_0_l2c_way 8
core_0_l2c_rq_size 32
core_0_l2c_wq_size 32
core_0_l2c_pq_size 16
core_0_l2c_mshr_size 32
core_0_l2c_hit_latency 5
core_0_l2c_fill_latency 5
core_0_l2c_max_tag_check 1
core_0_l2c_max_fill 1
llc_set 2048
llc_way 16
llc_rq_size 32
llc_wq_size 32
llc_pq_size 32
llc_mshr_size 64
llc_hit_latency 10
llc_fill_latency 10
llc_max_tag_check 1
llc_max_fill 1
dram_channels 1
dram_ranks 1
dram_bankgroups 8
dram_banks 4
dram_rows 65536
dram_columns 1024
dram_channel_width 8
dram_rq_size 64
dram_wq_size 64
dram_size 17179869184
core_0_itlb_prefetcher no
core_0_dtlb_prefetcher no
core_0_stlb_prefetcher no
core_0_l1i_prefetcher next_line
core_0_l1d_prefetcher berti
core_0_l2c_prefetcher ip_stride
llc_prefetcher no
llc_replacement drrip

Core_0_instructions 50000000
Core_0_cycles 82410112
Core_0_IPC 0.606722
Core_0_branch_prediction_accuracy 93.1495
Core_0_branch_MPKI 16.4771
Core_0_average_ROB_occupancy_at_mispredict 33.4924

Core_0_ITLB_total_access 1144899
Core_0_ITLB_total_hit 1144891
Core_0_ITLB_total_miss 8
Core_0_ITLB_total_MPKI 0.00016
Core_0_ITLB_total_miss_rate 6.98752e-06
Core_0_ITLB_demand_access 1144899
Core_0_ITLB_demand_hit 1144891
Core_0_ITLB_demand_miss 8
Core_0_ITLB_demand_MPKI 0.00016
Core_0_ITLB_demand_miss_rate 6.98752e-06
Core_0_ITLB_load_access 1144899
Core_0_ITLB_load_hit 1144891
Core_0_ITLB_load_miss 8
Core_0_ITLB_load_MPKI 0.00016
Core_0_ITLB_load_miss_rate 6.98752e-06
Core_0_ITLB_rfo_access 0
Core_0_ITLB_rfo_hit 0
Core_0_ITLB_rfo_miss 0
Core_0_ITLB_rfo_MPKI 0
Core_0_ITLB_rfo_miss_rate 0
Core_0_ITLB_prefetch_access 0
Core_0_ITLB_prefetch_hit 0
Core_0_ITLB_prefetch_miss 0
Core_0_ITLB_prefetch_MPKI 0
Core_0_ITLB_prefetch_miss_rate 0
Core_0_ITLB_writeback_access 0
Core_0_ITLB_writeback_hit 0
Core_0_ITLB_writeback_miss 0
Core_0_ITLB_writeback_MPKI 0
Core_0_ITLB_writeback_miss_rate 0
Core_0_ITLB_prefetch_requested 0
Core_0_ITLB_prefetch_issued 0
Core_0_ITLB_prefetch_useful 0
Core_0_ITLB_prefetch_useless 0
Core_0_ITLB_prefetch_late 0
Core_0_ITLB_prefetch_accuracy 0
Core_0_ITLB_prefetch_coverage 0
Core_0_ITLB_total_eviction 0

Core_0_DTLB_total_access 16824249
Core_0_DTLB_total_hit 16232356
Core_0_DTLB_total_miss 591893
Core_0_DTLB_total_MPKI 11.8379
Core_0_DTLB_total_miss_rate 0.0351809
Core_0_DTLB_demand_access 16824249
Core_0_DTLB_demand_hit 16232356
Core_0_DTLB_demand_miss 591893
Core_0_DTLB_demand_MPKI 11.8379
Core_0_DTLB_demand_miss_rate 0.0351809
Core_0_DTLB_load_access 16824249
Core_0_DTLB_load_hit 16232356
Core_0_DTLB_load_miss 591893
Core_0_DTLB_load_MPKI 11.8379
Core_0_DTLB_load_miss_rate 0.0351809
Core_0_DTLB_rfo_access 0
Core_0_DTLB_rfo_hit 0
Core_0_DTLB_rfo_miss 0
Core_0_DTLB_rfo_MPKI 0
Core_0_DTLB_rfo_miss_rate 0
Core_0_DTLB_prefetch_access 0
Core_0_DTLB_prefetch_hit 0
Core_0_DTLB_prefetch_miss 0
Core_0_DTLB_prefetch_MPKI 0
Core_0_DTLB_prefetch_miss_rate 0
Core_0_DTLB_writeback_access 0
Core_0_DTLB_writeback_hit 0
Core_0_DTLB_writeback_miss 0
Core_0_DTLB_writeback_MPKI 0
Core_0_DTLB_writeback_miss_rate 0
Core_0_DTLB_prefetch_requested 0
Core_0_DTLB_prefetch_issued 0
Core_0_DTLB_prefetch_useful 0
Core_0_DTLB_prefetch_useless 0
Core_0_DTLB_prefetch_late 0
Core_0_DTLB_prefetch_accuracy 0
Core_0_DTLB_prefetch_coverage 0
Core_0_DTLB_total_eviction 406256

Core_0_STLB_total_access 406263
Core_0_STLB_total_hit 405866
Core_0_STLB_total_miss 397
Core_0_STLB_total_MPKI 0.00794
Core_0_STLB_total_miss_rate 0.000977199
Core_0_STLB_demand_access 406263
Core_0_STLB_demand_hit 405866
Core_0_STLB_demand_miss 397
Core_0_STLB_demand_MPKI 0.00794
Core_0_STLB_demand_miss_rate 0.000977199
Core_0_STLB_load_access 406263
Core_0_STLB_load_hit 405866
Core_0_STLB_load_miss 397
Core_0_STLB_load_MPKI 0.00794
Core_0_STLB_load_miss_rate 0.000977199
Core_0_STLB_rfo_access 0
Core_0_STLB_rfo_hit 0
Core_0_STLB_rfo_miss 0
Core_0_STLB_rfo_MPKI 0
Core_0_STLB_rfo_miss_rate 0
Core_0_STLB_prefetch_access 0
Core_0_STLB_prefetch_hit 0
Core_0_STLB_prefetch_miss 0
Core_0_STLB_prefetch_MPKI 0
Core_0_STLB_prefetch_miss_rate 0
Core_0_STLB_writeback_access 0
Core_0_STLB_writeback_hit 0
Core_0_STLB_writeback_miss 0
Core_0_STLB_writeback_MPKI 0
Core_0_STLB_writeback_miss_rate 0
Core_0_STLB_prefetch_requested 0
Core_0_STLB_prefetch_issued 0
Core_0_STLB_prefetch_useful 0
Core_0_STLB_prefetch_useless 0
Core_0_STLB_prefetch_late 0
Core_0_STLB_prefetch_accuracy 0
Core_0_STLB_prefetch_coverage 0
Core_0_STLB_total_eviction 60735

Core_0_L1I_total_access 1331481
Core_0_L1I_total_hit 1331424
Core_0_L1I_total_miss 57
Core_0_L1I_total_MPKI 0.00114
Core_0_L1I_total_miss_rate 4.28095e-05
Core_0_L1I_demand_access 1331481
Core_0_L1I_demand_hit 1331424
Core_0_L1I_demand_miss 57
Core_0_L1I_demand_MPKI 0.00114
Core_0_L1I_demand_miss_rate 4.28095e-05
Core_0_L1I_load_access 1331481
Core_0_L1I_load_hit 1331424
Core_0_L1I_load_miss 57
Core_0_L1I_load_MPKI 0.00114
Core_0_L1I_load_miss_rate 4.28095e-05
Core_0_L1I_rfo_access 0
Core_0_L1I_rfo_hit 0
Core_0_L1I_rfo_miss 0
Core_0_L1I_rfo_MPKI 0
Core_0_L1I_rfo_miss_rate 0
Core_0_L1I_prefetch_access 0
Core_0_L1I_prefetch_hit 0
Core_0_L1I_prefetch_miss 0
Core_0_L1I_prefetch_MPKI 0
Core_0_L1I_prefetch_miss_rate 0
Core_0_L1I_writeback_access 0
Core_0_L1I_writeback_hit 0
Core_0_L1I_writeback_miss 0
Core_0_L1I_writeback_MPKI 0
Core_0_L1I_writeback_miss_rate 0
Core_0_L1I_prefetch_requested 0
Core_0_L1I_prefetch_issued 0
Core_0_L1I_prefetch_useful 0
Core_0_L1I_prefetch_useless 0
Core_0_L1I_prefetch_late 0
Core_0_L1I_prefetch_accuracy 0
Core_0_L1I_prefetch_coverage 0
Core_0_L1I_total_eviction 0

Core_0_L1D_total_access 17567033
Core_0_L1D_total_hit 15678818
Core_0_L1D_total_miss 1888215
Core_0_L1D_total_MPKI 37.7643
Core_0_L1D_total_miss_rate 0.107486
Core_0_L1D_demand_access 10449479
Core_0_L1D_demand_hit 9368225
Core_0_L1D_demand_miss 1081254
Core_0_L1D_demand_MPKI 21.6251
Core_0_L1D_demand_miss_rate 0.103474
Core_0_L1D_load_access 10449479
Core_0_L1D_load_hit 9368225
Core_0_L1D_load_miss 1081254
Core_0_L1D_load_MPKI 21.6251
Core_0_L1D_load_miss_rate 0.103474
Core_0_L1D_rfo_access 0
Core_0_L1D_rfo_hit 0
Core_0_L1D_rfo_miss 0
Core_0_L1D_rfo_MPKI 0
Core_0_L1D_rfo_miss_rate 0
Core_0_L1D_prefetch_access 489849
Core_0_L1D_prefetch_hit 132739
Core_0_L1D_prefetch_miss 357110
Core_0_L1D_prefetch_MPKI 7.1422
Core_0_L1D_prefetch_miss_rate 0.729021
Core_0_L1D_writeback_access 6627705
Core_0_L1D_writeback_hit 6177854
Core_0_L1D_writeback_miss 449851
Core_0_L1D_writeback_MPKI 8.99702
Core_0_L1D_writeback_miss_rate 0.0678743
Core_0_L1D_prefetch_requested 525029
Core_0_L1D_prefetch_issued 489849
Core_0_L1D_prefetch_useful 221665
Core_0_L1D_prefetch_useless 118821
Core_0_L1D_prefetch_late 12645
Core_0_L1D_prefetch_accuracy 0.452517
Core_0_L1D_prefetch_coverage 0.17013
Core_0_L1D_total_eviction 1268627

Core_0_L2C_total_access 1931360
Core_0_L2C_total_hit 1171171
Core_0_L2C_total_miss 760189
Core_0_L2C_total_MPKI 15.2038
Core_0_L2C_total_miss_rate 0.393603
Core_0_L2C_demand_access 927796
Core_0_L2C_demand_hit 406905
Core_0_L2C_demand_miss 520891
Core_0_L2C_demand_MPKI 10.4178
Core_0_L2C_demand_miss_rate 0.561428
Core_0_L2C_load_access 801722
Core_0_L2C_load_hit 345617
Core_0_L2C_load_miss 456105
Core_0_L2C_load_MPKI 9.1221
Core_0_L2C_load_miss_rate 0.568907
Core_0_L2C_rfo_access 126074
Core_0_L2C_rfo_hit 61288
Core_0_L2C_rfo_miss 64786
Core_0_L2C_rfo_MPKI 1.29572
Core_0_L2C_rfo_miss_rate 0.513873
Core_0_L2C_prefetch_access 593659
Core_0_L2C_prefetch_hit 354381
Core_0_L2C_prefetch_miss 239278
Core_0_L2C_prefetch_MPKI 4.78556
Core_0_L2C_prefetch_miss_rate 0.403056
Core_0_L2C_writeback_access 409905
Core_0_L2C_writeback_hit 409885
Core_0_L2C_writeback_miss 20
Core_0_L2C_writeback_MPKI 0.0004
Core_0_L2C_writeback_miss_rate 4.87918e-05
Core_0_L2C_prefetch_requested 267093
Core_0_L2C_prefetch_issued 253183
Core_0_L2C_prefetch_useful 65653
Core_0_L2C_prefetch_useless 4431
Core_0_L2C_prefetch_late 7208
Core_0_L2C_prefetch_accuracy 0.25931
Core_0_L2C_prefetch_coverage 0.111932
Core_0_L2C_total_eviction 704779

Core_0_LLC_total_access 1027856
Core_0_LLC_total_hit 442297
Core_0_LLC_total_miss 585559
Core_0_LLC_total_MPKI 11.7112
Core_0_LLC_total_miss_rate 0.56969
Core_0_LLC_demand_access 513683
Core_0_LLC_demand_hit 217210
Core_0_LLC_demand_miss 296473
Core_0_LLC_demand_MPKI 5.92946
Core_0_LLC_demand_miss_rate 0.577152
Core_0_LLC_load_access 448897
Core_0_LLC_load_hit 182172
Core_0_LLC_load_miss 266725
Core_0_LLC_load_MPKI 5.3345
Core_0_LLC_load_miss_rate 0.594179
Core_0_LLC_rfo_access 64786
Core_0_LLC_rfo_hit 35038
Core_0_LLC_rfo_miss 29748
Core_0_LLC_rfo_MPKI 0.59496
Core_0_LLC_rfo_miss_rate 0.459173
Core_0_LLC_prefetch_access 192440
Core_0_LLC_prefetch_hit 74922
Core_0_LLC_prefetch_miss 117518
Core_0_LLC_prefetch_MPKI 2.35036
Core_0_LLC_prefetch_miss_rate 0.610673
Core_0_LLC_writeback_access 321733
Core_0_LLC_writeback_hit 150165
Core_0_LLC_writeback_miss 171568
Core_0_LLC_writeback_MPKI 3.43136
Core_0_LLC_writeback_miss_rate 0.533262
Core_0_LLC_prefetch_requested 0
Core_0_LLC_prefetch_issued 0
Core_0_LLC_prefetch_useful 0
Core_0_LLC_prefetch_useless 0
Core_0_LLC_prefetch_late 0
Core_0_LLC_prefetch_accuracy 0
Core_0_LLC_prefetch_coverage 0
Core_0_LLC_total_eviction 584874

[DRAM Statistics]
Channel_0_RQ_row_buffer_hit 12330
Channel_0_RQ_row_buffer_miss 400783
Channel_0_WQ_row_buffer_hit 67551
Channel_0_WQ_row_buffer_miss 185223
Channel_0_WQ_full 1407
Channel_0_dbus_congested 2120362
DRAM_total_RQ_row_buffer_hit 12330
DRAM_total_RQ_row_buffer_miss 400783
DRAM_total_WQ_row_buffer_hit 67551
DRAM_total_WQ_row_buffer_miss 185223
DRAM_total_WQ_full 1407
DRAM_total_dbus_congested 2120362
DRAM_avg_congested_cycle 7.94462

======STLB miss causes ========
Core_0_STLB_miss_cause_breakdown
Core_0_STLB_cause_Demand_Data_miss 0
Core_0_STLB_cause_Demand_Data_miss_rate 0
Core_0_STLB_cause_Demand_Instruction_miss 0
Core_0_STLB_cause_Demand_Instruction_miss_rate 0
Core_0_STLB_cause_L1D_Prefetch_miss 397
Core_0_STLB_cause_L1D_Prefetch_miss_rate 0.000977199
Core_0_STLB_cause_L1I_Prefetch_miss 0
Core_0_STLB_cause_L1I_Prefetch_miss_rate 0
Core_0_STLB_cause_Other_miss 0
Core_0_STLB_cause_Other_miss_rate 0
Core_0_STLB_Demand_miss 0
Core_0_STLB_Demand_miss_rate 0
Core_0_STLB_L1D_Prefetch_miss 397
Core_0_STLB_L1D_Prefetch_miss_rate 0.000977199
Core_0_STLB_Other_miss 0
Core_0_STLB_Other_miss_rate 0
