[VMEM] WARNING: physical memory size is smaller than virtual memory size.

*** ChampSim Multicore Out-of-Order Simulator ***
Warmup Instructions: 20000000
Simulation Instructions: 50000000
Number of CPUs: 1
Page size: 4096
STLB ideal mode: demand
STLB ideal fill: on
Core 0: /data2/zcq/champsim_traces_xsbench/xs.XXL64nuclide-566B.champsimtrace.xz
 L1D Berti prefetcher
Off-chip DRAM Size: 16 GiB Channels: 1 Width: 64-bit Data Rate: 3205 MT/s
Warmup halting CPU 0 at instruction 20000000 cycle 4776686 for remainder of phase
Warmup finished CPU 0 instructions: 20000000 cycles: 4776686 cumulative IPC: 4.187 (Simulation time: 00 hr 00 min 55 sec)
Warmup complete CPU 0 instructions: 20000000 cycles: 4776686 cumulative IPC: 4.187 (Simulation time: 00 hr 00 min 55 sec)
Simulation finished CPU 0 instructions: 50000001 cycles: 264411125 cumulative IPC: 0.1891 (Simulation time: 00 hr 15 min 59 sec)
Simulation complete CPU 0 instructions: 50000001 cycles: 264411125 cumulative IPC: 0.1891 (Simulation time: 00 hr 15 min 59 sec)

ChampSim completed all CPUs

=== Simulation ===
CPU 0 runs /data2/zcq/champsim_traces_xsbench/xs.XXL64nuclide-566B.champsimtrace.xz

Region of Interest Statistics

CPU 0 cumulative IPC: 0.1891 instructions: 50000001 cycles: 264411125
CPU 0 Branch Prediction Accuracy: 87.19% MPKI: 21.6 Average ROB Occupancy at Mispredict: 26.07
Branch type MPKI
BRANCH_DIRECT_JUMP: 2e-05
BRANCH_INDIRECT: 0
BRANCH_CONDITIONAL: 21.6
BRANCH_DIRECT_CALL: 0
BRANCH_INDIRECT_CALL: 0
BRANCH_RETURN: 0

cpu0->cpu0_STLB TOTAL        ACCESS:    2064032 HIT:    1981179 MISS:      82853 MSHR_MERGE:          0
cpu0->cpu0_STLB LOAD         ACCESS:    2064032 HIT:    1981179 MISS:      82853 MSHR_MERGE:          0
cpu0->cpu0_STLB RFO          ACCESS:          0 HIT:          0 MISS:          0 MSHR_MERGE:          0
cpu0->cpu0_STLB PREFETCH     ACCESS:          0 HIT:          0 MISS:          0 MSHR_MERGE:          0
cpu0->cpu0_STLB WRITE        ACCESS:          0 HIT:          0 MISS:          0 MSHR_MERGE:          0
cpu0->cpu0_STLB TRANSLATION  ACCESS:          0 HIT:          0 MISS:          0 MSHR_MERGE:          0
cpu0->cpu0_STLB PREFETCH REQUESTED:          0 ISSUED:          0 USEFUL:          0 USELESS:          0 LATE:          0
cpu0->cpu0_STLB AVERAGE MISS LATENCY: 448.5 cycles
cpu0->cpu0_L2C TOTAL        ACCESS:    3652456 HIT:     259095 MISS:    3393361 MSHR_MERGE:       2861
cpu0->cpu0_L2C LOAD         ACCESS:    2962521 HIT:     171315 MISS:    2791206 MSHR_MERGE:          1
cpu0->cpu0_L2C RFO          ACCESS:       8318 HIT:       8148 MISS:        170 MSHR_MERGE:          0
cpu0->cpu0_L2C PREFETCH     ACCESS:     528428 HIT:      57182 MISS:     471246 MSHR_MERGE:       2860
cpu0->cpu0_L2C WRITE        ACCESS:       9869 HIT:       9841 MISS:         28 MSHR_MERGE:          0
cpu0->cpu0_L2C TRANSLATION  ACCESS:     143320 HIT:      12609 MISS:     130711 MSHR_MERGE:          0
cpu0->cpu0_L2C PREFETCH REQUESTED:     125485 ISSUED:     125485 USEFUL:       4730 USELESS:      69337 LATE:          1
cpu0->cpu0_L2C AVERAGE MISS LATENCY: 180.8 cycles
cpu0->cpu0_L1I TOTAL        ACCESS:      10673 HIT:      10673 MISS:          0 MSHR_MERGE:          0
cpu0->cpu0_L1I LOAD         ACCESS:      10673 HIT:      10673 MISS:          0 MSHR_MERGE:          0
cpu0->cpu0_L1I RFO          ACCESS:          0 HIT:          0 MISS:          0 MSHR_MERGE:          0
cpu0->cpu0_L1I PREFETCH     ACCESS:          0 HIT:          0 MISS:          0 MSHR_MERGE:          0
cpu0->cpu0_L1I WRITE        ACCESS:          0 HIT:          0 MISS:          0 MSHR_MERGE:          0
cpu0->cpu0_L1I TRANSLATION  ACCESS:          0 HIT:          0 MISS:          0 MSHR_MERGE:          0
cpu0->cpu0_L1I PREFETCH REQUESTED:          0 ISSUED:          0 USEFUL:          0 USELESS:          0 LATE:          0
cpu0->cpu0_L1I AVERAGE MISS LATENCY: - cycles
cpu0->cpu0_L1D TOTAL        ACCESS:    6347007 HIT:    2748068 MISS:    3598939 MSHR_MERGE:      81815
cpu0->cpu0_L1D LOAD         ACCESS:    4780659 HIT:    1766521 MISS:    3014138 MSHR_MERGE:      51617
cpu0->cpu0_L1D RFO          ACCESS:          0 HIT:          0 MISS:          0 MSHR_MERGE:          0
cpu0->cpu0_L1D PREFETCH     ACCESS:     425963 HIT:      18920 MISS:     407043 MSHR_MERGE:       4100
cpu0->cpu0_L1D WRITE        ACCESS:     908863 HIT:     887453 MISS:      21410 MSHR_MERGE:      13070
cpu0->cpu0_L1D TRANSLATION  ACCESS:     231522 HIT:      75174 MISS:     156348 MSHR_MERGE:      13028
cpu0->cpu0_L1D PREFETCH REQUESTED:     425963 ISSUED:     425963 USEFUL:      29153 USELESS:     373809 LATE:       3912
cpu0->cpu0_L1D AVERAGE MISS LATENCY: 178.6 cycles
cpu0->cpu0_ITLB TOTAL        ACCESS:       8630 HIT:       8630 MISS:          0 MSHR_MERGE:          0
cpu0->cpu0_ITLB LOAD         ACCESS:       8630 HIT:       8630 MISS:          0 MSHR_MERGE:          0
cpu0->cpu0_ITLB RFO          ACCESS:          0 HIT:          0 MISS:          0 MSHR_MERGE:          0
cpu0->cpu0_ITLB PREFETCH     ACCESS:          0 HIT:          0 MISS:          0 MSHR_MERGE:          0
cpu0->cpu0_ITLB WRITE        ACCESS:          0 HIT:          0 MISS:          0 MSHR_MERGE:          0
cpu0->cpu0_ITLB TRANSLATION  ACCESS:          0 HIT:          0 MISS:          0 MSHR_MERGE:          0
cpu0->cpu0_ITLB PREFETCH REQUESTED:          0 ISSUED:          0 USEFUL:          0 USELESS:          0 LATE:          0
cpu0->cpu0_ITLB AVERAGE MISS LATENCY: - cycles
cpu0->cpu0_DTLB TOTAL        ACCESS:    6048687 HIT:    3915433 MISS:    2133254 MSHR_MERGE:      69222
cpu0->cpu0_DTLB LOAD         ACCESS:    6048687 HIT:    3915433 MISS:    2133254 MSHR_MERGE:      69222
cpu0->cpu0_DTLB RFO          ACCESS:          0 HIT:          0 MISS:          0 MSHR_MERGE:          0
cpu0->cpu0_DTLB PREFETCH     ACCESS:          0 HIT:          0 MISS:          0 MSHR_MERGE:          0
cpu0->cpu0_DTLB WRITE        ACCESS:          0 HIT:          0 MISS:          0 MSHR_MERGE:          0
cpu0->cpu0_DTLB TRANSLATION  ACCESS:          0 HIT:          0 MISS:          0 MSHR_MERGE:          0
cpu0->cpu0_DTLB PREFETCH REQUESTED:          0 ISSUED:          0 USEFUL:          0 USELESS:          0 LATE:          0
cpu0->cpu0_DTLB AVERAGE MISS LATENCY: 23.05 cycles
cpu0->LLC TOTAL        ACCESS:    3391366 HIT:     666110 MISS:    2725256 MSHR_MERGE:          0
cpu0->LLC LOAD         ACCESS:    2791205 HIT:     598068 MISS:    2193137 MSHR_MERGE:          0
cpu0->LLC RFO          ACCESS:        170 HIT:        170 MISS:          0 MSHR_MERGE:          0
cpu0->LLC PREFETCH     ACCESS:     468386 HIT:      14225 MISS:     454161 MSHR_MERGE:          0
cpu0->LLC WRITE        ACCESS:        894 HIT:        892 MISS:          2 MSHR_MERGE:          0
cpu0->LLC TRANSLATION  ACCESS:     130711 HIT:      52755 MISS:      77956 MSHR_MERGE:          0
cpu0->LLC PREFETCH REQUESTED:          0 ISSUED:          0 USEFUL:          0 USELESS:          0 LATE:          0
cpu0->LLC AVERAGE MISS LATENCY: 212.3 cycles

DRAM Statistics

Channel 0 RQ ROW_BUFFER_HIT:      21860
  ROW_BUFFER_MISS:    2703394
  AVG DBUS CONGESTED CYCLE: 2.989
Channel 0 WQ ROW_BUFFER_HIT:          0
  ROW_BUFFER_MISS:          3
  FULL:          0
Channel 0 REFRESHES ISSUED:      22034

[ROI Statistics]
[System Configuration]
num_cpus 1
cpu_freq 4000
fetch_width 6
decode_width 6
dispatch_width 6
execute_width 6
lq_width 2
sq_width 2
retire_width 6
scheduler_size 128
branch_mispredict_penalty 15
rob_size 352
lq_size 128
sq_size 72
ifetch_buffer_size 64
decode_buffer_size 32
dispatch_buffer_size 32
register_file_size 288
decode_latency 1
dispatch_latency 1
schedule_latency 1
execute_latency 1
page_size 4096
block_size 64
core_0_itlb_set 16
core_0_itlb_way 4
core_0_itlb_rq_size 16
core_0_itlb_wq_size 16
core_0_itlb_pq_size 0
core_0_itlb_mshr_size 8
core_0_itlb_hit_latency 1
core_0_itlb_fill_latency 1
core_0_itlb_max_tag_check 2
core_0_itlb_max_fill 2
core_0_dtlb_set 16
core_0_dtlb_way 4
core_0_dtlb_rq_size 16
core_0_dtlb_wq_size 16
core_0_dtlb_pq_size 0
core_0_dtlb_mshr_size 8
core_0_dtlb_hit_latency 1
core_0_dtlb_fill_latency 1
core_0_dtlb_max_tag_check 2
core_0_dtlb_max_fill 2
core_0_stlb_set 128
core_0_stlb_way 12
core_0_stlb_rq_size 32
core_0_stlb_wq_size 32
core_0_stlb_pq_size 0
core_0_stlb_mshr_size 16
core_0_stlb_hit_latency 4
core_0_stlb_fill_latency 4
core_0_stlb_max_tag_check 1
core_0_stlb_max_fill 1
core_0_l1i_set 64
core_0_l1i_way 8
core_0_l1i_rq_size 64
core_0_l1i_wq_size 64
core_0_l1i_pq_size 32
core_0_l1i_mshr_size 8
core_0_l1i_hit_latency 2
core_0_l1i_fill_latency 2
core_0_l1i_max_tag_check 2
core_0_l1i_max_fill 2
core_0_l1d_set 64
core_0_l1d_way 12
core_0_l1d_rq_size 64
core_0_l1d_wq_size 64
core_0_l1d_pq_size 8
core_0_l1d_mshr_size 16
core_0_l1d_hit_latency 2
core_0_l1d_fill_latency 3
core_0_l1d_max_tag_check 2
core_0_l1d_max_fill 2
core_0_l2c_set 1024
core_0_l2c_way 8
core_0_l2c_rq_size 32
core_0_l2c_wq_size 32
core_0_l2c_pq_size 16
core_0_l2c_mshr_size 32
core_0_l2c_hit_latency 5
core_0_l2c_fill_latency 5
core_0_l2c_max_tag_check 1
core_0_l2c_max_fill 1
llc_set 2048
llc_way 16
llc_rq_size 32
llc_wq_size 32
llc_pq_size 32
llc_mshr_size 64
llc_hit_latency 10
llc_fill_latency 10
llc_max_tag_check 1
llc_max_fill 1
dram_channels 1
dram_ranks 1
dram_bankgroups 8
dram_banks 4
dram_rows 65536
dram_columns 1024
dram_channel_width 8
dram_rq_size 64
dram_wq_size 64
dram_size 17179869184
core_0_itlb_prefetcher no
core_0_dtlb_prefetcher no
core_0_stlb_prefetcher no
core_0_l1i_prefetcher next_line
core_0_l1d_prefetcher berti
core_0_l2c_prefetcher ip_stride
llc_prefetcher no
llc_replacement drrip

Core_0_instructions 50000001
Core_0_cycles 264411125
Core_0_IPC 0.189099
Core_0_branch_prediction_accuracy 87.1861
Core_0_branch_MPKI 21.5965
Core_0_average_ROB_occupancy_at_mispredict 26.0713

Core_0_ITLB_total_access 8630
Core_0_ITLB_total_hit 8630
Core_0_ITLB_total_miss 0
Core_0_ITLB_total_MPKI 0
Core_0_ITLB_total_miss_rate 0
Core_0_ITLB_demand_access 8630
Core_0_ITLB_demand_hit 8630
Core_0_ITLB_demand_miss 0
Core_0_ITLB_demand_MPKI 0
Core_0_ITLB_demand_miss_rate 0
Core_0_ITLB_load_access 8630
Core_0_ITLB_load_hit 8630
Core_0_ITLB_load_miss 0
Core_0_ITLB_load_MPKI 0
Core_0_ITLB_load_miss_rate 0
Core_0_ITLB_rfo_access 0
Core_0_ITLB_rfo_hit 0
Core_0_ITLB_rfo_miss 0
Core_0_ITLB_rfo_MPKI 0
Core_0_ITLB_rfo_miss_rate 0
Core_0_ITLB_prefetch_access 0
Core_0_ITLB_prefetch_hit 0
Core_0_ITLB_prefetch_miss 0
Core_0_ITLB_prefetch_MPKI 0
Core_0_ITLB_prefetch_miss_rate 0
Core_0_ITLB_writeback_access 0
Core_0_ITLB_writeback_hit 0
Core_0_ITLB_writeback_miss 0
Core_0_ITLB_writeback_MPKI 0
Core_0_ITLB_writeback_miss_rate 0
Core_0_ITLB_prefetch_requested 0
Core_0_ITLB_prefetch_issued 0
Core_0_ITLB_prefetch_useful 0
Core_0_ITLB_prefetch_useless 0
Core_0_ITLB_prefetch_late 0
Core_0_ITLB_prefetch_accuracy 0
Core_0_ITLB_prefetch_coverage 0
Core_0_ITLB_total_eviction 0

Core_0_DTLB_total_access 6048687
Core_0_DTLB_total_hit 3915433
Core_0_DTLB_total_miss 2133254
Core_0_DTLB_total_MPKI 42.6651
Core_0_DTLB_total_miss_rate 0.352681
Core_0_DTLB_demand_access 6048687
Core_0_DTLB_demand_hit 3915433
Core_0_DTLB_demand_miss 2133254
Core_0_DTLB_demand_MPKI 42.6651
Core_0_DTLB_demand_miss_rate 0.352681
Core_0_DTLB_load_access 6048687
Core_0_DTLB_load_hit 3915433
Core_0_DTLB_load_miss 2133254
Core_0_DTLB_load_MPKI 42.6651
Core_0_DTLB_load_miss_rate 0.352681
Core_0_DTLB_rfo_access 0
Core_0_DTLB_rfo_hit 0
Core_0_DTLB_rfo_miss 0
Core_0_DTLB_rfo_MPKI 0
Core_0_DTLB_rfo_miss_rate 0
Core_0_DTLB_prefetch_access 0
Core_0_DTLB_prefetch_hit 0
Core_0_DTLB_prefetch_miss 0
Core_0_DTLB_prefetch_MPKI 0
Core_0_DTLB_prefetch_miss_rate 0
Core_0_DTLB_writeback_access 0
Core_0_DTLB_writeback_hit 0
Core_0_DTLB_writeback_miss 0
Core_0_DTLB_writeback_MPKI 0
Core_0_DTLB_writeback_miss_rate 0
Core_0_DTLB_prefetch_requested 0
Core_0_DTLB_prefetch_issued 0
Core_0_DTLB_prefetch_useful 0
Core_0_DTLB_prefetch_useless 0
Core_0_DTLB_prefetch_late 0
Core_0_DTLB_prefetch_accuracy 0
Core_0_DTLB_prefetch_coverage 0
Core_0_DTLB_total_eviction 2064032

Core_0_STLB_total_access 2064032
Core_0_STLB_total_hit 1981179
Core_0_STLB_total_miss 82853
Core_0_STLB_total_MPKI 1.65706
Core_0_STLB_total_miss_rate 0.0401413
Core_0_STLB_demand_access 2064032
Core_0_STLB_demand_hit 1981179
Core_0_STLB_demand_miss 82853
Core_0_STLB_demand_MPKI 1.65706
Core_0_STLB_demand_miss_rate 0.0401413
Core_0_STLB_load_access 2064032
Core_0_STLB_load_hit 1981179
Core_0_STLB_load_miss 82853
Core_0_STLB_load_MPKI 1.65706
Core_0_STLB_load_miss_rate 0.0401413
Core_0_STLB_rfo_access 0
Core_0_STLB_rfo_hit 0
Core_0_STLB_rfo_miss 0
Core_0_STLB_rfo_MPKI 0
Core_0_STLB_rfo_miss_rate 0
Core_0_STLB_prefetch_access 0
Core_0_STLB_prefetch_hit 0
Core_0_STLB_prefetch_miss 0
Core_0_STLB_prefetch_MPKI 0
Core_0_STLB_prefetch_miss_rate 0
Core_0_STLB_writeback_access 0
Core_0_STLB_writeback_hit 0
Core_0_STLB_writeback_miss 0
Core_0_STLB_writeback_MPKI 0
Core_0_STLB_writeback_miss_rate 0
Core_0_STLB_prefetch_requested 0
Core_0_STLB_prefetch_issued 0
Core_0_STLB_prefetch_useful 0
Core_0_STLB_prefetch_useless 0
Core_0_STLB_prefetch_late 0
Core_0_STLB_prefetch_accuracy 0
Core_0_STLB_prefetch_coverage 0
Core_0_STLB_total_eviction 1995858

Core_0_L1I_total_access 10673
Core_0_L1I_total_hit 10673
Core_0_L1I_total_miss 0
Core_0_L1I_total_MPKI 0
Core_0_L1I_total_miss_rate 0
Core_0_L1I_demand_access 10673
Core_0_L1I_demand_hit 10673
Core_0_L1I_demand_miss 0
Core_0_L1I_demand_MPKI 0
Core_0_L1I_demand_miss_rate 0
Core_0_L1I_load_access 10673
Core_0_L1I_load_hit 10673
Core_0_L1I_load_miss 0
Core_0_L1I_load_MPKI 0
Core_0_L1I_load_miss_rate 0
Core_0_L1I_rfo_access 0
Core_0_L1I_rfo_hit 0
Core_0_L1I_rfo_miss 0
Core_0_L1I_rfo_MPKI 0
Core_0_L1I_rfo_miss_rate 0
Core_0_L1I_prefetch_access 0
Core_0_L1I_prefetch_hit 0
Core_0_L1I_prefetch_miss 0
Core_0_L1I_prefetch_MPKI 0
Core_0_L1I_prefetch_miss_rate 0
Core_0_L1I_writeback_access 0
Core_0_L1I_writeback_hit 0
Core_0_L1I_writeback_miss 0
Core_0_L1I_writeback_MPKI 0
Core_0_L1I_writeback_miss_rate 0
Core_0_L1I_prefetch_requested 0
Core_0_L1I_prefetch_issued 0
Core_0_L1I_prefetch_useful 0
Core_0_L1I_prefetch_useless 0
Core_0_L1I_prefetch_late 0
Core_0_L1I_prefetch_accuracy 0
Core_0_L1I_prefetch_coverage 0
Core_0_L1I_total_eviction 0

Core_0_L1D_total_access 6115485
Core_0_L1D_total_hit 2672894
Core_0_L1D_total_miss 3442591
Core_0_L1D_total_MPKI 68.8518
Core_0_L1D_total_miss_rate 0.56293
Core_0_L1D_demand_access 4780659
Core_0_L1D_demand_hit 1766521
Core_0_L1D_demand_miss 3014138
Core_0_L1D_demand_MPKI 60.2828
Core_0_L1D_demand_miss_rate 0.630486
Core_0_L1D_load_access 4780659
Core_0_L1D_load_hit 1766521
Core_0_L1D_load_miss 3014138
Core_0_L1D_load_MPKI 60.2828
Core_0_L1D_load_miss_rate 0.630486
Core_0_L1D_rfo_access 0
Core_0_L1D_rfo_hit 0
Core_0_L1D_rfo_miss 0
Core_0_L1D_rfo_MPKI 0
Core_0_L1D_rfo_miss_rate 0
Core_0_L1D_prefetch_access 425963
Core_0_L1D_prefetch_hit 18920
Core_0_L1D_prefetch_miss 407043
Core_0_L1D_prefetch_MPKI 8.14086
Core_0_L1D_prefetch_miss_rate 0.955583
Core_0_L1D_writeback_access 908863
Core_0_L1D_writeback_hit 887453
Core_0_L1D_writeback_miss 21410
Core_0_L1D_writeback_MPKI 0.4282
Core_0_L1D_writeback_miss_rate 0.0235569
Core_0_L1D_prefetch_requested 425963
Core_0_L1D_prefetch_issued 425963
Core_0_L1D_prefetch_useful 29153
Core_0_L1D_prefetch_useless 373809
Core_0_L1D_prefetch_late 3912
Core_0_L1D_prefetch_accuracy 0.0684402
Core_0_L1D_prefetch_coverage 0.00957943
Core_0_L1D_total_eviction 3517124

Core_0_L2C_total_access 3509136
Core_0_L2C_total_hit 246486
Core_0_L2C_total_miss 3262650
Core_0_L2C_total_MPKI 65.253
Core_0_L2C_total_miss_rate 0.929759
Core_0_L2C_demand_access 2970839
Core_0_L2C_demand_hit 179463
Core_0_L2C_demand_miss 2791376
Core_0_L2C_demand_MPKI 55.8275
Core_0_L2C_demand_miss_rate 0.939592
Core_0_L2C_load_access 2962521
Core_0_L2C_load_hit 171315
Core_0_L2C_load_miss 2791206
Core_0_L2C_load_MPKI 55.8241
Core_0_L2C_load_miss_rate 0.942173
Core_0_L2C_rfo_access 8318
Core_0_L2C_rfo_hit 8148
Core_0_L2C_rfo_miss 170
Core_0_L2C_rfo_MPKI 0.0034
Core_0_L2C_rfo_miss_rate 0.0204376
Core_0_L2C_prefetch_access 528428
Core_0_L2C_prefetch_hit 57182
Core_0_L2C_prefetch_miss 471246
Core_0_L2C_prefetch_MPKI 9.42492
Core_0_L2C_prefetch_miss_rate 0.891788
Core_0_L2C_writeback_access 9869
Core_0_L2C_writeback_hit 9841
Core_0_L2C_writeback_miss 28
Core_0_L2C_writeback_MPKI 0.00056
Core_0_L2C_writeback_miss_rate 0.00283717
Core_0_L2C_prefetch_requested 125485
Core_0_L2C_prefetch_issued 125485
Core_0_L2C_prefetch_useful 4730
Core_0_L2C_prefetch_useless 69337
Core_0_L2C_prefetch_late 1
Core_0_L2C_prefetch_accuracy 0.0376937
Core_0_L2C_prefetch_coverage 0.00169164
Core_0_L2C_total_eviction 3390435

Core_0_LLC_total_access 3260655
Core_0_LLC_total_hit 613355
Core_0_LLC_total_miss 2647300
Core_0_LLC_total_MPKI 52.946
Core_0_LLC_total_miss_rate 0.811892
Core_0_LLC_demand_access 2791375
Core_0_LLC_demand_hit 598238
Core_0_LLC_demand_miss 2193137
Core_0_LLC_demand_MPKI 43.8627
Core_0_LLC_demand_miss_rate 0.785683
Core_0_LLC_load_access 2791205
Core_0_LLC_load_hit 598068
Core_0_LLC_load_miss 2193137
Core_0_LLC_load_MPKI 43.8627
Core_0_LLC_load_miss_rate 0.785731
Core_0_LLC_rfo_access 170
Core_0_LLC_rfo_hit 170
Core_0_LLC_rfo_miss 0
Core_0_LLC_rfo_MPKI 0
Core_0_LLC_rfo_miss_rate 0
Core_0_LLC_prefetch_access 468386
Core_0_LLC_prefetch_hit 14225
Core_0_LLC_prefetch_miss 454161
Core_0_LLC_prefetch_MPKI 9.08322
Core_0_LLC_prefetch_miss_rate 0.96963
Core_0_LLC_writeback_access 894
Core_0_LLC_writeback_hit 892
Core_0_LLC_writeback_miss 2
Core_0_LLC_writeback_MPKI 4e-05
Core_0_LLC_writeback_miss_rate 0.00223714
Core_0_LLC_prefetch_requested 0
Core_0_LLC_prefetch_issued 0
Core_0_LLC_prefetch_useful 0
Core_0_LLC_prefetch_useless 0
Core_0_LLC_prefetch_late 0
Core_0_LLC_prefetch_accuracy 0
Core_0_LLC_prefetch_coverage 0
Core_0_LLC_total_eviction 2725256

[DRAM Statistics]
Channel_0_RQ_row_buffer_hit 21860
Channel_0_RQ_row_buffer_miss 2703394
Channel_0_WQ_row_buffer_hit 0
Channel_0_WQ_row_buffer_miss 3
Channel_0_WQ_full 0
Channel_0_dbus_congested 3939470
DRAM_total_RQ_row_buffer_hit 21860
DRAM_total_RQ_row_buffer_miss 2703394
DRAM_total_WQ_row_buffer_hit 0
DRAM_total_WQ_row_buffer_miss 3
DRAM_total_WQ_full 0
DRAM_total_dbus_congested 3939470
DRAM_avg_congested_cycle 2.98947

======STLB miss causes ========
Core_0_STLB_miss_cause_breakdown
Core_0_STLB_cause_Demand_Data_miss 0
Core_0_STLB_cause_Demand_Data_miss_rate 0
Core_0_STLB_cause_Demand_Instruction_miss 0
Core_0_STLB_cause_Demand_Instruction_miss_rate 0
Core_0_STLB_cause_L1D_Prefetch_miss 82853
Core_0_STLB_cause_L1D_Prefetch_miss_rate 0.0401413
Core_0_STLB_cause_L1I_Prefetch_miss 0
Core_0_STLB_cause_L1I_Prefetch_miss_rate 0
Core_0_STLB_cause_Other_miss 0
Core_0_STLB_cause_Other_miss_rate 0
Core_0_STLB_Demand_miss 0
Core_0_STLB_Demand_miss_rate 0
Core_0_STLB_L1D_Prefetch_miss 82853
Core_0_STLB_L1D_Prefetch_miss_rate 0.0401413
Core_0_STLB_Other_miss 0
Core_0_STLB_Other_miss_rate 0
