[VMEM] WARNING: physical memory size is smaller than virtual memory size.

*** ChampSim Multicore Out-of-Order Simulator ***
Warmup Instructions: 20000000
Simulation Instructions: 50000000
Number of CPUs: 1
Page size: 4096
Core 0: /data0/tzh/champsim_traces/SPEC17/602.gcc_s-2375B.champsimtrace.xz
 L1D Berti prefetcher
Off-chip DRAM Size: 4 GiB Channels: 1 Width: 64-bit Data Rate: 3205 MT/s
Warmup halting CPU 0 at instruction 20000001 cycle 4725677 for remainder of phase
Warmup finished CPU 0 instructions: 20000001 cycles: 4725677 cumulative IPC: 4.232 (Simulation time: 00 hr 00 min 59 sec)
Warmup complete CPU 0 instructions: 20000001 cycles: 4725677 cumulative IPC: 4.232 (Simulation time: 00 hr 00 min 59 sec)
Simulation finished CPU 0 instructions: 50000003 cycles: 41602784 cumulative IPC: 1.202 (Simulation time: 00 hr 05 min 33 sec)
Simulation complete CPU 0 instructions: 50000003 cycles: 41602784 cumulative IPC: 1.202 (Simulation time: 00 hr 05 min 33 sec)

ChampSim completed all CPUs

=== Simulation ===
CPU 0 runs /data0/tzh/champsim_traces/SPEC17/602.gcc_s-2375B.champsimtrace.xz

Region of Interest Statistics

CPU 0 cumulative IPC: 1.202 instructions: 50000003 cycles: 41602784
CPU 0 Branch Prediction Accuracy: 89.99% MPKI: 21.11 Average ROB Occupancy at Mispredict: 26.38
Branch type MPKI
BRANCH_DIRECT_JUMP: 0.7672
BRANCH_INDIRECT: 0.9706
BRANCH_CONDITIONAL: 19.07
BRANCH_DIRECT_CALL: 0.1447
BRANCH_INDIRECT_CALL: 0.02178
BRANCH_RETURN: 0.1352

cpu0->cpu0_STLB TOTAL        ACCESS:     222130 HIT:     215226 MISS:       6904 MSHR_MERGE:          0
cpu0->cpu0_STLB LOAD         ACCESS:     222130 HIT:     215226 MISS:       6904 MSHR_MERGE:          0
cpu0->cpu0_STLB RFO          ACCESS:          0 HIT:          0 MISS:          0 MSHR_MERGE:          0
cpu0->cpu0_STLB PREFETCH     ACCESS:          0 HIT:          0 MISS:          0 MSHR_MERGE:          0
cpu0->cpu0_STLB WRITE        ACCESS:          0 HIT:          0 MISS:          0 MSHR_MERGE:          0
cpu0->cpu0_STLB TRANSLATION  ACCESS:          0 HIT:          0 MISS:          0 MSHR_MERGE:          0
cpu0->cpu0_STLB PREFETCH REQUESTED:          0 ISSUED:          0 USEFUL:          0 USELESS:          0 LATE:          0
cpu0->cpu0_STLB AVERAGE MISS LATENCY: 113.1 cycles
cpu0->cpu0_L2C TOTAL        ACCESS:    2243342 HIT:    1795287 MISS:     448055 MSHR_MERGE:      60273
cpu0->cpu0_L2C LOAD         ACCESS:     378129 HIT:     285185 MISS:      92944 MSHR_MERGE:       1274
cpu0->cpu0_L2C RFO          ACCESS:      57069 HIT:      26738 MISS:      30331 MSHR_MERGE:        144
cpu0->cpu0_L2C PREFETCH     ACCESS:    1657185 HIT:    1339415 MISS:     317770 MSHR_MERGE:      58855
cpu0->cpu0_L2C WRITE        ACCESS:     142231 HIT:     141848 MISS:        383 MSHR_MERGE:          0
cpu0->cpu0_L2C TRANSLATION  ACCESS:       8728 HIT:       2101 MISS:       6627 MSHR_MERGE:          0
cpu0->cpu0_L2C PREFETCH REQUESTED:    1424521 ISSUED:    1358017 USEFUL:     125956 USELESS:      76343 LATE:       1418
cpu0->cpu0_L2C AVERAGE MISS LATENCY: 70.28 cycles
cpu0->cpu0_L1I TOTAL        ACCESS:     555244 HIT:     521726 MISS:      33518 MSHR_MERGE:       4454
cpu0->cpu0_L1I LOAD         ACCESS:     555244 HIT:     521726 MISS:      33518 MSHR_MERGE:       4454
cpu0->cpu0_L1I RFO          ACCESS:          0 HIT:          0 MISS:          0 MSHR_MERGE:          0
cpu0->cpu0_L1I PREFETCH     ACCESS:          0 HIT:          0 MISS:          0 MSHR_MERGE:          0
cpu0->cpu0_L1I WRITE        ACCESS:          0 HIT:          0 MISS:          0 MSHR_MERGE:          0
cpu0->cpu0_L1I TRANSLATION  ACCESS:          0 HIT:          0 MISS:          0 MSHR_MERGE:          0
cpu0->cpu0_L1I PREFETCH REQUESTED:          0 ISSUED:          0 USEFUL:          0 USELESS:          0 LATE:          0
cpu0->cpu0_L1I AVERAGE MISS LATENCY: 47.68 cycles
cpu0->cpu0_L1D TOTAL        ACCESS:   15475549 HIT:   14520391 MISS:     955158 MSHR_MERGE:     241122
cpu0->cpu0_L1D LOAD         ACCESS:    9200995 HIT:    8755825 MISS:     445170 MSHR_MERGE:      96104
cpu0->cpu0_L1D RFO          ACCESS:          0 HIT:          0 MISS:          0 MSHR_MERGE:          0
cpu0->cpu0_L1D PREFETCH     ACCESS:     529800 HIT:     222005 MISS:     307795 MSHR_MERGE:       8627
cpu0->cpu0_L1D WRITE        ACCESS:    5727642 HIT:    5534198 MISS:     193444 MSHR_MERGE:     136370
cpu0->cpu0_L1D TRANSLATION  ACCESS:      17112 HIT:       8363 MISS:       8749 MSHR_MERGE:         21
cpu0->cpu0_L1D PREFETCH REQUESTED:     536255 ISSUED:     529800 USEFUL:     173862 USELESS:     125235 LATE:       7697
cpu0->cpu0_L1D AVERAGE MISS LATENCY: 27.84 cycles
cpu0->cpu0_ITLB TOTAL        ACCESS:     520244 HIT:     513073 MISS:       7171 MSHR_MERGE:       2919
cpu0->cpu0_ITLB LOAD         ACCESS:     520244 HIT:     513073 MISS:       7171 MSHR_MERGE:       2919
cpu0->cpu0_ITLB RFO          ACCESS:          0 HIT:          0 MISS:          0 MSHR_MERGE:          0
cpu0->cpu0_ITLB PREFETCH     ACCESS:          0 HIT:          0 MISS:          0 MSHR_MERGE:          0
cpu0->cpu0_ITLB WRITE        ACCESS:          0 HIT:          0 MISS:          0 MSHR_MERGE:          0
cpu0->cpu0_ITLB TRANSLATION  ACCESS:          0 HIT:          0 MISS:          0 MSHR_MERGE:          0
cpu0->cpu0_ITLB PREFETCH REQUESTED:          0 ISSUED:          0 USEFUL:          0 USELESS:          0 LATE:          0
cpu0->cpu0_ITLB AVERAGE MISS LATENCY: 18.06 cycles
cpu0->cpu0_DTLB TOTAL        ACCESS:   14731450 HIT:   14447653 MISS:     283797 MSHR_MERGE:      65919
cpu0->cpu0_DTLB LOAD         ACCESS:   14731450 HIT:   14447653 MISS:     283797 MSHR_MERGE:      65919
cpu0->cpu0_DTLB RFO          ACCESS:          0 HIT:          0 MISS:          0 MSHR_MERGE:          0
cpu0->cpu0_DTLB PREFETCH     ACCESS:          0 HIT:          0 MISS:          0 MSHR_MERGE:          0
cpu0->cpu0_DTLB WRITE        ACCESS:          0 HIT:          0 MISS:          0 MSHR_MERGE:          0
cpu0->cpu0_DTLB TRANSLATION  ACCESS:          0 HIT:          0 MISS:          0 MSHR_MERGE:          0
cpu0->cpu0_DTLB PREFETCH REQUESTED:          0 ISSUED:          0 USEFUL:          0 USELESS:          0 LATE:          0
cpu0->cpu0_DTLB AVERAGE MISS LATENCY: 8.361 cycles
cpu0->LLC TOTAL        ACCESS:     463227 HIT:     379957 MISS:      83270 MSHR_MERGE:          0
cpu0->LLC LOAD         ACCESS:      91670 HIT:      78065 MISS:      13605 MSHR_MERGE:          0
cpu0->LLC RFO          ACCESS:      30187 HIT:      11422 MISS:      18765 MSHR_MERGE:          0
cpu0->LLC PREFETCH     ACCESS:     258915 HIT:     218632 MISS:      40283 MSHR_MERGE:          0
cpu0->LLC WRITE        ACCESS:      75828 HIT:      66939 MISS:       8889 MSHR_MERGE:          0
cpu0->LLC TRANSLATION  ACCESS:       6627 HIT:       4899 MISS:       1728 MSHR_MERGE:          0
cpu0->LLC PREFETCH REQUESTED:          0 ISSUED:          0 USEFUL:          0 USELESS:          0 LATE:          0
cpu0->LLC AVERAGE MISS LATENCY: 166.4 cycles

DRAM Statistics

Channel 0 RQ ROW_BUFFER_HIT:       4352
  ROW_BUFFER_MISS:      69984
  AVG DBUS CONGESTED CYCLE: 13.12
Channel 0 WQ ROW_BUFFER_HIT:       5174
  ROW_BUFFER_MISS:      23369
  FULL:          0
Channel 0 REFRESHES ISSUED:       3467

[ROI Statistics]
[System Configuration]
num_cpus 1
cpu_freq 4000
fetch_width 6
decode_width 6
dispatch_width 6
execute_width 6
lq_width 2
sq_width 2
retire_width 6
scheduler_size 160
branch_mispredict_penalty 1
rob_size 352
lq_size 240
sq_size 112
ifetch_buffer_size 64
decode_buffer_size 32
dispatch_buffer_size 32
register_file_size 288
decode_latency 1
dispatch_latency 1
schedule_latency 0
execute_latency 0
page_size 4096
block_size 64
core_0_itlb_set 16
core_0_itlb_way 4
core_0_itlb_rq_size 16
core_0_itlb_wq_size 16
core_0_itlb_pq_size 0
core_0_itlb_mshr_size 8
core_0_itlb_hit_latency 1
core_0_itlb_fill_latency 1
core_0_itlb_max_tag_check 2
core_0_itlb_max_fill 2
core_0_dtlb_set 16
core_0_dtlb_way 4
core_0_dtlb_rq_size 16
core_0_dtlb_wq_size 16
core_0_dtlb_pq_size 0
core_0_dtlb_mshr_size 8
core_0_dtlb_hit_latency 1
core_0_dtlb_fill_latency 1
core_0_dtlb_max_tag_check 2
core_0_dtlb_max_fill 2
core_0_stlb_set 128
core_0_stlb_way 12
core_0_stlb_rq_size 32
core_0_stlb_wq_size 32
core_0_stlb_pq_size 0
core_0_stlb_mshr_size 16
core_0_stlb_hit_latency 4
core_0_stlb_fill_latency 4
core_0_stlb_max_tag_check 1
core_0_stlb_max_fill 1
core_0_l1i_set 64
core_0_l1i_way 8
core_0_l1i_rq_size 64
core_0_l1i_wq_size 64
core_0_l1i_pq_size 32
core_0_l1i_mshr_size 8
core_0_l1i_hit_latency 2
core_0_l1i_fill_latency 2
core_0_l1i_max_tag_check 2
core_0_l1i_max_fill 2
core_0_l1d_set 64
core_0_l1d_way 12
core_0_l1d_rq_size 64
core_0_l1d_wq_size 64
core_0_l1d_pq_size 8
core_0_l1d_mshr_size 16
core_0_l1d_hit_latency 2
core_0_l1d_fill_latency 3
core_0_l1d_max_tag_check 2
core_0_l1d_max_fill 2
core_0_l2c_set 1024
core_0_l2c_way 8
core_0_l2c_rq_size 32
core_0_l2c_wq_size 32
core_0_l2c_pq_size 16
core_0_l2c_mshr_size 32
core_0_l2c_hit_latency 5
core_0_l2c_fill_latency 5
core_0_l2c_max_tag_check 1
core_0_l2c_max_fill 1
llc_set 2048
llc_way 16
llc_rq_size 32
llc_wq_size 32
llc_pq_size 32
llc_mshr_size 64
llc_hit_latency 10
llc_fill_latency 10
llc_max_tag_check 1
llc_max_fill 1
dram_channels 1
dram_ranks 1
dram_bankgroups 8
dram_banks 4
dram_rows 16384
dram_columns 1024
dram_channel_width 8
dram_rq_size 64
dram_wq_size 64
dram_size 4294967296
core_0_itlb_prefetcher no
core_0_dtlb_prefetcher no
core_0_stlb_prefetcher no
core_0_l1i_prefetcher next_line
core_0_l1d_prefetcher berti
core_0_l2c_prefetcher pythia
llc_prefetcher no
llc_replacement drrip

Core_0_instructions 50000003
Core_0_cycles 41602784
Core_0_IPC 1.20184
Core_0_branch_prediction_accuracy 89.9944
Core_0_branch_MPKI 21.1109
Core_0_average_ROB_occupancy_at_mispredict 26.3797

Core_0_ITLB_total_access 520244
Core_0_ITLB_total_hit 513073
Core_0_ITLB_total_miss 7171
Core_0_ITLB_total_MPKI 0.14342
Core_0_ITLB_total_miss_rate 0.0137839
Core_0_ITLB_demand_access 520244
Core_0_ITLB_demand_hit 513073
Core_0_ITLB_demand_miss 7171
Core_0_ITLB_demand_MPKI 0.14342
Core_0_ITLB_demand_miss_rate 0.0137839
Core_0_ITLB_load_access 520244
Core_0_ITLB_load_hit 513073
Core_0_ITLB_load_miss 7171
Core_0_ITLB_load_MPKI 0.14342
Core_0_ITLB_load_miss_rate 0.0137839
Core_0_ITLB_rfo_access 0
Core_0_ITLB_rfo_hit 0
Core_0_ITLB_rfo_miss 0
Core_0_ITLB_rfo_MPKI 0
Core_0_ITLB_rfo_miss_rate 0
Core_0_ITLB_prefetch_access 0
Core_0_ITLB_prefetch_hit 0
Core_0_ITLB_prefetch_miss 0
Core_0_ITLB_prefetch_MPKI 0
Core_0_ITLB_prefetch_miss_rate 0
Core_0_ITLB_writeback_access 0
Core_0_ITLB_writeback_hit 0
Core_0_ITLB_writeback_miss 0
Core_0_ITLB_writeback_MPKI 0
Core_0_ITLB_writeback_miss_rate 0
Core_0_ITLB_prefetch_requested 0
Core_0_ITLB_prefetch_issued 0
Core_0_ITLB_prefetch_useful 0
Core_0_ITLB_prefetch_useless 0
Core_0_ITLB_prefetch_late 0
Core_0_ITLB_prefetch_accuracy 0
Core_0_ITLB_prefetch_coverage 0

Core_0_DTLB_total_access 14731450
Core_0_DTLB_total_hit 14447653
Core_0_DTLB_total_miss 283797
Core_0_DTLB_total_MPKI 5.67594
Core_0_DTLB_total_miss_rate 0.0192647
Core_0_DTLB_demand_access 14731450
Core_0_DTLB_demand_hit 14447653
Core_0_DTLB_demand_miss 283797
Core_0_DTLB_demand_MPKI 5.67594
Core_0_DTLB_demand_miss_rate 0.0192647
Core_0_DTLB_load_access 14731450
Core_0_DTLB_load_hit 14447653
Core_0_DTLB_load_miss 283797
Core_0_DTLB_load_MPKI 5.67594
Core_0_DTLB_load_miss_rate 0.0192647
Core_0_DTLB_rfo_access 0
Core_0_DTLB_rfo_hit 0
Core_0_DTLB_rfo_miss 0
Core_0_DTLB_rfo_MPKI 0
Core_0_DTLB_rfo_miss_rate 0
Core_0_DTLB_prefetch_access 0
Core_0_DTLB_prefetch_hit 0
Core_0_DTLB_prefetch_miss 0
Core_0_DTLB_prefetch_MPKI 0
Core_0_DTLB_prefetch_miss_rate 0
Core_0_DTLB_writeback_access 0
Core_0_DTLB_writeback_hit 0
Core_0_DTLB_writeback_miss 0
Core_0_DTLB_writeback_MPKI 0
Core_0_DTLB_writeback_miss_rate 0
Core_0_DTLB_prefetch_requested 0
Core_0_DTLB_prefetch_issued 0
Core_0_DTLB_prefetch_useful 0
Core_0_DTLB_prefetch_useless 0
Core_0_DTLB_prefetch_late 0
Core_0_DTLB_prefetch_accuracy 0
Core_0_DTLB_prefetch_coverage 0

Core_0_STLB_total_access 222130
Core_0_STLB_total_hit 215226
Core_0_STLB_total_miss 6904
Core_0_STLB_total_MPKI 0.13808
Core_0_STLB_total_miss_rate 0.0310809
Core_0_STLB_demand_access 222130
Core_0_STLB_demand_hit 215226
Core_0_STLB_demand_miss 6904
Core_0_STLB_demand_MPKI 0.13808
Core_0_STLB_demand_miss_rate 0.0310809
Core_0_STLB_load_access 222130
Core_0_STLB_load_hit 215226
Core_0_STLB_load_miss 6904
Core_0_STLB_load_MPKI 0.13808
Core_0_STLB_load_miss_rate 0.0310809
Core_0_STLB_rfo_access 0
Core_0_STLB_rfo_hit 0
Core_0_STLB_rfo_miss 0
Core_0_STLB_rfo_MPKI 0
Core_0_STLB_rfo_miss_rate 0
Core_0_STLB_prefetch_access 0
Core_0_STLB_prefetch_hit 0
Core_0_STLB_prefetch_miss 0
Core_0_STLB_prefetch_MPKI 0
Core_0_STLB_prefetch_miss_rate 0
Core_0_STLB_writeback_access 0
Core_0_STLB_writeback_hit 0
Core_0_STLB_writeback_miss 0
Core_0_STLB_writeback_MPKI 0
Core_0_STLB_writeback_miss_rate 0
Core_0_STLB_prefetch_requested 0
Core_0_STLB_prefetch_issued 0
Core_0_STLB_prefetch_useful 0
Core_0_STLB_prefetch_useless 0
Core_0_STLB_prefetch_late 0
Core_0_STLB_prefetch_accuracy 0
Core_0_STLB_prefetch_coverage 0

Core_0_L1I_total_access 555244
Core_0_L1I_total_hit 521726
Core_0_L1I_total_miss 33518
Core_0_L1I_total_MPKI 0.67036
Core_0_L1I_total_miss_rate 0.0603663
Core_0_L1I_demand_access 555244
Core_0_L1I_demand_hit 521726
Core_0_L1I_demand_miss 33518
Core_0_L1I_demand_MPKI 0.67036
Core_0_L1I_demand_miss_rate 0.0603663
Core_0_L1I_load_access 555244
Core_0_L1I_load_hit 521726
Core_0_L1I_load_miss 33518
Core_0_L1I_load_MPKI 0.67036
Core_0_L1I_load_miss_rate 0.0603663
Core_0_L1I_rfo_access 0
Core_0_L1I_rfo_hit 0
Core_0_L1I_rfo_miss 0
Core_0_L1I_rfo_MPKI 0
Core_0_L1I_rfo_miss_rate 0
Core_0_L1I_prefetch_access 0
Core_0_L1I_prefetch_hit 0
Core_0_L1I_prefetch_miss 0
Core_0_L1I_prefetch_MPKI 0
Core_0_L1I_prefetch_miss_rate 0
Core_0_L1I_writeback_access 0
Core_0_L1I_writeback_hit 0
Core_0_L1I_writeback_miss 0
Core_0_L1I_writeback_MPKI 0
Core_0_L1I_writeback_miss_rate 0
Core_0_L1I_prefetch_requested 0
Core_0_L1I_prefetch_issued 0
Core_0_L1I_prefetch_useful 0
Core_0_L1I_prefetch_useless 0
Core_0_L1I_prefetch_late 0
Core_0_L1I_prefetch_accuracy 0
Core_0_L1I_prefetch_coverage 0

Core_0_L1D_total_access 15458437
Core_0_L1D_total_hit 14512028
Core_0_L1D_total_miss 946409
Core_0_L1D_total_MPKI 18.9282
Core_0_L1D_total_miss_rate 0.0612228
Core_0_L1D_demand_access 9200995
Core_0_L1D_demand_hit 8755825
Core_0_L1D_demand_miss 445170
Core_0_L1D_demand_MPKI 8.9034
Core_0_L1D_demand_miss_rate 0.0483828
Core_0_L1D_load_access 9200995
Core_0_L1D_load_hit 8755825
Core_0_L1D_load_miss 445170
Core_0_L1D_load_MPKI 8.9034
Core_0_L1D_load_miss_rate 0.0483828
Core_0_L1D_rfo_access 0
Core_0_L1D_rfo_hit 0
Core_0_L1D_rfo_miss 0
Core_0_L1D_rfo_MPKI 0
Core_0_L1D_rfo_miss_rate 0
Core_0_L1D_prefetch_access 529800
Core_0_L1D_prefetch_hit 222005
Core_0_L1D_prefetch_miss 307795
Core_0_L1D_prefetch_MPKI 6.1559
Core_0_L1D_prefetch_miss_rate 0.580965
Core_0_L1D_writeback_access 5727642
Core_0_L1D_writeback_hit 5534198
Core_0_L1D_writeback_miss 193444
Core_0_L1D_writeback_MPKI 3.86888
Core_0_L1D_writeback_miss_rate 0.0337738
Core_0_L1D_prefetch_requested 536255
Core_0_L1D_prefetch_issued 529800
Core_0_L1D_prefetch_useful 173862
Core_0_L1D_prefetch_useless 125235
Core_0_L1D_prefetch_late 7697
Core_0_L1D_prefetch_accuracy 0.328165
Core_0_L1D_prefetch_coverage 0.280861

Core_0_L2C_total_access 2234614
Core_0_L2C_total_hit 1793186
Core_0_L2C_total_miss 441428
Core_0_L2C_total_MPKI 8.82856
Core_0_L2C_total_miss_rate 0.197541
Core_0_L2C_demand_access 435198
Core_0_L2C_demand_hit 311923
Core_0_L2C_demand_miss 123275
Core_0_L2C_demand_MPKI 2.4655
Core_0_L2C_demand_miss_rate 0.283262
Core_0_L2C_load_access 378129
Core_0_L2C_load_hit 285185
Core_0_L2C_load_miss 92944
Core_0_L2C_load_MPKI 1.85888
Core_0_L2C_load_miss_rate 0.2458
Core_0_L2C_rfo_access 57069
Core_0_L2C_rfo_hit 26738
Core_0_L2C_rfo_miss 30331
Core_0_L2C_rfo_MPKI 0.60662
Core_0_L2C_rfo_miss_rate 0.531479
Core_0_L2C_prefetch_access 1657185
Core_0_L2C_prefetch_hit 1339415
Core_0_L2C_prefetch_miss 317770
Core_0_L2C_prefetch_MPKI 6.3554
Core_0_L2C_prefetch_miss_rate 0.191753
Core_0_L2C_writeback_access 142231
Core_0_L2C_writeback_hit 141848
Core_0_L2C_writeback_miss 383
Core_0_L2C_writeback_MPKI 0.00766
Core_0_L2C_writeback_miss_rate 0.0026928
Core_0_L2C_prefetch_requested 1424521
Core_0_L2C_prefetch_issued 1358017
Core_0_L2C_prefetch_useful 125956
Core_0_L2C_prefetch_useless 76343
Core_0_L2C_prefetch_late 1418
Core_0_L2C_prefetch_accuracy 0.0927499
Core_0_L2C_prefetch_coverage 0.505379

Core_0_LLC_total_access 456600
Core_0_LLC_total_hit 375058
Core_0_LLC_total_miss 81542
Core_0_LLC_total_MPKI 1.63084
Core_0_LLC_total_miss_rate 0.178585
Core_0_LLC_demand_access 121857
Core_0_LLC_demand_hit 89487
Core_0_LLC_demand_miss 32370
Core_0_LLC_demand_MPKI 0.6474
Core_0_LLC_demand_miss_rate 0.265639
Core_0_LLC_load_access 91670
Core_0_LLC_load_hit 78065
Core_0_LLC_load_miss 13605
Core_0_LLC_load_MPKI 0.2721
Core_0_LLC_load_miss_rate 0.148413
Core_0_LLC_rfo_access 30187
Core_0_LLC_rfo_hit 11422
Core_0_LLC_rfo_miss 18765
Core_0_LLC_rfo_MPKI 0.3753
Core_0_LLC_rfo_miss_rate 0.621625
Core_0_LLC_prefetch_access 258915
Core_0_LLC_prefetch_hit 218632
Core_0_LLC_prefetch_miss 40283
Core_0_LLC_prefetch_MPKI 0.80566
Core_0_LLC_prefetch_miss_rate 0.155584
Core_0_LLC_writeback_access 75828
Core_0_LLC_writeback_hit 66939
Core_0_LLC_writeback_miss 8889
Core_0_LLC_writeback_MPKI 0.17778
Core_0_LLC_writeback_miss_rate 0.117226
Core_0_LLC_prefetch_requested 0
Core_0_LLC_prefetch_issued 0
Core_0_LLC_prefetch_useful 0
Core_0_LLC_prefetch_useless 0
Core_0_LLC_prefetch_late 0
Core_0_LLC_prefetch_accuracy 0
Core_0_LLC_prefetch_coverage 0

[DRAM Statistics]
Channel_0_RQ_row_buffer_hit 4352
Channel_0_RQ_row_buffer_miss 69984
Channel_0_WQ_row_buffer_hit 5174
Channel_0_WQ_row_buffer_miss 23369
Channel_0_WQ_full 0
Channel_0_dbus_congested 247710
DRAM_total_RQ_row_buffer_hit 4352
DRAM_total_RQ_row_buffer_miss 69984
DRAM_total_WQ_row_buffer_hit 5174
DRAM_total_WQ_row_buffer_miss 23369
DRAM_total_WQ_full 0
DRAM_total_dbus_congested 247710
DRAM_avg_congested_cycle 13.1164

======STLB miss causes ========
Core_0_STLB_miss_cause_breakdown
Core_0_STLB_cause_Demand_Data_miss 5763
Core_0_STLB_cause_Demand_Data_miss_rate 0.0259443
Core_0_STLB_cause_Demand_Instruction_miss 591
Core_0_STLB_cause_Demand_Instruction_miss_rate 0.0026606
Core_0_STLB_cause_L1D_Prefetch_miss 550
Core_0_STLB_cause_L1D_Prefetch_miss_rate 0.00247603
Core_0_STLB_cause_L1I_Prefetch_miss 0
Core_0_STLB_cause_L1I_Prefetch_miss_rate 0
Core_0_STLB_cause_Other_miss 0
Core_0_STLB_cause_Other_miss_rate 0
Core_0_STLB_Demand_miss 6354
Core_0_STLB_Demand_miss_rate 0.0286049
Core_0_STLB_L1D_Prefetch_miss 550
Core_0_STLB_L1D_Prefetch_miss_rate 0.00247603
Core_0_STLB_Other_miss 0
Core_0_STLB_Other_miss_rate 0
