[VMEM] WARNING: physical memory size is smaller than virtual memory size.

*** ChampSim Multicore Out-of-Order Simulator ***
Warmup Instructions: 20000000
Simulation Instructions: 50000000
Number of CPUs: 1
Page size: 4096
Core 0: /data0/tzh/champsim_traces/SPEC17/619.lbm_s-3766B.champsimtrace.xz
 L1D Berti prefetcher
Off-chip DRAM Size: 4 GiB Channels: 1 Width: 64-bit Data Rate: 3205 MT/s
Warmup halting CPU 0 at instruction 20000005 cycle 4273107 for remainder of phase
Warmup finished CPU 0 instructions: 20000005 cycles: 4273107 cumulative IPC: 4.68 (Simulation time: 00 hr 01 min 03 sec)
Warmup complete CPU 0 instructions: 20000005 cycles: 4273107 cumulative IPC: 4.68 (Simulation time: 00 hr 01 min 03 sec)
Simulation finished CPU 0 instructions: 50000002 cycles: 41568986 cumulative IPC: 1.203 (Simulation time: 00 hr 08 min 55 sec)
Simulation complete CPU 0 instructions: 50000002 cycles: 41568986 cumulative IPC: 1.203 (Simulation time: 00 hr 08 min 55 sec)

ChampSim completed all CPUs

=== Simulation ===
CPU 0 runs /data0/tzh/champsim_traces/SPEC17/619.lbm_s-3766B.champsimtrace.xz

Region of Interest Statistics

CPU 0 cumulative IPC: 1.203 instructions: 50000002 cycles: 41568986
CPU 0 Branch Prediction Accuracy: 99.76% MPKI: 0.02548 Average ROB Occupancy at Mispredict: 193
Branch type MPKI
BRANCH_DIRECT_JUMP: 0
BRANCH_INDIRECT: 0
BRANCH_CONDITIONAL: 0.02548
BRANCH_DIRECT_CALL: 0
BRANCH_INDIRECT_CALL: 0
BRANCH_RETURN: 0

cpu0->cpu0_STLB TOTAL        ACCESS:      31125 HIT:      14246 MISS:      16879 MSHR_MERGE:          0
cpu0->cpu0_STLB LOAD         ACCESS:      31125 HIT:      14246 MISS:      16879 MSHR_MERGE:          0
cpu0->cpu0_STLB RFO          ACCESS:          0 HIT:          0 MISS:          0 MSHR_MERGE:          0
cpu0->cpu0_STLB PREFETCH     ACCESS:          0 HIT:          0 MISS:          0 MSHR_MERGE:          0
cpu0->cpu0_STLB WRITE        ACCESS:          0 HIT:          0 MISS:          0 MSHR_MERGE:          0
cpu0->cpu0_STLB TRANSLATION  ACCESS:          0 HIT:          0 MISS:          0 MSHR_MERGE:          0
cpu0->cpu0_STLB PREFETCH REQUESTED:          0 ISSUED:          0 USEFUL:          0 USELESS:          0 LATE:          0
cpu0->cpu0_STLB AVERAGE MISS LATENCY: 311.8 cycles
cpu0->cpu0_L2C TOTAL        ACCESS:    4644881 HIT:    2802338 MISS:    1842543 MSHR_MERGE:     736500
cpu0->cpu0_L2C LOAD         ACCESS:      26369 HIT:      12782 MISS:      13587 MSHR_MERGE:       2862
cpu0->cpu0_L2C RFO          ACCESS:    1525149 HIT:     691218 MISS:     833931 MSHR_MERGE:          0
cpu0->cpu0_L2C PREFETCH     ACCESS:    1565639 HIT:     572750 MISS:     992889 MSHR_MERGE:     733638
cpu0->cpu0_L2C WRITE        ACCESS:    1525592 HIT:    1525588 MISS:          4 MSHR_MERGE:          0
cpu0->cpu0_L2C TRANSLATION  ACCESS:       2132 HIT:          0 MISS:       2132 MSHR_MERGE:          0
cpu0->cpu0_L2C PREFETCH REQUESTED:    1327366 ISSUED:    1321975 USEFUL:     187043 USELESS:      58765 LATE:       2862
cpu0->cpu0_L2C AVERAGE MISS LATENCY: 637.8 cycles
cpu0->cpu0_L1I TOTAL        ACCESS:    8595142 HIT:    8595142 MISS:          0 MSHR_MERGE:          0
cpu0->cpu0_L1I LOAD         ACCESS:    8595142 HIT:    8595142 MISS:          0 MSHR_MERGE:          0
cpu0->cpu0_L1I RFO          ACCESS:          0 HIT:          0 MISS:          0 MSHR_MERGE:          0
cpu0->cpu0_L1I PREFETCH     ACCESS:          0 HIT:          0 MISS:          0 MSHR_MERGE:          0
cpu0->cpu0_L1I WRITE        ACCESS:          0 HIT:          0 MISS:          0 MSHR_MERGE:          0
cpu0->cpu0_L1I TRANSLATION  ACCESS:          0 HIT:          0 MISS:          0 MSHR_MERGE:          0
cpu0->cpu0_L1I PREFETCH REQUESTED:          0 ISSUED:          0 USEFUL:          0 USELESS:          0 LATE:          0
cpu0->cpu0_L1I AVERAGE MISS LATENCY: - cycles
cpu0->cpu0_L1D TOTAL        ACCESS:    9713301 HIT:    7792944 MISS:    1920357 MSHR_MERGE:     122597
cpu0->cpu0_L1D LOAD         ACCESS:    2072735 HIT:    2017588 MISS:      55147 MSHR_MERGE:      28778
cpu0->cpu0_L1D RFO          ACCESS:          0 HIT:          0 MISS:          0 MSHR_MERGE:          0
cpu0->cpu0_L1D PREFETCH     ACCESS:     253120 HIT:       6100 MISS:     247020 MSHR_MERGE:       3367
cpu0->cpu0_L1D WRITE        ACCESS:    7353672 HIT:    5737614 MISS:    1616058 MSHR_MERGE:      90452
cpu0->cpu0_L1D TRANSLATION  ACCESS:      33774 HIT:      31642 MISS:       2132 MSHR_MERGE:          0
cpu0->cpu0_L1D PREFETCH REQUESTED:     255859 ISSUED:     253120 USEFUL:     243598 USELESS:         55 LATE:      16354
cpu0->cpu0_L1D AVERAGE MISS LATENCY: 358.7 cycles
cpu0->cpu0_ITLB TOTAL        ACCESS:    6128170 HIT:    6128170 MISS:          0 MSHR_MERGE:          0
cpu0->cpu0_ITLB LOAD         ACCESS:    6128170 HIT:    6128170 MISS:          0 MSHR_MERGE:          0
cpu0->cpu0_ITLB RFO          ACCESS:          0 HIT:          0 MISS:          0 MSHR_MERGE:          0
cpu0->cpu0_ITLB PREFETCH     ACCESS:          0 HIT:          0 MISS:          0 MSHR_MERGE:          0
cpu0->cpu0_ITLB WRITE        ACCESS:          0 HIT:          0 MISS:          0 MSHR_MERGE:          0
cpu0->cpu0_ITLB TRANSLATION  ACCESS:          0 HIT:          0 MISS:          0 MSHR_MERGE:          0
cpu0->cpu0_ITLB PREFETCH REQUESTED:          0 ISSUED:          0 USEFUL:          0 USELESS:          0 LATE:          0
cpu0->cpu0_ITLB AVERAGE MISS LATENCY: - cycles
cpu0->cpu0_DTLB TOTAL        ACCESS:    8934530 HIT:    8887157 MISS:      47373 MSHR_MERGE:      16248
cpu0->cpu0_DTLB LOAD         ACCESS:    8934530 HIT:    8887157 MISS:      47373 MSHR_MERGE:      16248
cpu0->cpu0_DTLB RFO          ACCESS:          0 HIT:          0 MISS:          0 MSHR_MERGE:          0
cpu0->cpu0_DTLB PREFETCH     ACCESS:          0 HIT:          0 MISS:          0 MSHR_MERGE:          0
cpu0->cpu0_DTLB WRITE        ACCESS:          0 HIT:          0 MISS:          0 MSHR_MERGE:          0
cpu0->cpu0_DTLB TRANSLATION  ACCESS:          0 HIT:          0 MISS:          0 MSHR_MERGE:          0
cpu0->cpu0_DTLB PREFETCH REQUESTED:          0 ISSUED:          0 USEFUL:          0 USELESS:          0 LATE:          0
cpu0->cpu0_DTLB AVERAGE MISS LATENCY: 174.7 cycles
cpu0->LLC TOTAL        ACCESS:    1939731 HIT:     758728 MISS:    1181003 MSHR_MERGE:          0
cpu0->LLC LOAD         ACCESS:      10725 HIT:          0 MISS:      10725 MSHR_MERGE:          0
cpu0->LLC RFO          ACCESS:     833931 HIT:      24055 MISS:     809876 MSHR_MERGE:          0
cpu0->LLC PREFETCH     ACCESS:     259251 HIT:          0 MISS:     259251 MSHR_MERGE:          0
cpu0->LLC WRITE        ACCESS:     833692 HIT:     734673 MISS:      99019 MSHR_MERGE:          0
cpu0->LLC TRANSLATION  ACCESS:       2132 HIT:          0 MISS:       2132 MSHR_MERGE:          0
cpu0->LLC PREFETCH REQUESTED:          0 ISSUED:          0 USEFUL:          0 USELESS:          0 LATE:          0
cpu0->LLC AVERAGE MISS LATENCY: 572.7 cycles

DRAM Statistics

Channel 0 RQ ROW_BUFFER_HIT:      90199
  ROW_BUFFER_MISS:     991768
  AVG DBUS CONGESTED CYCLE: 7.757
Channel 0 WQ ROW_BUFFER_HIT:     102835
  ROW_BUFFER_MISS:     707270
  FULL:          0
Channel 0 REFRESHES ISSUED:       3464

[ROI Statistics]
[System Configuration]
num_cpus 1
cpu_freq 4000
fetch_width 6
decode_width 6
dispatch_width 6
execute_width 6
lq_width 2
sq_width 2
retire_width 6
scheduler_size 160
branch_mispredict_penalty 1
rob_size 352
lq_size 240
sq_size 112
ifetch_buffer_size 64
decode_buffer_size 32
dispatch_buffer_size 32
register_file_size 288
decode_latency 1
dispatch_latency 1
schedule_latency 0
execute_latency 0
page_size 4096
block_size 64
core_0_itlb_set 16
core_0_itlb_way 4
core_0_itlb_rq_size 16
core_0_itlb_wq_size 16
core_0_itlb_pq_size 0
core_0_itlb_mshr_size 8
core_0_itlb_hit_latency 1
core_0_itlb_fill_latency 1
core_0_itlb_max_tag_check 2
core_0_itlb_max_fill 2
core_0_dtlb_set 16
core_0_dtlb_way 4
core_0_dtlb_rq_size 16
core_0_dtlb_wq_size 16
core_0_dtlb_pq_size 0
core_0_dtlb_mshr_size 8
core_0_dtlb_hit_latency 1
core_0_dtlb_fill_latency 1
core_0_dtlb_max_tag_check 2
core_0_dtlb_max_fill 2
core_0_stlb_set 128
core_0_stlb_way 12
core_0_stlb_rq_size 32
core_0_stlb_wq_size 32
core_0_stlb_pq_size 0
core_0_stlb_mshr_size 16
core_0_stlb_hit_latency 4
core_0_stlb_fill_latency 4
core_0_stlb_max_tag_check 1
core_0_stlb_max_fill 1
core_0_l1i_set 64
core_0_l1i_way 8
core_0_l1i_rq_size 64
core_0_l1i_wq_size 64
core_0_l1i_pq_size 32
core_0_l1i_mshr_size 8
core_0_l1i_hit_latency 2
core_0_l1i_fill_latency 2
core_0_l1i_max_tag_check 2
core_0_l1i_max_fill 2
core_0_l1d_set 64
core_0_l1d_way 12
core_0_l1d_rq_size 64
core_0_l1d_wq_size 64
core_0_l1d_pq_size 8
core_0_l1d_mshr_size 16
core_0_l1d_hit_latency 2
core_0_l1d_fill_latency 3
core_0_l1d_max_tag_check 2
core_0_l1d_max_fill 2
core_0_l2c_set 1024
core_0_l2c_way 8
core_0_l2c_rq_size 32
core_0_l2c_wq_size 32
core_0_l2c_pq_size 16
core_0_l2c_mshr_size 32
core_0_l2c_hit_latency 5
core_0_l2c_fill_latency 5
core_0_l2c_max_tag_check 1
core_0_l2c_max_fill 1
llc_set 2048
llc_way 16
llc_rq_size 32
llc_wq_size 32
llc_pq_size 32
llc_mshr_size 64
llc_hit_latency 10
llc_fill_latency 10
llc_max_tag_check 1
llc_max_fill 1
dram_channels 1
dram_ranks 1
dram_bankgroups 8
dram_banks 4
dram_rows 16384
dram_columns 1024
dram_channel_width 8
dram_rq_size 64
dram_wq_size 64
dram_size 4294967296
core_0_itlb_prefetcher no
core_0_dtlb_prefetcher no
core_0_stlb_prefetcher no
core_0_l1i_prefetcher next_line
core_0_l1d_prefetcher berti
core_0_l2c_prefetcher pythia
llc_prefetcher no
llc_replacement drrip

Core_0_instructions 50000002
Core_0_cycles 41568986
Core_0_IPC 1.20282
Core_0_branch_prediction_accuracy 99.762
Core_0_branch_MPKI 0.02548
Core_0_average_ROB_occupancy_at_mispredict 193.042

Core_0_ITLB_total_access 6128170
Core_0_ITLB_total_hit 6128170
Core_0_ITLB_total_miss 0
Core_0_ITLB_total_MPKI 0
Core_0_ITLB_total_miss_rate 0
Core_0_ITLB_demand_access 6128170
Core_0_ITLB_demand_hit 6128170
Core_0_ITLB_demand_miss 0
Core_0_ITLB_demand_MPKI 0
Core_0_ITLB_demand_miss_rate 0
Core_0_ITLB_load_access 6128170
Core_0_ITLB_load_hit 6128170
Core_0_ITLB_load_miss 0
Core_0_ITLB_load_MPKI 0
Core_0_ITLB_load_miss_rate 0
Core_0_ITLB_rfo_access 0
Core_0_ITLB_rfo_hit 0
Core_0_ITLB_rfo_miss 0
Core_0_ITLB_rfo_MPKI 0
Core_0_ITLB_rfo_miss_rate 0
Core_0_ITLB_prefetch_access 0
Core_0_ITLB_prefetch_hit 0
Core_0_ITLB_prefetch_miss 0
Core_0_ITLB_prefetch_MPKI 0
Core_0_ITLB_prefetch_miss_rate 0
Core_0_ITLB_writeback_access 0
Core_0_ITLB_writeback_hit 0
Core_0_ITLB_writeback_miss 0
Core_0_ITLB_writeback_MPKI 0
Core_0_ITLB_writeback_miss_rate 0
Core_0_ITLB_prefetch_requested 0
Core_0_ITLB_prefetch_issued 0
Core_0_ITLB_prefetch_useful 0
Core_0_ITLB_prefetch_useless 0
Core_0_ITLB_prefetch_late 0
Core_0_ITLB_prefetch_accuracy 0
Core_0_ITLB_prefetch_coverage 0

Core_0_DTLB_total_access 8934530
Core_0_DTLB_total_hit 8887157
Core_0_DTLB_total_miss 47373
Core_0_DTLB_total_MPKI 0.94746
Core_0_DTLB_total_miss_rate 0.00530224
Core_0_DTLB_demand_access 8934530
Core_0_DTLB_demand_hit 8887157
Core_0_DTLB_demand_miss 47373
Core_0_DTLB_demand_MPKI 0.94746
Core_0_DTLB_demand_miss_rate 0.00530224
Core_0_DTLB_load_access 8934530
Core_0_DTLB_load_hit 8887157
Core_0_DTLB_load_miss 47373
Core_0_DTLB_load_MPKI 0.94746
Core_0_DTLB_load_miss_rate 0.00530224
Core_0_DTLB_rfo_access 0
Core_0_DTLB_rfo_hit 0
Core_0_DTLB_rfo_miss 0
Core_0_DTLB_rfo_MPKI 0
Core_0_DTLB_rfo_miss_rate 0
Core_0_DTLB_prefetch_access 0
Core_0_DTLB_prefetch_hit 0
Core_0_DTLB_prefetch_miss 0
Core_0_DTLB_prefetch_MPKI 0
Core_0_DTLB_prefetch_miss_rate 0
Core_0_DTLB_writeback_access 0
Core_0_DTLB_writeback_hit 0
Core_0_DTLB_writeback_miss 0
Core_0_DTLB_writeback_MPKI 0
Core_0_DTLB_writeback_miss_rate 0
Core_0_DTLB_prefetch_requested 0
Core_0_DTLB_prefetch_issued 0
Core_0_DTLB_prefetch_useful 0
Core_0_DTLB_prefetch_useless 0
Core_0_DTLB_prefetch_late 0
Core_0_DTLB_prefetch_accuracy 0
Core_0_DTLB_prefetch_coverage 0

Core_0_STLB_total_access 31125
Core_0_STLB_total_hit 14246
Core_0_STLB_total_miss 16879
Core_0_STLB_total_MPKI 0.33758
Core_0_STLB_total_miss_rate 0.542297
Core_0_STLB_demand_access 31125
Core_0_STLB_demand_hit 14246
Core_0_STLB_demand_miss 16879
Core_0_STLB_demand_MPKI 0.33758
Core_0_STLB_demand_miss_rate 0.542297
Core_0_STLB_load_access 31125
Core_0_STLB_load_hit 14246
Core_0_STLB_load_miss 16879
Core_0_STLB_load_MPKI 0.33758
Core_0_STLB_load_miss_rate 0.542297
Core_0_STLB_rfo_access 0
Core_0_STLB_rfo_hit 0
Core_0_STLB_rfo_miss 0
Core_0_STLB_rfo_MPKI 0
Core_0_STLB_rfo_miss_rate 0
Core_0_STLB_prefetch_access 0
Core_0_STLB_prefetch_hit 0
Core_0_STLB_prefetch_miss 0
Core_0_STLB_prefetch_MPKI 0
Core_0_STLB_prefetch_miss_rate 0
Core_0_STLB_writeback_access 0
Core_0_STLB_writeback_hit 0
Core_0_STLB_writeback_miss 0
Core_0_STLB_writeback_MPKI 0
Core_0_STLB_writeback_miss_rate 0
Core_0_STLB_prefetch_requested 0
Core_0_STLB_prefetch_issued 0
Core_0_STLB_prefetch_useful 0
Core_0_STLB_prefetch_useless 0
Core_0_STLB_prefetch_late 0
Core_0_STLB_prefetch_accuracy 0
Core_0_STLB_prefetch_coverage 0

Core_0_L1I_total_access 8595142
Core_0_L1I_total_hit 8595142
Core_0_L1I_total_miss 0
Core_0_L1I_total_MPKI 0
Core_0_L1I_total_miss_rate 0
Core_0_L1I_demand_access 8595142
Core_0_L1I_demand_hit 8595142
Core_0_L1I_demand_miss 0
Core_0_L1I_demand_MPKI 0
Core_0_L1I_demand_miss_rate 0
Core_0_L1I_load_access 8595142
Core_0_L1I_load_hit 8595142
Core_0_L1I_load_miss 0
Core_0_L1I_load_MPKI 0
Core_0_L1I_load_miss_rate 0
Core_0_L1I_rfo_access 0
Core_0_L1I_rfo_hit 0
Core_0_L1I_rfo_miss 0
Core_0_L1I_rfo_MPKI 0
Core_0_L1I_rfo_miss_rate 0
Core_0_L1I_prefetch_access 0
Core_0_L1I_prefetch_hit 0
Core_0_L1I_prefetch_miss 0
Core_0_L1I_prefetch_MPKI 0
Core_0_L1I_prefetch_miss_rate 0
Core_0_L1I_writeback_access 0
Core_0_L1I_writeback_hit 0
Core_0_L1I_writeback_miss 0
Core_0_L1I_writeback_MPKI 0
Core_0_L1I_writeback_miss_rate 0
Core_0_L1I_prefetch_requested 0
Core_0_L1I_prefetch_issued 0
Core_0_L1I_prefetch_useful 0
Core_0_L1I_prefetch_useless 0
Core_0_L1I_prefetch_late 0
Core_0_L1I_prefetch_accuracy 0
Core_0_L1I_prefetch_coverage 0

Core_0_L1D_total_access 9679527
Core_0_L1D_total_hit 7761302
Core_0_L1D_total_miss 1918225
Core_0_L1D_total_MPKI 38.3645
Core_0_L1D_total_miss_rate 0.198173
Core_0_L1D_demand_access 2072735
Core_0_L1D_demand_hit 2017588
Core_0_L1D_demand_miss 55147
Core_0_L1D_demand_MPKI 1.10294
Core_0_L1D_demand_miss_rate 0.0266059
Core_0_L1D_load_access 2072735
Core_0_L1D_load_hit 2017588
Core_0_L1D_load_miss 55147
Core_0_L1D_load_MPKI 1.10294
Core_0_L1D_load_miss_rate 0.0266059
Core_0_L1D_rfo_access 0
Core_0_L1D_rfo_hit 0
Core_0_L1D_rfo_miss 0
Core_0_L1D_rfo_MPKI 0
Core_0_L1D_rfo_miss_rate 0
Core_0_L1D_prefetch_access 253120
Core_0_L1D_prefetch_hit 6100
Core_0_L1D_prefetch_miss 247020
Core_0_L1D_prefetch_MPKI 4.9404
Core_0_L1D_prefetch_miss_rate 0.975901
Core_0_L1D_writeback_access 7353672
Core_0_L1D_writeback_hit 5737614
Core_0_L1D_writeback_miss 1616058
Core_0_L1D_writeback_MPKI 32.3212
Core_0_L1D_writeback_miss_rate 0.219762
Core_0_L1D_prefetch_requested 255859
Core_0_L1D_prefetch_issued 253120
Core_0_L1D_prefetch_useful 243598
Core_0_L1D_prefetch_useless 55
Core_0_L1D_prefetch_late 16354
Core_0_L1D_prefetch_accuracy 0.962381
Core_0_L1D_prefetch_coverage 0.815404

Core_0_L2C_total_access 4642749
Core_0_L2C_total_hit 2802338
Core_0_L2C_total_miss 1840411
Core_0_L2C_total_MPKI 36.8082
Core_0_L2C_total_miss_rate 0.396405
Core_0_L2C_demand_access 1551518
Core_0_L2C_demand_hit 704000
Core_0_L2C_demand_miss 847518
Core_0_L2C_demand_MPKI 16.9504
Core_0_L2C_demand_miss_rate 0.546251
Core_0_L2C_load_access 26369
Core_0_L2C_load_hit 12782
Core_0_L2C_load_miss 13587
Core_0_L2C_load_MPKI 0.27174
Core_0_L2C_load_miss_rate 0.515264
Core_0_L2C_rfo_access 1525149
Core_0_L2C_rfo_hit 691218
Core_0_L2C_rfo_miss 833931
Core_0_L2C_rfo_MPKI 16.6786
Core_0_L2C_rfo_miss_rate 0.546787
Core_0_L2C_prefetch_access 1565639
Core_0_L2C_prefetch_hit 572750
Core_0_L2C_prefetch_miss 992889
Core_0_L2C_prefetch_MPKI 19.8578
Core_0_L2C_prefetch_miss_rate 0.634175
Core_0_L2C_writeback_access 1525592
Core_0_L2C_writeback_hit 1525588
Core_0_L2C_writeback_miss 4
Core_0_L2C_writeback_MPKI 8e-05
Core_0_L2C_writeback_miss_rate 2.62193e-06
Core_0_L2C_prefetch_requested 1327366
Core_0_L2C_prefetch_issued 1321975
Core_0_L2C_prefetch_useful 187043
Core_0_L2C_prefetch_useless 58765
Core_0_L2C_prefetch_late 2862
Core_0_L2C_prefetch_accuracy 0.141488
Core_0_L2C_prefetch_coverage 0.180795

Core_0_LLC_total_access 1937599
Core_0_LLC_total_hit 758728
Core_0_LLC_total_miss 1178871
Core_0_LLC_total_MPKI 23.5774
Core_0_LLC_total_miss_rate 0.608418
Core_0_LLC_demand_access 844656
Core_0_LLC_demand_hit 24055
Core_0_LLC_demand_miss 820601
Core_0_LLC_demand_MPKI 16.412
Core_0_LLC_demand_miss_rate 0.971521
Core_0_LLC_load_access 10725
Core_0_LLC_load_hit 0
Core_0_LLC_load_miss 10725
Core_0_LLC_load_MPKI 0.2145
Core_0_LLC_load_miss_rate 1
Core_0_LLC_rfo_access 833931
Core_0_LLC_rfo_hit 24055
Core_0_LLC_rfo_miss 809876
Core_0_LLC_rfo_MPKI 16.1975
Core_0_LLC_rfo_miss_rate 0.971155
Core_0_LLC_prefetch_access 259251
Core_0_LLC_prefetch_hit 0
Core_0_LLC_prefetch_miss 259251
Core_0_LLC_prefetch_MPKI 5.18502
Core_0_LLC_prefetch_miss_rate 1
Core_0_LLC_writeback_access 833692
Core_0_LLC_writeback_hit 734673
Core_0_LLC_writeback_miss 99019
Core_0_LLC_writeback_MPKI 1.98038
Core_0_LLC_writeback_miss_rate 0.118772
Core_0_LLC_prefetch_requested 0
Core_0_LLC_prefetch_issued 0
Core_0_LLC_prefetch_useful 0
Core_0_LLC_prefetch_useless 0
Core_0_LLC_prefetch_late 0
Core_0_LLC_prefetch_accuracy 0
Core_0_LLC_prefetch_coverage 0

[DRAM Statistics]
Channel_0_RQ_row_buffer_hit 90199
Channel_0_RQ_row_buffer_miss 991768
Channel_0_WQ_row_buffer_hit 102835
Channel_0_WQ_row_buffer_miss 707270
Channel_0_WQ_full 0
Channel_0_dbus_congested 7622516
DRAM_total_RQ_row_buffer_hit 90199
DRAM_total_RQ_row_buffer_miss 991768
DRAM_total_WQ_row_buffer_hit 102835
DRAM_total_WQ_row_buffer_miss 707270
DRAM_total_WQ_full 0
DRAM_total_dbus_congested 7622516
DRAM_avg_congested_cycle 7.75681

======STLB miss causes ========
Core_0_STLB_miss_cause_breakdown
Core_0_STLB_cause_Demand_Data_miss 16879
Core_0_STLB_cause_Demand_Data_miss_rate 0.542297
Core_0_STLB_cause_Demand_Instruction_miss 0
Core_0_STLB_cause_Demand_Instruction_miss_rate 0
Core_0_STLB_cause_L1D_Prefetch_miss 0
Core_0_STLB_cause_L1D_Prefetch_miss_rate 0
Core_0_STLB_cause_L1I_Prefetch_miss 0
Core_0_STLB_cause_L1I_Prefetch_miss_rate 0
Core_0_STLB_cause_Other_miss 0
Core_0_STLB_cause_Other_miss_rate 0
Core_0_STLB_Demand_miss 16879
Core_0_STLB_Demand_miss_rate 0.542297
Core_0_STLB_L1D_Prefetch_miss 0
Core_0_STLB_L1D_Prefetch_miss_rate 0
Core_0_STLB_Other_miss 0
Core_0_STLB_Other_miss_rate 0
