[VMEM] WARNING: physical memory size is smaller than virtual memory size.

*** ChampSim Multicore Out-of-Order Simulator ***
Warmup Instructions: 20000000
Simulation Instructions: 50000000
Number of CPUs: 1
Page size: 4096
Core 0: /data0/tzh/champsim_traces/SPEC06/445.gobmk-2B.champsimtrace.xz
Off-chip DRAM Size: 4 GiB Channels: 1 Width: 64-bit Data Rate: 3205 MT/s
Warmup halting CPU 0 at instruction 20000003 cycle 4747442 for remainder of phase
Warmup finished CPU 0 instructions: 20000003 cycles: 4747442 cumulative IPC: 4.213 (Simulation time: 00 hr 00 min 58 sec)
Warmup complete CPU 0 instructions: 20000003 cycles: 4747442 cumulative IPC: 4.213 (Simulation time: 00 hr 00 min 58 sec)
Simulation finished CPU 0 instructions: 50000000 cycles: 41648627 cumulative IPC: 1.201 (Simulation time: 00 hr 04 min 58 sec)
Simulation complete CPU 0 instructions: 50000000 cycles: 41648627 cumulative IPC: 1.201 (Simulation time: 00 hr 04 min 58 sec)

ChampSim completed all CPUs

=== Simulation ===
CPU 0 runs /data0/tzh/champsim_traces/SPEC06/445.gobmk-2B.champsimtrace.xz

Region of Interest Statistics

CPU 0 cumulative IPC: 1.201 instructions: 50000000 cycles: 41648627
CPU 0 Branch Prediction Accuracy: 87.19% MPKI: 25.05 Average ROB Occupancy at Mispredict: 19.5
Branch type MPKI
BRANCH_DIRECT_JUMP: 0.04924
BRANCH_INDIRECT: 0.00026
BRANCH_CONDITIONAL: 24.94
BRANCH_DIRECT_CALL: 0.00604
BRANCH_INDIRECT_CALL: 0.0468
BRANCH_RETURN: 0.00698

cpu0->cpu0_STLB TOTAL        ACCESS:      64206 HIT:      62214 MISS:       1992 MSHR_MERGE:          0
cpu0->cpu0_STLB LOAD         ACCESS:      64206 HIT:      62214 MISS:       1992 MSHR_MERGE:          0
cpu0->cpu0_STLB RFO          ACCESS:          0 HIT:          0 MISS:          0 MSHR_MERGE:          0
cpu0->cpu0_STLB PREFETCH     ACCESS:          0 HIT:          0 MISS:          0 MSHR_MERGE:          0
cpu0->cpu0_STLB WRITE        ACCESS:          0 HIT:          0 MISS:          0 MSHR_MERGE:          0
cpu0->cpu0_STLB TRANSLATION  ACCESS:          0 HIT:          0 MISS:          0 MSHR_MERGE:          0
cpu0->cpu0_STLB PREFETCH REQUESTED:          0 ISSUED:          0 USEFUL:          0 USELESS:          0 LATE:          0
cpu0->cpu0_STLB AVERAGE MISS LATENCY: 120.7 cycles
cpu0->cpu0_L2C TOTAL        ACCESS:     451363 HIT:     365719 MISS:      85644 MSHR_MERGE:          0
cpu0->cpu0_L2C LOAD         ACCESS:     233362 HIT:     166910 MISS:      66452 MSHR_MERGE:          0
cpu0->cpu0_L2C RFO          ACCESS:      89033 HIT:      71086 MISS:      17947 MSHR_MERGE:          0
cpu0->cpu0_L2C PREFETCH     ACCESS:          0 HIT:          0 MISS:          0 MSHR_MERGE:          0
cpu0->cpu0_L2C WRITE        ACCESS:     127162 HIT:     127152 MISS:         10 MSHR_MERGE:          0
cpu0->cpu0_L2C TRANSLATION  ACCESS:       1806 HIT:        571 MISS:       1235 MSHR_MERGE:          0
cpu0->cpu0_L2C PREFETCH REQUESTED:          0 ISSUED:          0 USEFUL:          0 USELESS:          0 LATE:          0
cpu0->cpu0_L2C AVERAGE MISS LATENCY: 37.49 cycles
cpu0->cpu0_L1I TOTAL        ACCESS:     457487 HIT:     417104 MISS:      40383 MSHR_MERGE:       9820
cpu0->cpu0_L1I LOAD         ACCESS:     457487 HIT:     417104 MISS:      40383 MSHR_MERGE:       9820
cpu0->cpu0_L1I RFO          ACCESS:          0 HIT:          0 MISS:          0 MSHR_MERGE:          0
cpu0->cpu0_L1I PREFETCH     ACCESS:          0 HIT:          0 MISS:          0 MSHR_MERGE:          0
cpu0->cpu0_L1I WRITE        ACCESS:          0 HIT:          0 MISS:          0 MSHR_MERGE:          0
cpu0->cpu0_L1I TRANSLATION  ACCESS:          0 HIT:          0 MISS:          0 MSHR_MERGE:          0
cpu0->cpu0_L1I PREFETCH REQUESTED:          0 ISSUED:          0 USEFUL:          0 USELESS:          0 LATE:          0
cpu0->cpu0_L1I AVERAGE MISS LATENCY: 13.83 cycles
cpu0->cpu0_L1D TOTAL        ACCESS:   14493137 HIT:   13877745 MISS:     615392 MSHR_MERGE:     321753
cpu0->cpu0_L1D LOAD         ACCESS:    9311812 HIT:    9089626 MISS:     222186 MSHR_MERGE:      19387
cpu0->cpu0_L1D RFO          ACCESS:          0 HIT:          0 MISS:          0 MSHR_MERGE:          0
cpu0->cpu0_L1D PREFETCH     ACCESS:          0 HIT:          0 MISS:          0 MSHR_MERGE:          0
cpu0->cpu0_L1D WRITE        ACCESS:    5177343 HIT:    4785945 MISS:     391398 MSHR_MERGE:     302364
cpu0->cpu0_L1D TRANSLATION  ACCESS:       3982 HIT:       2174 MISS:       1808 MSHR_MERGE:          2
cpu0->cpu0_L1D PREFETCH REQUESTED:          0 ISSUED:          0 USEFUL:          0 USELESS:          0 LATE:          0
cpu0->cpu0_L1D AVERAGE MISS LATENCY: 18.74 cycles
cpu0->cpu0_ITLB TOTAL        ACCESS:     415772 HIT:     415070 MISS:        702 MSHR_MERGE:        398
cpu0->cpu0_ITLB LOAD         ACCESS:     415772 HIT:     415070 MISS:        702 MSHR_MERGE:        398
cpu0->cpu0_ITLB RFO          ACCESS:          0 HIT:          0 MISS:          0 MSHR_MERGE:          0
cpu0->cpu0_ITLB PREFETCH     ACCESS:          0 HIT:          0 MISS:          0 MSHR_MERGE:          0
cpu0->cpu0_ITLB WRITE        ACCESS:          0 HIT:          0 MISS:          0 MSHR_MERGE:          0
cpu0->cpu0_ITLB TRANSLATION  ACCESS:          0 HIT:          0 MISS:          0 MSHR_MERGE:          0
cpu0->cpu0_ITLB PREFETCH REQUESTED:          0 ISSUED:          0 USEFUL:          0 USELESS:          0 LATE:          0
cpu0->cpu0_ITLB AVERAGE MISS LATENCY: 10.25 cycles
cpu0->cpu0_DTLB TOTAL        ACCESS:   13945188 HIT:   13855546 MISS:      89642 MSHR_MERGE:      25740
cpu0->cpu0_DTLB LOAD         ACCESS:   13945188 HIT:   13855546 MISS:      89642 MSHR_MERGE:      25740
cpu0->cpu0_DTLB RFO          ACCESS:          0 HIT:          0 MISS:          0 MSHR_MERGE:          0
cpu0->cpu0_DTLB PREFETCH     ACCESS:          0 HIT:          0 MISS:          0 MSHR_MERGE:          0
cpu0->cpu0_DTLB WRITE        ACCESS:          0 HIT:          0 MISS:          0 MSHR_MERGE:          0
cpu0->cpu0_DTLB TRANSLATION  ACCESS:          0 HIT:          0 MISS:          0 MSHR_MERGE:          0
cpu0->cpu0_DTLB PREFETCH REQUESTED:          0 ISSUED:          0 USEFUL:          0 USELESS:          0 LATE:          0
cpu0->cpu0_DTLB AVERAGE MISS LATENCY: 8.769 cycles
cpu0->LLC TOTAL        ACCESS:     124892 HIT:     111999 MISS:      12893 MSHR_MERGE:          0
cpu0->LLC LOAD         ACCESS:      66452 HIT:      56085 MISS:      10367 MSHR_MERGE:          0
cpu0->LLC RFO          ACCESS:      17947 HIT:      16325 MISS:       1622 MSHR_MERGE:          0
cpu0->LLC PREFETCH     ACCESS:          0 HIT:          0 MISS:          0 MSHR_MERGE:          0
cpu0->LLC WRITE        ACCESS:      39258 HIT:      38382 MISS:        876 MSHR_MERGE:          0
cpu0->LLC TRANSLATION  ACCESS:       1235 HIT:       1207 MISS:         28 MSHR_MERGE:          0
cpu0->LLC PREFETCH REQUESTED:          0 ISSUED:          0 USEFUL:          0 USELESS:          0 LATE:          0
cpu0->LLC AVERAGE MISS LATENCY: 148.9 cycles

DRAM Statistics

Channel 0 RQ ROW_BUFFER_HIT:        131
  ROW_BUFFER_MISS:      11886
  AVG DBUS CONGESTED CYCLE: 13.78
Channel 0 WQ ROW_BUFFER_HIT:        229
  ROW_BUFFER_MISS:       1431
  FULL:          0
Channel 0 REFRESHES ISSUED:       3471

[ROI Statistics]
[System Configuration]
num_cpus 1
cpu_freq 4000
fetch_width 6
decode_width 6
dispatch_width 6
execute_width 6
lq_width 2
sq_width 2
retire_width 6
scheduler_size 160
branch_mispredict_penalty 1
rob_size 352
lq_size 240
sq_size 112
ifetch_buffer_size 64
decode_buffer_size 32
dispatch_buffer_size 32
register_file_size 288
decode_latency 1
dispatch_latency 1
schedule_latency 0
execute_latency 0
page_size 4096
block_size 64
core_0_itlb_set 16
core_0_itlb_way 4
core_0_itlb_rq_size 16
core_0_itlb_wq_size 16
core_0_itlb_pq_size 0
core_0_itlb_mshr_size 8
core_0_itlb_hit_latency 1
core_0_itlb_fill_latency 1
core_0_itlb_max_tag_check 2
core_0_itlb_max_fill 2
core_0_dtlb_set 16
core_0_dtlb_way 4
core_0_dtlb_rq_size 16
core_0_dtlb_wq_size 16
core_0_dtlb_pq_size 0
core_0_dtlb_mshr_size 8
core_0_dtlb_hit_latency 1
core_0_dtlb_fill_latency 1
core_0_dtlb_max_tag_check 2
core_0_dtlb_max_fill 2
core_0_stlb_set 128
core_0_stlb_way 12
core_0_stlb_rq_size 32
core_0_stlb_wq_size 32
core_0_stlb_pq_size 0
core_0_stlb_mshr_size 16
core_0_stlb_hit_latency 4
core_0_stlb_fill_latency 4
core_0_stlb_max_tag_check 1
core_0_stlb_max_fill 1
core_0_l1i_set 64
core_0_l1i_way 8
core_0_l1i_rq_size 64
core_0_l1i_wq_size 64
core_0_l1i_pq_size 32
core_0_l1i_mshr_size 8
core_0_l1i_hit_latency 2
core_0_l1i_fill_latency 2
core_0_l1i_max_tag_check 2
core_0_l1i_max_fill 2
core_0_l1d_set 64
core_0_l1d_way 12
core_0_l1d_rq_size 64
core_0_l1d_wq_size 64
core_0_l1d_pq_size 8
core_0_l1d_mshr_size 16
core_0_l1d_hit_latency 2
core_0_l1d_fill_latency 3
core_0_l1d_max_tag_check 2
core_0_l1d_max_fill 2
core_0_l2c_set 1024
core_0_l2c_way 8
core_0_l2c_rq_size 32
core_0_l2c_wq_size 32
core_0_l2c_pq_size 16
core_0_l2c_mshr_size 32
core_0_l2c_hit_latency 5
core_0_l2c_fill_latency 5
core_0_l2c_max_tag_check 1
core_0_l2c_max_fill 1
llc_set 2048
llc_way 16
llc_rq_size 32
llc_wq_size 32
llc_pq_size 32
llc_mshr_size 64
llc_hit_latency 10
llc_fill_latency 10
llc_max_tag_check 1
llc_max_fill 1
dram_channels 1
dram_ranks 1
dram_bankgroups 8
dram_banks 4
dram_rows 16384
dram_columns 1024
dram_channel_width 8
dram_rq_size 64
dram_wq_size 64
dram_size 4294967296
core_0_itlb_prefetcher no
core_0_dtlb_prefetcher no
core_0_stlb_prefetcher no
core_0_l1i_prefetcher no
core_0_l1d_prefetcher no
core_0_l2c_prefetcher no
llc_prefetcher no
llc_replacement drrip

Core_0_instructions 50000000
Core_0_cycles 41648627
Core_0_IPC 1.20052
Core_0_branch_prediction_accuracy 87.193
Core_0_branch_MPKI 25.0526
Core_0_average_ROB_occupancy_at_mispredict 19.5004

Core_0_ITLB_total_access 415772
Core_0_ITLB_total_hit 415070
Core_0_ITLB_total_miss 702
Core_0_ITLB_total_MPKI 0.01404
Core_0_ITLB_total_miss_rate 0.00168843
Core_0_ITLB_demand_access 415772
Core_0_ITLB_demand_hit 415070
Core_0_ITLB_demand_miss 702
Core_0_ITLB_demand_MPKI 0.01404
Core_0_ITLB_demand_miss_rate 0.00168843
Core_0_ITLB_load_access 415772
Core_0_ITLB_load_hit 415070
Core_0_ITLB_load_miss 702
Core_0_ITLB_load_MPKI 0.01404
Core_0_ITLB_load_miss_rate 0.00168843
Core_0_ITLB_rfo_access 0
Core_0_ITLB_rfo_hit 0
Core_0_ITLB_rfo_miss 0
Core_0_ITLB_rfo_MPKI 0
Core_0_ITLB_rfo_miss_rate 0
Core_0_ITLB_prefetch_access 0
Core_0_ITLB_prefetch_hit 0
Core_0_ITLB_prefetch_miss 0
Core_0_ITLB_prefetch_MPKI 0
Core_0_ITLB_prefetch_miss_rate 0
Core_0_ITLB_writeback_access 0
Core_0_ITLB_writeback_hit 0
Core_0_ITLB_writeback_miss 0
Core_0_ITLB_writeback_MPKI 0
Core_0_ITLB_writeback_miss_rate 0
Core_0_ITLB_prefetch_requested 0
Core_0_ITLB_prefetch_issued 0
Core_0_ITLB_prefetch_useful 0
Core_0_ITLB_prefetch_useless 0
Core_0_ITLB_prefetch_late 0
Core_0_ITLB_prefetch_accuracy 0
Core_0_ITLB_prefetch_coverage 0

Core_0_DTLB_total_access 13945188
Core_0_DTLB_total_hit 13855546
Core_0_DTLB_total_miss 89642
Core_0_DTLB_total_MPKI 1.79284
Core_0_DTLB_total_miss_rate 0.00642817
Core_0_DTLB_demand_access 13945188
Core_0_DTLB_demand_hit 13855546
Core_0_DTLB_demand_miss 89642
Core_0_DTLB_demand_MPKI 1.79284
Core_0_DTLB_demand_miss_rate 0.00642817
Core_0_DTLB_load_access 13945188
Core_0_DTLB_load_hit 13855546
Core_0_DTLB_load_miss 89642
Core_0_DTLB_load_MPKI 1.79284
Core_0_DTLB_load_miss_rate 0.00642817
Core_0_DTLB_rfo_access 0
Core_0_DTLB_rfo_hit 0
Core_0_DTLB_rfo_miss 0
Core_0_DTLB_rfo_MPKI 0
Core_0_DTLB_rfo_miss_rate 0
Core_0_DTLB_prefetch_access 0
Core_0_DTLB_prefetch_hit 0
Core_0_DTLB_prefetch_miss 0
Core_0_DTLB_prefetch_MPKI 0
Core_0_DTLB_prefetch_miss_rate 0
Core_0_DTLB_writeback_access 0
Core_0_DTLB_writeback_hit 0
Core_0_DTLB_writeback_miss 0
Core_0_DTLB_writeback_MPKI 0
Core_0_DTLB_writeback_miss_rate 0
Core_0_DTLB_prefetch_requested 0
Core_0_DTLB_prefetch_issued 0
Core_0_DTLB_prefetch_useful 0
Core_0_DTLB_prefetch_useless 0
Core_0_DTLB_prefetch_late 0
Core_0_DTLB_prefetch_accuracy 0
Core_0_DTLB_prefetch_coverage 0

Core_0_STLB_total_access 64206
Core_0_STLB_total_hit 62214
Core_0_STLB_total_miss 1992
Core_0_STLB_total_MPKI 0.03984
Core_0_STLB_total_miss_rate 0.0310251
Core_0_STLB_demand_access 64206
Core_0_STLB_demand_hit 62214
Core_0_STLB_demand_miss 1992
Core_0_STLB_demand_MPKI 0.03984
Core_0_STLB_demand_miss_rate 0.0310251
Core_0_STLB_load_access 64206
Core_0_STLB_load_hit 62214
Core_0_STLB_load_miss 1992
Core_0_STLB_load_MPKI 0.03984
Core_0_STLB_load_miss_rate 0.0310251
Core_0_STLB_rfo_access 0
Core_0_STLB_rfo_hit 0
Core_0_STLB_rfo_miss 0
Core_0_STLB_rfo_MPKI 0
Core_0_STLB_rfo_miss_rate 0
Core_0_STLB_prefetch_access 0
Core_0_STLB_prefetch_hit 0
Core_0_STLB_prefetch_miss 0
Core_0_STLB_prefetch_MPKI 0
Core_0_STLB_prefetch_miss_rate 0
Core_0_STLB_writeback_access 0
Core_0_STLB_writeback_hit 0
Core_0_STLB_writeback_miss 0
Core_0_STLB_writeback_MPKI 0
Core_0_STLB_writeback_miss_rate 0
Core_0_STLB_prefetch_requested 0
Core_0_STLB_prefetch_issued 0
Core_0_STLB_prefetch_useful 0
Core_0_STLB_prefetch_useless 0
Core_0_STLB_prefetch_late 0
Core_0_STLB_prefetch_accuracy 0
Core_0_STLB_prefetch_coverage 0

Core_0_L1I_total_access 457487
Core_0_L1I_total_hit 417104
Core_0_L1I_total_miss 40383
Core_0_L1I_total_MPKI 0.80766
Core_0_L1I_total_miss_rate 0.0882714
Core_0_L1I_demand_access 457487
Core_0_L1I_demand_hit 417104
Core_0_L1I_demand_miss 40383
Core_0_L1I_demand_MPKI 0.80766
Core_0_L1I_demand_miss_rate 0.0882714
Core_0_L1I_load_access 457487
Core_0_L1I_load_hit 417104
Core_0_L1I_load_miss 40383
Core_0_L1I_load_MPKI 0.80766
Core_0_L1I_load_miss_rate 0.0882714
Core_0_L1I_rfo_access 0
Core_0_L1I_rfo_hit 0
Core_0_L1I_rfo_miss 0
Core_0_L1I_rfo_MPKI 0
Core_0_L1I_rfo_miss_rate 0
Core_0_L1I_prefetch_access 0
Core_0_L1I_prefetch_hit 0
Core_0_L1I_prefetch_miss 0
Core_0_L1I_prefetch_MPKI 0
Core_0_L1I_prefetch_miss_rate 0
Core_0_L1I_writeback_access 0
Core_0_L1I_writeback_hit 0
Core_0_L1I_writeback_miss 0
Core_0_L1I_writeback_MPKI 0
Core_0_L1I_writeback_miss_rate 0
Core_0_L1I_prefetch_requested 0
Core_0_L1I_prefetch_issued 0
Core_0_L1I_prefetch_useful 0
Core_0_L1I_prefetch_useless 0
Core_0_L1I_prefetch_late 0
Core_0_L1I_prefetch_accuracy 0
Core_0_L1I_prefetch_coverage 0

Core_0_L1D_total_access 14489155
Core_0_L1D_total_hit 13875571
Core_0_L1D_total_miss 613584
Core_0_L1D_total_MPKI 12.2717
Core_0_L1D_total_miss_rate 0.0423478
Core_0_L1D_demand_access 9311812
Core_0_L1D_demand_hit 9089626
Core_0_L1D_demand_miss 222186
Core_0_L1D_demand_MPKI 4.44372
Core_0_L1D_demand_miss_rate 0.0238607
Core_0_L1D_load_access 9311812
Core_0_L1D_load_hit 9089626
Core_0_L1D_load_miss 222186
Core_0_L1D_load_MPKI 4.44372
Core_0_L1D_load_miss_rate 0.0238607
Core_0_L1D_rfo_access 0
Core_0_L1D_rfo_hit 0
Core_0_L1D_rfo_miss 0
Core_0_L1D_rfo_MPKI 0
Core_0_L1D_rfo_miss_rate 0
Core_0_L1D_prefetch_access 0
Core_0_L1D_prefetch_hit 0
Core_0_L1D_prefetch_miss 0
Core_0_L1D_prefetch_MPKI 0
Core_0_L1D_prefetch_miss_rate 0
Core_0_L1D_writeback_access 5177343
Core_0_L1D_writeback_hit 4785945
Core_0_L1D_writeback_miss 391398
Core_0_L1D_writeback_MPKI 7.82796
Core_0_L1D_writeback_miss_rate 0.0755982
Core_0_L1D_prefetch_requested 0
Core_0_L1D_prefetch_issued 0
Core_0_L1D_prefetch_useful 0
Core_0_L1D_prefetch_useless 0
Core_0_L1D_prefetch_late 0
Core_0_L1D_prefetch_accuracy 0
Core_0_L1D_prefetch_coverage 0

Core_0_L2C_total_access 449557
Core_0_L2C_total_hit 365148
Core_0_L2C_total_miss 84409
Core_0_L2C_total_MPKI 1.68818
Core_0_L2C_total_miss_rate 0.18776
Core_0_L2C_demand_access 322395
Core_0_L2C_demand_hit 237996
Core_0_L2C_demand_miss 84399
Core_0_L2C_demand_MPKI 1.68798
Core_0_L2C_demand_miss_rate 0.261788
Core_0_L2C_load_access 233362
Core_0_L2C_load_hit 166910
Core_0_L2C_load_miss 66452
Core_0_L2C_load_MPKI 1.32904
Core_0_L2C_load_miss_rate 0.284759
Core_0_L2C_rfo_access 89033
Core_0_L2C_rfo_hit 71086
Core_0_L2C_rfo_miss 17947
Core_0_L2C_rfo_MPKI 0.35894
Core_0_L2C_rfo_miss_rate 0.201577
Core_0_L2C_prefetch_access 0
Core_0_L2C_prefetch_hit 0
Core_0_L2C_prefetch_miss 0
Core_0_L2C_prefetch_MPKI 0
Core_0_L2C_prefetch_miss_rate 0
Core_0_L2C_writeback_access 127162
Core_0_L2C_writeback_hit 127152
Core_0_L2C_writeback_miss 10
Core_0_L2C_writeback_MPKI 0.0002
Core_0_L2C_writeback_miss_rate 7.86398e-05
Core_0_L2C_prefetch_requested 0
Core_0_L2C_prefetch_issued 0
Core_0_L2C_prefetch_useful 0
Core_0_L2C_prefetch_useless 0
Core_0_L2C_prefetch_late 0
Core_0_L2C_prefetch_accuracy 0
Core_0_L2C_prefetch_coverage 0

Core_0_LLC_total_access 123657
Core_0_LLC_total_hit 110792
Core_0_LLC_total_miss 12865
Core_0_LLC_total_MPKI 0.2573
Core_0_LLC_total_miss_rate 0.104038
Core_0_LLC_demand_access 84399
Core_0_LLC_demand_hit 72410
Core_0_LLC_demand_miss 11989
Core_0_LLC_demand_MPKI 0.23978
Core_0_LLC_demand_miss_rate 0.142051
Core_0_LLC_load_access 66452
Core_0_LLC_load_hit 56085
Core_0_LLC_load_miss 10367
Core_0_LLC_load_MPKI 0.20734
Core_0_LLC_load_miss_rate 0.156007
Core_0_LLC_rfo_access 17947
Core_0_LLC_rfo_hit 16325
Core_0_LLC_rfo_miss 1622
Core_0_LLC_rfo_MPKI 0.03244
Core_0_LLC_rfo_miss_rate 0.0903772
Core_0_LLC_prefetch_access 0
Core_0_LLC_prefetch_hit 0
Core_0_LLC_prefetch_miss 0
Core_0_LLC_prefetch_MPKI 0
Core_0_LLC_prefetch_miss_rate 0
Core_0_LLC_writeback_access 39258
Core_0_LLC_writeback_hit 38382
Core_0_LLC_writeback_miss 876
Core_0_LLC_writeback_MPKI 0.01752
Core_0_LLC_writeback_miss_rate 0.0223139
Core_0_LLC_prefetch_requested 0
Core_0_LLC_prefetch_issued 0
Core_0_LLC_prefetch_useful 0
Core_0_LLC_prefetch_useless 0
Core_0_LLC_prefetch_late 0
Core_0_LLC_prefetch_accuracy 0
Core_0_LLC_prefetch_coverage 0

[DRAM Statistics]
Channel_0_RQ_row_buffer_hit 131
Channel_0_RQ_row_buffer_miss 11886
Channel_0_WQ_row_buffer_hit 229
Channel_0_WQ_row_buffer_miss 1431
Channel_0_WQ_full 0
Channel_0_dbus_congested 16598
DRAM_total_RQ_row_buffer_hit 131
DRAM_total_RQ_row_buffer_miss 11886
DRAM_total_WQ_row_buffer_hit 229
DRAM_total_WQ_row_buffer_miss 1431
DRAM_total_WQ_full 0
DRAM_total_dbus_congested 16598
DRAM_avg_congested_cycle 13.784

======STLB miss causes ========
Core_0_STLB_miss_cause_breakdown
Core_0_STLB_cause_Demand_Data_miss 1968
Core_0_STLB_cause_Demand_Data_miss_rate 0.0306513
Core_0_STLB_cause_Demand_Instruction_miss 24
Core_0_STLB_cause_Demand_Instruction_miss_rate 0.000373797
Core_0_STLB_cause_L1D_Prefetch_miss 0
Core_0_STLB_cause_L1D_Prefetch_miss_rate 0
Core_0_STLB_cause_L1I_Prefetch_miss 0
Core_0_STLB_cause_L1I_Prefetch_miss_rate 0
Core_0_STLB_cause_Other_miss 0
Core_0_STLB_cause_Other_miss_rate 0
Core_0_STLB_Demand_miss 1992
Core_0_STLB_Demand_miss_rate 0.0310251
Core_0_STLB_L1D_Prefetch_miss 0
Core_0_STLB_L1D_Prefetch_miss_rate 0
Core_0_STLB_Other_miss 0
Core_0_STLB_Other_miss_rate 0
