[VMEM] WARNING: physical memory size is smaller than virtual memory size.

*** ChampSim Multicore Out-of-Order Simulator ***
Warmup Instructions: 20000000
Simulation Instructions: 50000000
Number of CPUs: 1
Page size: 4096
Core 0: /data0/tzh/champsim_traces/SPEC06/450.soplex-92B.champsimtrace.xz
Off-chip DRAM Size: 4 GiB Channels: 1 Width: 64-bit Data Rate: 3205 MT/s
Warmup halting CPU 0 at instruction 20000004 cycle 4873497 for remainder of phase
Warmup finished CPU 0 instructions: 20000004 cycles: 4873497 cumulative IPC: 4.104 (Simulation time: 00 hr 00 min 52 sec)
Warmup complete CPU 0 instructions: 20000004 cycles: 4873497 cumulative IPC: 4.104 (Simulation time: 00 hr 00 min 52 sec)
Simulation finished CPU 0 instructions: 50000000 cycles: 113557767 cumulative IPC: 0.4403 (Simulation time: 00 hr 10 min 55 sec)
Simulation complete CPU 0 instructions: 50000000 cycles: 113557767 cumulative IPC: 0.4403 (Simulation time: 00 hr 10 min 55 sec)

ChampSim completed all CPUs

=== Simulation ===
CPU 0 runs /data0/tzh/champsim_traces/SPEC06/450.soplex-92B.champsimtrace.xz

Region of Interest Statistics

CPU 0 cumulative IPC: 0.4403 instructions: 50000000 cycles: 113557767
CPU 0 Branch Prediction Accuracy: 93.44% MPKI: 12.75 Average ROB Occupancy at Mispredict: 42.59
Branch type MPKI
BRANCH_DIRECT_JUMP: 0.0005
BRANCH_INDIRECT: 2e-05
BRANCH_CONDITIONAL: 12.75
BRANCH_DIRECT_CALL: 0.0004
BRANCH_INDIRECT_CALL: 6e-05
BRANCH_RETURN: 0.00102

cpu0->cpu0_STLB TOTAL        ACCESS:     251377 HIT:     197481 MISS:      53896 MSHR_MERGE:          0
cpu0->cpu0_STLB LOAD         ACCESS:     251377 HIT:     197481 MISS:      53896 MSHR_MERGE:          0
cpu0->cpu0_STLB RFO          ACCESS:          0 HIT:          0 MISS:          0 MSHR_MERGE:          0
cpu0->cpu0_STLB PREFETCH     ACCESS:          0 HIT:          0 MISS:          0 MSHR_MERGE:          0
cpu0->cpu0_STLB WRITE        ACCESS:          0 HIT:          0 MISS:          0 MSHR_MERGE:          0
cpu0->cpu0_STLB TRANSLATION  ACCESS:          0 HIT:          0 MISS:          0 MSHR_MERGE:          0
cpu0->cpu0_STLB PREFETCH REQUESTED:          0 ISSUED:          0 USEFUL:          0 USELESS:          0 LATE:          0
cpu0->cpu0_STLB AVERAGE MISS LATENCY: 82.7 cycles
cpu0->cpu0_L2C TOTAL        ACCESS:    2581307 HIT:    1090108 MISS:    1491199 MSHR_MERGE:          0
cpu0->cpu0_L2C LOAD         ACCESS:    1501019 HIT:     313166 MISS:    1187853 MSHR_MERGE:          0
cpu0->cpu0_L2C RFO          ACCESS:     319419 HIT:      30700 MISS:     288719 MSHR_MERGE:          0
cpu0->cpu0_L2C PREFETCH     ACCESS:          0 HIT:          0 MISS:          0 MSHR_MERGE:          0
cpu0->cpu0_L2C WRITE        ACCESS:     737963 HIT:     737763 MISS:        200 MSHR_MERGE:          0
cpu0->cpu0_L2C TRANSLATION  ACCESS:      22906 HIT:       8479 MISS:      14427 MSHR_MERGE:          0
cpu0->cpu0_L2C PREFETCH REQUESTED:          0 ISSUED:          0 USEFUL:          0 USELESS:          0 LATE:          0
cpu0->cpu0_L2C AVERAGE MISS LATENCY: 168.7 cycles
cpu0->cpu0_L1I TOTAL        ACCESS:    2335597 HIT:    2335445 MISS:        152 MSHR_MERGE:         23
cpu0->cpu0_L1I LOAD         ACCESS:    2335597 HIT:    2335445 MISS:        152 MSHR_MERGE:         23
cpu0->cpu0_L1I RFO          ACCESS:          0 HIT:          0 MISS:          0 MSHR_MERGE:          0
cpu0->cpu0_L1I PREFETCH     ACCESS:          0 HIT:          0 MISS:          0 MSHR_MERGE:          0
cpu0->cpu0_L1I WRITE        ACCESS:          0 HIT:          0 MISS:          0 MSHR_MERGE:          0
cpu0->cpu0_L1I TRANSLATION  ACCESS:          0 HIT:          0 MISS:          0 MSHR_MERGE:          0
cpu0->cpu0_L1I PREFETCH REQUESTED:          0 ISSUED:          0 USEFUL:          0 USELESS:          0 LATE:          0
cpu0->cpu0_L1I AVERAGE MISS LATENCY: 259.7 cycles
cpu0->cpu0_L1D TOTAL        ACCESS:   13910438 HIT:    9628420 MISS:    4282018 MSHR_MERGE:    2438789
cpu0->cpu0_L1D LOAD         ACCESS:    9782603 HIT:    6925659 MISS:    2856944 MSHR_MERGE:    1356044
cpu0->cpu0_L1D RFO          ACCESS:          0 HIT:          0 MISS:          0 MSHR_MERGE:          0
cpu0->cpu0_L1D PREFETCH     ACCESS:          0 HIT:          0 MISS:          0 MSHR_MERGE:          0
cpu0->cpu0_L1D WRITE        ACCESS:    4020483 HIT:    2618823 MISS:    1401660 MSHR_MERGE:    1082237
cpu0->cpu0_L1D TRANSLATION  ACCESS:     107352 HIT:      83938 MISS:      23414 MSHR_MERGE:        508
cpu0->cpu0_L1D PREFETCH REQUESTED:          0 ISSUED:          0 USEFUL:          0 USELESS:          0 LATE:          0
cpu0->cpu0_L1D AVERAGE MISS LATENCY: 145.5 cycles
cpu0->cpu0_ITLB TOTAL        ACCESS:    2009666 HIT:    2009651 MISS:         15 MSHR_MERGE:          6
cpu0->cpu0_ITLB LOAD         ACCESS:    2009666 HIT:    2009651 MISS:         15 MSHR_MERGE:          6
cpu0->cpu0_ITLB RFO          ACCESS:          0 HIT:          0 MISS:          0 MSHR_MERGE:          0
cpu0->cpu0_ITLB PREFETCH     ACCESS:          0 HIT:          0 MISS:          0 MSHR_MERGE:          0
cpu0->cpu0_ITLB WRITE        ACCESS:          0 HIT:          0 MISS:          0 MSHR_MERGE:          0
cpu0->cpu0_ITLB TRANSLATION  ACCESS:          0 HIT:          0 MISS:          0 MSHR_MERGE:          0
cpu0->cpu0_ITLB PREFETCH REQUESTED:          0 ISSUED:          0 USEFUL:          0 USELESS:          0 LATE:          0
cpu0->cpu0_ITLB AVERAGE MISS LATENCY: 483.4 cycles
cpu0->cpu0_DTLB TOTAL        ACCESS:   13432234 HIT:   12961632 MISS:     470602 MSHR_MERGE:     219234
cpu0->cpu0_DTLB LOAD         ACCESS:   13432234 HIT:   12961632 MISS:     470602 MSHR_MERGE:     219234
cpu0->cpu0_DTLB RFO          ACCESS:          0 HIT:          0 MISS:          0 MSHR_MERGE:          0
cpu0->cpu0_DTLB PREFETCH     ACCESS:          0 HIT:          0 MISS:          0 MSHR_MERGE:          0
cpu0->cpu0_DTLB WRITE        ACCESS:          0 HIT:          0 MISS:          0 MSHR_MERGE:          0
cpu0->cpu0_DTLB TRANSLATION  ACCESS:          0 HIT:          0 MISS:          0 MSHR_MERGE:          0
cpu0->cpu0_DTLB PREFETCH REQUESTED:          0 ISSUED:          0 USEFUL:          0 USELESS:          0 LATE:          0
cpu0->cpu0_DTLB AVERAGE MISS LATENCY: 22.93 cycles
cpu0->LLC TOTAL        ACCESS:    2043883 HIT:     925399 MISS:    1118484 MSHR_MERGE:          0
cpu0->LLC LOAD         ACCESS:    1187853 HIT:     407430 MISS:     780423 MSHR_MERGE:          0
cpu0->LLC RFO          ACCESS:     288719 HIT:      97052 MISS:     191667 MSHR_MERGE:          0
cpu0->LLC PREFETCH     ACCESS:          0 HIT:          0 MISS:          0 MSHR_MERGE:          0
cpu0->LLC WRITE        ACCESS:     552884 HIT:     416065 MISS:     136819 MSHR_MERGE:          0
cpu0->LLC TRANSLATION  ACCESS:      14427 HIT:       4852 MISS:       9575 MSHR_MERGE:          0
cpu0->LLC PREFETCH REQUESTED:          0 ISSUED:          0 USEFUL:          0 USELESS:          0 LATE:          0
cpu0->LLC AVERAGE MISS LATENCY: 205.1 cycles

DRAM Statistics

Channel 0 RQ ROW_BUFFER_HIT:      41663
  ROW_BUFFER_MISS:     939161
  AVG DBUS CONGESTED CYCLE: 9.626
Channel 0 WQ ROW_BUFFER_HIT:      77022
  ROW_BUFFER_MISS:     220374
  FULL:         61
Channel 0 REFRESHES ISSUED:       9463

[ROI Statistics]
[System Configuration]
num_cpus 1
cpu_freq 4000
fetch_width 6
decode_width 6
dispatch_width 6
execute_width 6
lq_width 2
sq_width 2
retire_width 6
scheduler_size 160
branch_mispredict_penalty 1
rob_size 352
lq_size 240
sq_size 112
ifetch_buffer_size 64
decode_buffer_size 32
dispatch_buffer_size 32
register_file_size 288
decode_latency 1
dispatch_latency 1
schedule_latency 0
execute_latency 0
page_size 4096
block_size 64
core_0_itlb_set 16
core_0_itlb_way 4
core_0_itlb_rq_size 16
core_0_itlb_wq_size 16
core_0_itlb_pq_size 0
core_0_itlb_mshr_size 8
core_0_itlb_hit_latency 1
core_0_itlb_fill_latency 1
core_0_itlb_max_tag_check 2
core_0_itlb_max_fill 2
core_0_dtlb_set 16
core_0_dtlb_way 4
core_0_dtlb_rq_size 16
core_0_dtlb_wq_size 16
core_0_dtlb_pq_size 0
core_0_dtlb_mshr_size 8
core_0_dtlb_hit_latency 1
core_0_dtlb_fill_latency 1
core_0_dtlb_max_tag_check 2
core_0_dtlb_max_fill 2
core_0_stlb_set 128
core_0_stlb_way 12
core_0_stlb_rq_size 32
core_0_stlb_wq_size 32
core_0_stlb_pq_size 0
core_0_stlb_mshr_size 16
core_0_stlb_hit_latency 4
core_0_stlb_fill_latency 4
core_0_stlb_max_tag_check 1
core_0_stlb_max_fill 1
core_0_l1i_set 64
core_0_l1i_way 8
core_0_l1i_rq_size 64
core_0_l1i_wq_size 64
core_0_l1i_pq_size 32
core_0_l1i_mshr_size 8
core_0_l1i_hit_latency 2
core_0_l1i_fill_latency 2
core_0_l1i_max_tag_check 2
core_0_l1i_max_fill 2
core_0_l1d_set 64
core_0_l1d_way 12
core_0_l1d_rq_size 64
core_0_l1d_wq_size 64
core_0_l1d_pq_size 8
core_0_l1d_mshr_size 16
core_0_l1d_hit_latency 2
core_0_l1d_fill_latency 3
core_0_l1d_max_tag_check 2
core_0_l1d_max_fill 2
core_0_l2c_set 1024
core_0_l2c_way 8
core_0_l2c_rq_size 32
core_0_l2c_wq_size 32
core_0_l2c_pq_size 16
core_0_l2c_mshr_size 32
core_0_l2c_hit_latency 5
core_0_l2c_fill_latency 5
core_0_l2c_max_tag_check 1
core_0_l2c_max_fill 1
llc_set 2048
llc_way 16
llc_rq_size 32
llc_wq_size 32
llc_pq_size 32
llc_mshr_size 64
llc_hit_latency 10
llc_fill_latency 10
llc_max_tag_check 1
llc_max_fill 1
dram_channels 1
dram_ranks 1
dram_bankgroups 8
dram_banks 4
dram_rows 16384
dram_columns 1024
dram_channel_width 8
dram_rq_size 64
dram_wq_size 64
dram_size 4294967296
core_0_itlb_prefetcher no
core_0_dtlb_prefetcher no
core_0_stlb_prefetcher no
core_0_l1i_prefetcher no
core_0_l1d_prefetcher no
core_0_l2c_prefetcher no
llc_prefetcher no
llc_replacement drrip

Core_0_instructions 50000000
Core_0_cycles 113557767
Core_0_IPC 0.440305
Core_0_branch_prediction_accuracy 93.443
Core_0_branch_MPKI 12.753
Core_0_average_ROB_occupancy_at_mispredict 42.5898

Core_0_ITLB_total_access 2009666
Core_0_ITLB_total_hit 2009651
Core_0_ITLB_total_miss 15
Core_0_ITLB_total_MPKI 0.0003
Core_0_ITLB_total_miss_rate 7.46393e-06
Core_0_ITLB_demand_access 2009666
Core_0_ITLB_demand_hit 2009651
Core_0_ITLB_demand_miss 15
Core_0_ITLB_demand_MPKI 0.0003
Core_0_ITLB_demand_miss_rate 7.46393e-06
Core_0_ITLB_load_access 2009666
Core_0_ITLB_load_hit 2009651
Core_0_ITLB_load_miss 15
Core_0_ITLB_load_MPKI 0.0003
Core_0_ITLB_load_miss_rate 7.46393e-06
Core_0_ITLB_rfo_access 0
Core_0_ITLB_rfo_hit 0
Core_0_ITLB_rfo_miss 0
Core_0_ITLB_rfo_MPKI 0
Core_0_ITLB_rfo_miss_rate 0
Core_0_ITLB_prefetch_access 0
Core_0_ITLB_prefetch_hit 0
Core_0_ITLB_prefetch_miss 0
Core_0_ITLB_prefetch_MPKI 0
Core_0_ITLB_prefetch_miss_rate 0
Core_0_ITLB_writeback_access 0
Core_0_ITLB_writeback_hit 0
Core_0_ITLB_writeback_miss 0
Core_0_ITLB_writeback_MPKI 0
Core_0_ITLB_writeback_miss_rate 0
Core_0_ITLB_prefetch_requested 0
Core_0_ITLB_prefetch_issued 0
Core_0_ITLB_prefetch_useful 0
Core_0_ITLB_prefetch_useless 0
Core_0_ITLB_prefetch_late 0
Core_0_ITLB_prefetch_accuracy 0
Core_0_ITLB_prefetch_coverage 0

Core_0_DTLB_total_access 13432234
Core_0_DTLB_total_hit 12961632
Core_0_DTLB_total_miss 470602
Core_0_DTLB_total_MPKI 9.41204
Core_0_DTLB_total_miss_rate 0.0350353
Core_0_DTLB_demand_access 13432234
Core_0_DTLB_demand_hit 12961632
Core_0_DTLB_demand_miss 470602
Core_0_DTLB_demand_MPKI 9.41204
Core_0_DTLB_demand_miss_rate 0.0350353
Core_0_DTLB_load_access 13432234
Core_0_DTLB_load_hit 12961632
Core_0_DTLB_load_miss 470602
Core_0_DTLB_load_MPKI 9.41204
Core_0_DTLB_load_miss_rate 0.0350353
Core_0_DTLB_rfo_access 0
Core_0_DTLB_rfo_hit 0
Core_0_DTLB_rfo_miss 0
Core_0_DTLB_rfo_MPKI 0
Core_0_DTLB_rfo_miss_rate 0
Core_0_DTLB_prefetch_access 0
Core_0_DTLB_prefetch_hit 0
Core_0_DTLB_prefetch_miss 0
Core_0_DTLB_prefetch_MPKI 0
Core_0_DTLB_prefetch_miss_rate 0
Core_0_DTLB_writeback_access 0
Core_0_DTLB_writeback_hit 0
Core_0_DTLB_writeback_miss 0
Core_0_DTLB_writeback_MPKI 0
Core_0_DTLB_writeback_miss_rate 0
Core_0_DTLB_prefetch_requested 0
Core_0_DTLB_prefetch_issued 0
Core_0_DTLB_prefetch_useful 0
Core_0_DTLB_prefetch_useless 0
Core_0_DTLB_prefetch_late 0
Core_0_DTLB_prefetch_accuracy 0
Core_0_DTLB_prefetch_coverage 0

Core_0_STLB_total_access 251377
Core_0_STLB_total_hit 197481
Core_0_STLB_total_miss 53896
Core_0_STLB_total_MPKI 1.07792
Core_0_STLB_total_miss_rate 0.214403
Core_0_STLB_demand_access 251377
Core_0_STLB_demand_hit 197481
Core_0_STLB_demand_miss 53896
Core_0_STLB_demand_MPKI 1.07792
Core_0_STLB_demand_miss_rate 0.214403
Core_0_STLB_load_access 251377
Core_0_STLB_load_hit 197481
Core_0_STLB_load_miss 53896
Core_0_STLB_load_MPKI 1.07792
Core_0_STLB_load_miss_rate 0.214403
Core_0_STLB_rfo_access 0
Core_0_STLB_rfo_hit 0
Core_0_STLB_rfo_miss 0
Core_0_STLB_rfo_MPKI 0
Core_0_STLB_rfo_miss_rate 0
Core_0_STLB_prefetch_access 0
Core_0_STLB_prefetch_hit 0
Core_0_STLB_prefetch_miss 0
Core_0_STLB_prefetch_MPKI 0
Core_0_STLB_prefetch_miss_rate 0
Core_0_STLB_writeback_access 0
Core_0_STLB_writeback_hit 0
Core_0_STLB_writeback_miss 0
Core_0_STLB_writeback_MPKI 0
Core_0_STLB_writeback_miss_rate 0
Core_0_STLB_prefetch_requested 0
Core_0_STLB_prefetch_issued 0
Core_0_STLB_prefetch_useful 0
Core_0_STLB_prefetch_useless 0
Core_0_STLB_prefetch_late 0
Core_0_STLB_prefetch_accuracy 0
Core_0_STLB_prefetch_coverage 0

Core_0_L1I_total_access 2335597
Core_0_L1I_total_hit 2335445
Core_0_L1I_total_miss 152
Core_0_L1I_total_MPKI 0.00304
Core_0_L1I_total_miss_rate 6.50797e-05
Core_0_L1I_demand_access 2335597
Core_0_L1I_demand_hit 2335445
Core_0_L1I_demand_miss 152
Core_0_L1I_demand_MPKI 0.00304
Core_0_L1I_demand_miss_rate 6.50797e-05
Core_0_L1I_load_access 2335597
Core_0_L1I_load_hit 2335445
Core_0_L1I_load_miss 152
Core_0_L1I_load_MPKI 0.00304
Core_0_L1I_load_miss_rate 6.50797e-05
Core_0_L1I_rfo_access 0
Core_0_L1I_rfo_hit 0
Core_0_L1I_rfo_miss 0
Core_0_L1I_rfo_MPKI 0
Core_0_L1I_rfo_miss_rate 0
Core_0_L1I_prefetch_access 0
Core_0_L1I_prefetch_hit 0
Core_0_L1I_prefetch_miss 0
Core_0_L1I_prefetch_MPKI 0
Core_0_L1I_prefetch_miss_rate 0
Core_0_L1I_writeback_access 0
Core_0_L1I_writeback_hit 0
Core_0_L1I_writeback_miss 0
Core_0_L1I_writeback_MPKI 0
Core_0_L1I_writeback_miss_rate 0
Core_0_L1I_prefetch_requested 0
Core_0_L1I_prefetch_issued 0
Core_0_L1I_prefetch_useful 0
Core_0_L1I_prefetch_useless 0
Core_0_L1I_prefetch_late 0
Core_0_L1I_prefetch_accuracy 0
Core_0_L1I_prefetch_coverage 0

Core_0_L1D_total_access 13803086
Core_0_L1D_total_hit 9544482
Core_0_L1D_total_miss 4258604
Core_0_L1D_total_MPKI 85.1721
Core_0_L1D_total_miss_rate 0.308525
Core_0_L1D_demand_access 9782603
Core_0_L1D_demand_hit 6925659
Core_0_L1D_demand_miss 2856944
Core_0_L1D_demand_MPKI 57.1389
Core_0_L1D_demand_miss_rate 0.292043
Core_0_L1D_load_access 9782603
Core_0_L1D_load_hit 6925659
Core_0_L1D_load_miss 2856944
Core_0_L1D_load_MPKI 57.1389
Core_0_L1D_load_miss_rate 0.292043
Core_0_L1D_rfo_access 0
Core_0_L1D_rfo_hit 0
Core_0_L1D_rfo_miss 0
Core_0_L1D_rfo_MPKI 0
Core_0_L1D_rfo_miss_rate 0
Core_0_L1D_prefetch_access 0
Core_0_L1D_prefetch_hit 0
Core_0_L1D_prefetch_miss 0
Core_0_L1D_prefetch_MPKI 0
Core_0_L1D_prefetch_miss_rate 0
Core_0_L1D_writeback_access 4020483
Core_0_L1D_writeback_hit 2618823
Core_0_L1D_writeback_miss 1401660
Core_0_L1D_writeback_MPKI 28.0332
Core_0_L1D_writeback_miss_rate 0.34863
Core_0_L1D_prefetch_requested 0
Core_0_L1D_prefetch_issued 0
Core_0_L1D_prefetch_useful 0
Core_0_L1D_prefetch_useless 0
Core_0_L1D_prefetch_late 0
Core_0_L1D_prefetch_accuracy 0
Core_0_L1D_prefetch_coverage 0

Core_0_L2C_total_access 2558401
Core_0_L2C_total_hit 1081629
Core_0_L2C_total_miss 1476772
Core_0_L2C_total_MPKI 29.5354
Core_0_L2C_total_miss_rate 0.577225
Core_0_L2C_demand_access 1820438
Core_0_L2C_demand_hit 343866
Core_0_L2C_demand_miss 1476572
Core_0_L2C_demand_MPKI 29.5314
Core_0_L2C_demand_miss_rate 0.811108
Core_0_L2C_load_access 1501019
Core_0_L2C_load_hit 313166
Core_0_L2C_load_miss 1187853
Core_0_L2C_load_MPKI 23.7571
Core_0_L2C_load_miss_rate 0.791364
Core_0_L2C_rfo_access 319419
Core_0_L2C_rfo_hit 30700
Core_0_L2C_rfo_miss 288719
Core_0_L2C_rfo_MPKI 5.77438
Core_0_L2C_rfo_miss_rate 0.903888
Core_0_L2C_prefetch_access 0
Core_0_L2C_prefetch_hit 0
Core_0_L2C_prefetch_miss 0
Core_0_L2C_prefetch_MPKI 0
Core_0_L2C_prefetch_miss_rate 0
Core_0_L2C_writeback_access 737963
Core_0_L2C_writeback_hit 737763
Core_0_L2C_writeback_miss 200
Core_0_L2C_writeback_MPKI 0.004
Core_0_L2C_writeback_miss_rate 0.000271016
Core_0_L2C_prefetch_requested 0
Core_0_L2C_prefetch_issued 0
Core_0_L2C_prefetch_useful 0
Core_0_L2C_prefetch_useless 0
Core_0_L2C_prefetch_late 0
Core_0_L2C_prefetch_accuracy 0
Core_0_L2C_prefetch_coverage 0

Core_0_LLC_total_access 2029456
Core_0_LLC_total_hit 920547
Core_0_LLC_total_miss 1108909
Core_0_LLC_total_MPKI 22.1782
Core_0_LLC_total_miss_rate 0.546407
Core_0_LLC_demand_access 1476572
Core_0_LLC_demand_hit 504482
Core_0_LLC_demand_miss 972090
Core_0_LLC_demand_MPKI 19.4418
Core_0_LLC_demand_miss_rate 0.658342
Core_0_LLC_load_access 1187853
Core_0_LLC_load_hit 407430
Core_0_LLC_load_miss 780423
Core_0_LLC_load_MPKI 15.6085
Core_0_LLC_load_miss_rate 0.657003
Core_0_LLC_rfo_access 288719
Core_0_LLC_rfo_hit 97052
Core_0_LLC_rfo_miss 191667
Core_0_LLC_rfo_MPKI 3.83334
Core_0_LLC_rfo_miss_rate 0.663853
Core_0_LLC_prefetch_access 0
Core_0_LLC_prefetch_hit 0
Core_0_LLC_prefetch_miss 0
Core_0_LLC_prefetch_MPKI 0
Core_0_LLC_prefetch_miss_rate 0
Core_0_LLC_writeback_access 552884
Core_0_LLC_writeback_hit 416065
Core_0_LLC_writeback_miss 136819
Core_0_LLC_writeback_MPKI 2.73638
Core_0_LLC_writeback_miss_rate 0.247464
Core_0_LLC_prefetch_requested 0
Core_0_LLC_prefetch_issued 0
Core_0_LLC_prefetch_useful 0
Core_0_LLC_prefetch_useless 0
Core_0_LLC_prefetch_late 0
Core_0_LLC_prefetch_accuracy 0
Core_0_LLC_prefetch_coverage 0

[DRAM Statistics]
Channel_0_RQ_row_buffer_hit 41663
Channel_0_RQ_row_buffer_miss 939161
Channel_0_WQ_row_buffer_hit 77022
Channel_0_WQ_row_buffer_miss 220374
Channel_0_WQ_full 61
Channel_0_dbus_congested 3475818
DRAM_total_RQ_row_buffer_hit 41663
DRAM_total_RQ_row_buffer_miss 939161
DRAM_total_WQ_row_buffer_hit 77022
DRAM_total_WQ_row_buffer_miss 220374
DRAM_total_WQ_full 61
DRAM_total_dbus_congested 3475818
DRAM_avg_congested_cycle 9.62594

======STLB miss causes ========
Core_0_STLB_miss_cause_breakdown
Core_0_STLB_cause_Demand_Data_miss 53887
Core_0_STLB_cause_Demand_Data_miss_rate 0.214367
Core_0_STLB_cause_Demand_Instruction_miss 9
Core_0_STLB_cause_Demand_Instruction_miss_rate 3.58028e-05
Core_0_STLB_cause_L1D_Prefetch_miss 0
Core_0_STLB_cause_L1D_Prefetch_miss_rate 0
Core_0_STLB_cause_L1I_Prefetch_miss 0
Core_0_STLB_cause_L1I_Prefetch_miss_rate 0
Core_0_STLB_cause_Other_miss 0
Core_0_STLB_cause_Other_miss_rate 0
Core_0_STLB_Demand_miss 53896
Core_0_STLB_Demand_miss_rate 0.214403
Core_0_STLB_L1D_Prefetch_miss 0
Core_0_STLB_L1D_Prefetch_miss_rate 0
Core_0_STLB_Other_miss 0
Core_0_STLB_Other_miss_rate 0
