[VMEM] WARNING: physical memory size is smaller than virtual memory size.

*** ChampSim Multicore Out-of-Order Simulator ***
Warmup Instructions: 20000000
Simulation Instructions: 50000000
Number of CPUs: 1
Page size: 4096
Core 0: /data0/tzh/champsim_traces/SPEC06/458.sjeng-283B.champsimtrace.xz
Off-chip DRAM Size: 4 GiB Channels: 1 Width: 64-bit Data Rate: 3205 MT/s
Warmup halting CPU 0 at instruction 20000002 cycle 4685576 for remainder of phase
Warmup finished CPU 0 instructions: 20000002 cycles: 4685576 cumulative IPC: 4.268 (Simulation time: 00 hr 00 min 53 sec)
Warmup complete CPU 0 instructions: 20000002 cycles: 4685576 cumulative IPC: 4.268 (Simulation time: 00 hr 00 min 53 sec)
Simulation finished CPU 0 instructions: 50000003 cycles: 39388605 cumulative IPC: 1.269 (Simulation time: 00 hr 04 min 51 sec)
Simulation complete CPU 0 instructions: 50000003 cycles: 39388605 cumulative IPC: 1.269 (Simulation time: 00 hr 04 min 51 sec)

ChampSim completed all CPUs

=== Simulation ===
CPU 0 runs /data0/tzh/champsim_traces/SPEC06/458.sjeng-283B.champsimtrace.xz

Region of Interest Statistics

CPU 0 cumulative IPC: 1.269 instructions: 50000003 cycles: 39388605
CPU 0 Branch Prediction Accuracy: 89.71% MPKI: 22.96 Average ROB Occupancy at Mispredict: 28.43
Branch type MPKI
BRANCH_DIRECT_JUMP: 0.1178
BRANCH_INDIRECT: 0.6077
BRANCH_CONDITIONAL: 21.95
BRANCH_DIRECT_CALL: 0.0002
BRANCH_INDIRECT_CALL: 0.2591
BRANCH_RETURN: 0.0201

cpu0->cpu0_STLB TOTAL        ACCESS:      74149 HIT:      56266 MISS:      17883 MSHR_MERGE:          0
cpu0->cpu0_STLB LOAD         ACCESS:      74149 HIT:      56266 MISS:      17883 MSHR_MERGE:          0
cpu0->cpu0_STLB RFO          ACCESS:          0 HIT:          0 MISS:          0 MSHR_MERGE:          0
cpu0->cpu0_STLB PREFETCH     ACCESS:          0 HIT:          0 MISS:          0 MSHR_MERGE:          0
cpu0->cpu0_STLB WRITE        ACCESS:          0 HIT:          0 MISS:          0 MSHR_MERGE:          0
cpu0->cpu0_STLB TRANSLATION  ACCESS:          0 HIT:          0 MISS:          0 MSHR_MERGE:          0
cpu0->cpu0_STLB PREFETCH REQUESTED:          0 ISSUED:          0 USEFUL:          0 USELESS:          0 LATE:          0
cpu0->cpu0_STLB AVERAGE MISS LATENCY: 185.6 cycles
cpu0->cpu0_L2C TOTAL        ACCESS:      86161 HIT:      57054 MISS:      29107 MSHR_MERGE:          0
cpu0->cpu0_L2C LOAD         ACCESS:      31430 HIT:      11301 MISS:      20129 MSHR_MERGE:          0
cpu0->cpu0_L2C RFO          ACCESS:      10305 HIT:       8453 MISS:       1852 MSHR_MERGE:          0
cpu0->cpu0_L2C PREFETCH     ACCESS:          0 HIT:          0 MISS:          0 MSHR_MERGE:          0
cpu0->cpu0_L2C WRITE        ACCESS:      27183 HIT:      27085 MISS:         98 MSHR_MERGE:          0
cpu0->cpu0_L2C TRANSLATION  ACCESS:      17243 HIT:      10215 MISS:       7028 MSHR_MERGE:          0
cpu0->cpu0_L2C PREFETCH REQUESTED:          0 ISSUED:          0 USEFUL:          0 USELESS:          0 LATE:          0
cpu0->cpu0_L2C AVERAGE MISS LATENCY: 132.1 cycles
cpu0->cpu0_L1I TOTAL        ACCESS:      64043 HIT:      64026 MISS:         17 MSHR_MERGE:          1
cpu0->cpu0_L1I LOAD         ACCESS:      64043 HIT:      64026 MISS:         17 MSHR_MERGE:          1
cpu0->cpu0_L1I RFO          ACCESS:          0 HIT:          0 MISS:          0 MSHR_MERGE:          0
cpu0->cpu0_L1I PREFETCH     ACCESS:          0 HIT:          0 MISS:          0 MSHR_MERGE:          0
cpu0->cpu0_L1I WRITE        ACCESS:          0 HIT:          0 MISS:          0 MSHR_MERGE:          0
cpu0->cpu0_L1I TRANSLATION  ACCESS:          0 HIT:          0 MISS:          0 MSHR_MERGE:          0
cpu0->cpu0_L1I PREFETCH REQUESTED:          0 ISSUED:          0 USEFUL:          0 USELESS:          0 LATE:          0
cpu0->cpu0_L1I AVERAGE MISS LATENCY: 107.6 cycles
cpu0->cpu0_L1D TOTAL        ACCESS:   14352438 HIT:   14270450 MISS:      81988 MSHR_MERGE:      23026
cpu0->cpu0_L1D LOAD         ACCESS:    9674358 HIT:    9641384 MISS:      32974 MSHR_MERGE:       1560
cpu0->cpu0_L1D RFO          ACCESS:          0 HIT:          0 MISS:          0 MSHR_MERGE:          0
cpu0->cpu0_L1D PREFETCH     ACCESS:          0 HIT:          0 MISS:          0 MSHR_MERGE:          0
cpu0->cpu0_L1D WRITE        ACCESS:    4634876 HIT:    4603105 MISS:      31771 MSHR_MERGE:      21466
cpu0->cpu0_L1D TRANSLATION  ACCESS:      43204 HIT:      25961 MISS:      17243 MSHR_MERGE:          0
cpu0->cpu0_L1D PREFETCH REQUESTED:          0 ISSUED:          0 USEFUL:          0 USELESS:          0 LATE:          0
cpu0->cpu0_L1D AVERAGE MISS LATENCY: 73.66 cycles
cpu0->cpu0_ITLB TOTAL        ACCESS:      55654 HIT:      55654 MISS:          0 MSHR_MERGE:          0
cpu0->cpu0_ITLB LOAD         ACCESS:      55654 HIT:      55654 MISS:          0 MSHR_MERGE:          0
cpu0->cpu0_ITLB RFO          ACCESS:          0 HIT:          0 MISS:          0 MSHR_MERGE:          0
cpu0->cpu0_ITLB PREFETCH     ACCESS:          0 HIT:          0 MISS:          0 MSHR_MERGE:          0
cpu0->cpu0_ITLB WRITE        ACCESS:          0 HIT:          0 MISS:          0 MSHR_MERGE:          0
cpu0->cpu0_ITLB TRANSLATION  ACCESS:          0 HIT:          0 MISS:          0 MSHR_MERGE:          0
cpu0->cpu0_ITLB PREFETCH REQUESTED:          0 ISSUED:          0 USEFUL:          0 USELESS:          0 LATE:          0
cpu0->cpu0_ITLB AVERAGE MISS LATENCY: - cycles
cpu0->cpu0_DTLB TOTAL        ACCESS:   13802841 HIT:   13707021 MISS:      95820 MSHR_MERGE:      21671
cpu0->cpu0_DTLB LOAD         ACCESS:   13802841 HIT:   13707021 MISS:      95820 MSHR_MERGE:      21671
cpu0->cpu0_DTLB RFO          ACCESS:          0 HIT:          0 MISS:          0 MSHR_MERGE:          0
cpu0->cpu0_DTLB PREFETCH     ACCESS:          0 HIT:          0 MISS:          0 MSHR_MERGE:          0
cpu0->cpu0_DTLB WRITE        ACCESS:          0 HIT:          0 MISS:          0 MSHR_MERGE:          0
cpu0->cpu0_DTLB TRANSLATION  ACCESS:          0 HIT:          0 MISS:          0 MSHR_MERGE:          0
cpu0->cpu0_DTLB PREFETCH REQUESTED:          0 ISSUED:          0 USEFUL:          0 USELESS:          0 LATE:          0
cpu0->cpu0_DTLB AVERAGE MISS LATENCY: 50.02 cycles
cpu0->LLC TOTAL        ACCESS:      45663 HIT:      21943 MISS:      23720 MSHR_MERGE:          0
cpu0->LLC LOAD         ACCESS:      20129 HIT:       1266 MISS:      18863 MSHR_MERGE:          0
cpu0->LLC RFO          ACCESS:       1852 HIT:        431 MISS:       1421 MSHR_MERGE:          0
cpu0->LLC PREFETCH     ACCESS:          0 HIT:          0 MISS:          0 MSHR_MERGE:          0
cpu0->LLC WRITE        ACCESS:      16654 HIT:      15553 MISS:       1101 MSHR_MERGE:          0
cpu0->LLC TRANSLATION  ACCESS:       7028 HIT:       4693 MISS:       2335 MSHR_MERGE:          0
cpu0->LLC PREFETCH REQUESTED:          0 ISSUED:          0 USEFUL:          0 USELESS:          0 LATE:          0
cpu0->LLC AVERAGE MISS LATENCY: 143.2 cycles

DRAM Statistics

Channel 0 RQ ROW_BUFFER_HIT:          5
  ROW_BUFFER_MISS:      22614
  AVG DBUS CONGESTED CYCLE: 7.965
Channel 0 WQ ROW_BUFFER_HIT:         70
  ROW_BUFFER_MISS:        678
  FULL:          0
Channel 0 REFRESHES ISSUED:       3282

[ROI Statistics]
[System Configuration]
num_cpus 1
cpu_freq 4000
fetch_width 6
decode_width 6
dispatch_width 6
execute_width 6
lq_width 2
sq_width 2
retire_width 6
scheduler_size 160
branch_mispredict_penalty 1
rob_size 352
lq_size 240
sq_size 112
ifetch_buffer_size 64
decode_buffer_size 32
dispatch_buffer_size 32
register_file_size 288
decode_latency 1
dispatch_latency 1
schedule_latency 0
execute_latency 0
page_size 4096
block_size 64
core_0_itlb_set 16
core_0_itlb_way 4
core_0_itlb_rq_size 16
core_0_itlb_wq_size 16
core_0_itlb_pq_size 0
core_0_itlb_mshr_size 8
core_0_itlb_hit_latency 1
core_0_itlb_fill_latency 1
core_0_itlb_max_tag_check 2
core_0_itlb_max_fill 2
core_0_dtlb_set 16
core_0_dtlb_way 4
core_0_dtlb_rq_size 16
core_0_dtlb_wq_size 16
core_0_dtlb_pq_size 0
core_0_dtlb_mshr_size 8
core_0_dtlb_hit_latency 1
core_0_dtlb_fill_latency 1
core_0_dtlb_max_tag_check 2
core_0_dtlb_max_fill 2
core_0_stlb_set 128
core_0_stlb_way 12
core_0_stlb_rq_size 32
core_0_stlb_wq_size 32
core_0_stlb_pq_size 0
core_0_stlb_mshr_size 16
core_0_stlb_hit_latency 4
core_0_stlb_fill_latency 4
core_0_stlb_max_tag_check 1
core_0_stlb_max_fill 1
core_0_l1i_set 64
core_0_l1i_way 8
core_0_l1i_rq_size 64
core_0_l1i_wq_size 64
core_0_l1i_pq_size 32
core_0_l1i_mshr_size 8
core_0_l1i_hit_latency 2
core_0_l1i_fill_latency 2
core_0_l1i_max_tag_check 2
core_0_l1i_max_fill 2
core_0_l1d_set 64
core_0_l1d_way 12
core_0_l1d_rq_size 64
core_0_l1d_wq_size 64
core_0_l1d_pq_size 8
core_0_l1d_mshr_size 16
core_0_l1d_hit_latency 2
core_0_l1d_fill_latency 3
core_0_l1d_max_tag_check 2
core_0_l1d_max_fill 2
core_0_l2c_set 1024
core_0_l2c_way 8
core_0_l2c_rq_size 32
core_0_l2c_wq_size 32
core_0_l2c_pq_size 16
core_0_l2c_mshr_size 32
core_0_l2c_hit_latency 5
core_0_l2c_fill_latency 5
core_0_l2c_max_tag_check 1
core_0_l2c_max_fill 1
llc_set 2048
llc_way 16
llc_rq_size 32
llc_wq_size 32
llc_pq_size 32
llc_mshr_size 64
llc_hit_latency 10
llc_fill_latency 10
llc_max_tag_check 1
llc_max_fill 1
dram_channels 1
dram_ranks 1
dram_bankgroups 8
dram_banks 4
dram_rows 16384
dram_columns 1024
dram_channel_width 8
dram_rq_size 64
dram_wq_size 64
dram_size 4294967296
core_0_itlb_prefetcher no
core_0_dtlb_prefetcher no
core_0_stlb_prefetcher no
core_0_l1i_prefetcher no
core_0_l1d_prefetcher no
core_0_l2c_prefetcher no
llc_prefetcher no
llc_replacement drrip

Core_0_instructions 50000003
Core_0_cycles 39388605
Core_0_IPC 1.2694
Core_0_branch_prediction_accuracy 89.7087
Core_0_branch_MPKI 22.9596
Core_0_average_ROB_occupancy_at_mispredict 28.4283

Core_0_ITLB_total_access 55654
Core_0_ITLB_total_hit 55654
Core_0_ITLB_total_miss 0
Core_0_ITLB_total_MPKI 0
Core_0_ITLB_total_miss_rate 0
Core_0_ITLB_demand_access 55654
Core_0_ITLB_demand_hit 55654
Core_0_ITLB_demand_miss 0
Core_0_ITLB_demand_MPKI 0
Core_0_ITLB_demand_miss_rate 0
Core_0_ITLB_load_access 55654
Core_0_ITLB_load_hit 55654
Core_0_ITLB_load_miss 0
Core_0_ITLB_load_MPKI 0
Core_0_ITLB_load_miss_rate 0
Core_0_ITLB_rfo_access 0
Core_0_ITLB_rfo_hit 0
Core_0_ITLB_rfo_miss 0
Core_0_ITLB_rfo_MPKI 0
Core_0_ITLB_rfo_miss_rate 0
Core_0_ITLB_prefetch_access 0
Core_0_ITLB_prefetch_hit 0
Core_0_ITLB_prefetch_miss 0
Core_0_ITLB_prefetch_MPKI 0
Core_0_ITLB_prefetch_miss_rate 0
Core_0_ITLB_writeback_access 0
Core_0_ITLB_writeback_hit 0
Core_0_ITLB_writeback_miss 0
Core_0_ITLB_writeback_MPKI 0
Core_0_ITLB_writeback_miss_rate 0
Core_0_ITLB_prefetch_requested 0
Core_0_ITLB_prefetch_issued 0
Core_0_ITLB_prefetch_useful 0
Core_0_ITLB_prefetch_useless 0
Core_0_ITLB_prefetch_late 0
Core_0_ITLB_prefetch_accuracy 0
Core_0_ITLB_prefetch_coverage 0

Core_0_DTLB_total_access 13802841
Core_0_DTLB_total_hit 13707021
Core_0_DTLB_total_miss 95820
Core_0_DTLB_total_MPKI 1.9164
Core_0_DTLB_total_miss_rate 0.00694205
Core_0_DTLB_demand_access 13802841
Core_0_DTLB_demand_hit 13707021
Core_0_DTLB_demand_miss 95820
Core_0_DTLB_demand_MPKI 1.9164
Core_0_DTLB_demand_miss_rate 0.00694205
Core_0_DTLB_load_access 13802841
Core_0_DTLB_load_hit 13707021
Core_0_DTLB_load_miss 95820
Core_0_DTLB_load_MPKI 1.9164
Core_0_DTLB_load_miss_rate 0.00694205
Core_0_DTLB_rfo_access 0
Core_0_DTLB_rfo_hit 0
Core_0_DTLB_rfo_miss 0
Core_0_DTLB_rfo_MPKI 0
Core_0_DTLB_rfo_miss_rate 0
Core_0_DTLB_prefetch_access 0
Core_0_DTLB_prefetch_hit 0
Core_0_DTLB_prefetch_miss 0
Core_0_DTLB_prefetch_MPKI 0
Core_0_DTLB_prefetch_miss_rate 0
Core_0_DTLB_writeback_access 0
Core_0_DTLB_writeback_hit 0
Core_0_DTLB_writeback_miss 0
Core_0_DTLB_writeback_MPKI 0
Core_0_DTLB_writeback_miss_rate 0
Core_0_DTLB_prefetch_requested 0
Core_0_DTLB_prefetch_issued 0
Core_0_DTLB_prefetch_useful 0
Core_0_DTLB_prefetch_useless 0
Core_0_DTLB_prefetch_late 0
Core_0_DTLB_prefetch_accuracy 0
Core_0_DTLB_prefetch_coverage 0

Core_0_STLB_total_access 74149
Core_0_STLB_total_hit 56266
Core_0_STLB_total_miss 17883
Core_0_STLB_total_MPKI 0.35766
Core_0_STLB_total_miss_rate 0.241177
Core_0_STLB_demand_access 74149
Core_0_STLB_demand_hit 56266
Core_0_STLB_demand_miss 17883
Core_0_STLB_demand_MPKI 0.35766
Core_0_STLB_demand_miss_rate 0.241177
Core_0_STLB_load_access 74149
Core_0_STLB_load_hit 56266
Core_0_STLB_load_miss 17883
Core_0_STLB_load_MPKI 0.35766
Core_0_STLB_load_miss_rate 0.241177
Core_0_STLB_rfo_access 0
Core_0_STLB_rfo_hit 0
Core_0_STLB_rfo_miss 0
Core_0_STLB_rfo_MPKI 0
Core_0_STLB_rfo_miss_rate 0
Core_0_STLB_prefetch_access 0
Core_0_STLB_prefetch_hit 0
Core_0_STLB_prefetch_miss 0
Core_0_STLB_prefetch_MPKI 0
Core_0_STLB_prefetch_miss_rate 0
Core_0_STLB_writeback_access 0
Core_0_STLB_writeback_hit 0
Core_0_STLB_writeback_miss 0
Core_0_STLB_writeback_MPKI 0
Core_0_STLB_writeback_miss_rate 0
Core_0_STLB_prefetch_requested 0
Core_0_STLB_prefetch_issued 0
Core_0_STLB_prefetch_useful 0
Core_0_STLB_prefetch_useless 0
Core_0_STLB_prefetch_late 0
Core_0_STLB_prefetch_accuracy 0
Core_0_STLB_prefetch_coverage 0

Core_0_L1I_total_access 64043
Core_0_L1I_total_hit 64026
Core_0_L1I_total_miss 17
Core_0_L1I_total_MPKI 0.00034
Core_0_L1I_total_miss_rate 0.000265447
Core_0_L1I_demand_access 64043
Core_0_L1I_demand_hit 64026
Core_0_L1I_demand_miss 17
Core_0_L1I_demand_MPKI 0.00034
Core_0_L1I_demand_miss_rate 0.000265447
Core_0_L1I_load_access 64043
Core_0_L1I_load_hit 64026
Core_0_L1I_load_miss 17
Core_0_L1I_load_MPKI 0.00034
Core_0_L1I_load_miss_rate 0.000265447
Core_0_L1I_rfo_access 0
Core_0_L1I_rfo_hit 0
Core_0_L1I_rfo_miss 0
Core_0_L1I_rfo_MPKI 0
Core_0_L1I_rfo_miss_rate 0
Core_0_L1I_prefetch_access 0
Core_0_L1I_prefetch_hit 0
Core_0_L1I_prefetch_miss 0
Core_0_L1I_prefetch_MPKI 0
Core_0_L1I_prefetch_miss_rate 0
Core_0_L1I_writeback_access 0
Core_0_L1I_writeback_hit 0
Core_0_L1I_writeback_miss 0
Core_0_L1I_writeback_MPKI 0
Core_0_L1I_writeback_miss_rate 0
Core_0_L1I_prefetch_requested 0
Core_0_L1I_prefetch_issued 0
Core_0_L1I_prefetch_useful 0
Core_0_L1I_prefetch_useless 0
Core_0_L1I_prefetch_late 0
Core_0_L1I_prefetch_accuracy 0
Core_0_L1I_prefetch_coverage 0

Core_0_L1D_total_access 14309234
Core_0_L1D_total_hit 14244489
Core_0_L1D_total_miss 64745
Core_0_L1D_total_MPKI 1.2949
Core_0_L1D_total_miss_rate 0.0045247
Core_0_L1D_demand_access 9674358
Core_0_L1D_demand_hit 9641384
Core_0_L1D_demand_miss 32974
Core_0_L1D_demand_MPKI 0.65948
Core_0_L1D_demand_miss_rate 0.00340839
Core_0_L1D_load_access 9674358
Core_0_L1D_load_hit 9641384
Core_0_L1D_load_miss 32974
Core_0_L1D_load_MPKI 0.65948
Core_0_L1D_load_miss_rate 0.00340839
Core_0_L1D_rfo_access 0
Core_0_L1D_rfo_hit 0
Core_0_L1D_rfo_miss 0
Core_0_L1D_rfo_MPKI 0
Core_0_L1D_rfo_miss_rate 0
Core_0_L1D_prefetch_access 0
Core_0_L1D_prefetch_hit 0
Core_0_L1D_prefetch_miss 0
Core_0_L1D_prefetch_MPKI 0
Core_0_L1D_prefetch_miss_rate 0
Core_0_L1D_writeback_access 4634876
Core_0_L1D_writeback_hit 4603105
Core_0_L1D_writeback_miss 31771
Core_0_L1D_writeback_MPKI 0.63542
Core_0_L1D_writeback_miss_rate 0.00685477
Core_0_L1D_prefetch_requested 0
Core_0_L1D_prefetch_issued 0
Core_0_L1D_prefetch_useful 0
Core_0_L1D_prefetch_useless 0
Core_0_L1D_prefetch_late 0
Core_0_L1D_prefetch_accuracy 0
Core_0_L1D_prefetch_coverage 0

Core_0_L2C_total_access 68918
Core_0_L2C_total_hit 46839
Core_0_L2C_total_miss 22079
Core_0_L2C_total_MPKI 0.44158
Core_0_L2C_total_miss_rate 0.320366
Core_0_L2C_demand_access 41735
Core_0_L2C_demand_hit 19754
Core_0_L2C_demand_miss 21981
Core_0_L2C_demand_MPKI 0.43962
Core_0_L2C_demand_miss_rate 0.52668
Core_0_L2C_load_access 31430
Core_0_L2C_load_hit 11301
Core_0_L2C_load_miss 20129
Core_0_L2C_load_MPKI 0.40258
Core_0_L2C_load_miss_rate 0.640439
Core_0_L2C_rfo_access 10305
Core_0_L2C_rfo_hit 8453
Core_0_L2C_rfo_miss 1852
Core_0_L2C_rfo_MPKI 0.03704
Core_0_L2C_rfo_miss_rate 0.179719
Core_0_L2C_prefetch_access 0
Core_0_L2C_prefetch_hit 0
Core_0_L2C_prefetch_miss 0
Core_0_L2C_prefetch_MPKI 0
Core_0_L2C_prefetch_miss_rate 0
Core_0_L2C_writeback_access 27183
Core_0_L2C_writeback_hit 27085
Core_0_L2C_writeback_miss 98
Core_0_L2C_writeback_MPKI 0.00196
Core_0_L2C_writeback_miss_rate 0.00360519
Core_0_L2C_prefetch_requested 0
Core_0_L2C_prefetch_issued 0
Core_0_L2C_prefetch_useful 0
Core_0_L2C_prefetch_useless 0
Core_0_L2C_prefetch_late 0
Core_0_L2C_prefetch_accuracy 0
Core_0_L2C_prefetch_coverage 0

Core_0_LLC_total_access 38635
Core_0_LLC_total_hit 17250
Core_0_LLC_total_miss 21385
Core_0_LLC_total_MPKI 0.4277
Core_0_LLC_total_miss_rate 0.553514
Core_0_LLC_demand_access 21981
Core_0_LLC_demand_hit 1697
Core_0_LLC_demand_miss 20284
Core_0_LLC_demand_MPKI 0.40568
Core_0_LLC_demand_miss_rate 0.922797
Core_0_LLC_load_access 20129
Core_0_LLC_load_hit 1266
Core_0_LLC_load_miss 18863
Core_0_LLC_load_MPKI 0.37726
Core_0_LLC_load_miss_rate 0.937106
Core_0_LLC_rfo_access 1852
Core_0_LLC_rfo_hit 431
Core_0_LLC_rfo_miss 1421
Core_0_LLC_rfo_MPKI 0.02842
Core_0_LLC_rfo_miss_rate 0.767279
Core_0_LLC_prefetch_access 0
Core_0_LLC_prefetch_hit 0
Core_0_LLC_prefetch_miss 0
Core_0_LLC_prefetch_MPKI 0
Core_0_LLC_prefetch_miss_rate 0
Core_0_LLC_writeback_access 16654
Core_0_LLC_writeback_hit 15553
Core_0_LLC_writeback_miss 1101
Core_0_LLC_writeback_MPKI 0.02202
Core_0_LLC_writeback_miss_rate 0.0661102
Core_0_LLC_prefetch_requested 0
Core_0_LLC_prefetch_issued 0
Core_0_LLC_prefetch_useful 0
Core_0_LLC_prefetch_useless 0
Core_0_LLC_prefetch_late 0
Core_0_LLC_prefetch_accuracy 0
Core_0_LLC_prefetch_coverage 0

[DRAM Statistics]
Channel_0_RQ_row_buffer_hit 5
Channel_0_RQ_row_buffer_miss 22614
Channel_0_WQ_row_buffer_hit 70
Channel_0_WQ_row_buffer_miss 678
Channel_0_WQ_full 0
Channel_0_dbus_congested 11161
DRAM_total_RQ_row_buffer_hit 5
DRAM_total_RQ_row_buffer_miss 22614
DRAM_total_WQ_row_buffer_hit 70
DRAM_total_WQ_row_buffer_miss 678
DRAM_total_WQ_full 0
DRAM_total_dbus_congested 11161
DRAM_avg_congested_cycle 7.9647

======STLB miss causes ========
Core_0_STLB_miss_cause_breakdown
Core_0_STLB_cause_Demand_Data_miss 17883
Core_0_STLB_cause_Demand_Data_miss_rate 0.241177
Core_0_STLB_cause_Demand_Instruction_miss 0
Core_0_STLB_cause_Demand_Instruction_miss_rate 0
Core_0_STLB_cause_L1D_Prefetch_miss 0
Core_0_STLB_cause_L1D_Prefetch_miss_rate 0
Core_0_STLB_cause_L1I_Prefetch_miss 0
Core_0_STLB_cause_L1I_Prefetch_miss_rate 0
Core_0_STLB_cause_Other_miss 0
Core_0_STLB_cause_Other_miss_rate 0
Core_0_STLB_Demand_miss 17883
Core_0_STLB_Demand_miss_rate 0.241177
Core_0_STLB_L1D_Prefetch_miss 0
Core_0_STLB_L1D_Prefetch_miss_rate 0
Core_0_STLB_Other_miss 0
Core_0_STLB_Other_miss_rate 0
