[VMEM] WARNING: physical memory size is smaller than virtual memory size.

*** ChampSim Multicore Out-of-Order Simulator ***
Warmup Instructions: 20000000
Simulation Instructions: 50000000
Number of CPUs: 1
Page size: 4096
Core 0: /data0/tzh/champsim_traces/SPEC06/464.h264ref-97B.champsimtrace.xz
Off-chip DRAM Size: 4 GiB Channels: 1 Width: 64-bit Data Rate: 3205 MT/s
Warmup halting CPU 0 at instruction 20000001 cycle 4800353 for remainder of phase
Warmup finished CPU 0 instructions: 20000001 cycles: 4800353 cumulative IPC: 4.166 (Simulation time: 00 hr 00 min 58 sec)
Warmup complete CPU 0 instructions: 20000001 cycles: 4800353 cumulative IPC: 4.166 (Simulation time: 00 hr 00 min 58 sec)
Simulation finished CPU 0 instructions: 50000005 cycles: 19888126 cumulative IPC: 2.514 (Simulation time: 00 hr 03 min 59 sec)
Simulation complete CPU 0 instructions: 50000005 cycles: 19888126 cumulative IPC: 2.514 (Simulation time: 00 hr 03 min 59 sec)

ChampSim completed all CPUs

=== Simulation ===
CPU 0 runs /data0/tzh/champsim_traces/SPEC06/464.h264ref-97B.champsimtrace.xz

Region of Interest Statistics

CPU 0 cumulative IPC: 2.514 instructions: 50000005 cycles: 19888126
CPU 0 Branch Prediction Accuracy: 95.58% MPKI: 4.525 Average ROB Occupancy at Mispredict: 127.6
Branch type MPKI
BRANCH_DIRECT_JUMP: 0.02238
BRANCH_INDIRECT: 0.00254
BRANCH_CONDITIONAL: 4.319
BRANCH_DIRECT_CALL: 0.1756
BRANCH_INDIRECT_CALL: 0.0013
BRANCH_RETURN: 0.00426

cpu0->cpu0_STLB TOTAL        ACCESS:      14313 HIT:      14038 MISS:        275 MSHR_MERGE:          0
cpu0->cpu0_STLB LOAD         ACCESS:      14313 HIT:      14038 MISS:        275 MSHR_MERGE:          0
cpu0->cpu0_STLB RFO          ACCESS:          0 HIT:          0 MISS:          0 MSHR_MERGE:          0
cpu0->cpu0_STLB PREFETCH     ACCESS:          0 HIT:          0 MISS:          0 MSHR_MERGE:          0
cpu0->cpu0_STLB WRITE        ACCESS:          0 HIT:          0 MISS:          0 MSHR_MERGE:          0
cpu0->cpu0_STLB TRANSLATION  ACCESS:          0 HIT:          0 MISS:          0 MSHR_MERGE:          0
cpu0->cpu0_STLB PREFETCH REQUESTED:          0 ISSUED:          0 USEFUL:          0 USELESS:          0 LATE:          0
cpu0->cpu0_STLB AVERAGE MISS LATENCY: 230.5 cycles
cpu0->cpu0_L2C TOTAL        ACCESS:     184284 HIT:      97997 MISS:      86287 MSHR_MERGE:          0
cpu0->cpu0_L2C LOAD         ACCESS:     108460 HIT:      56179 MISS:      52281 MSHR_MERGE:          0
cpu0->cpu0_L2C RFO          ACCESS:      37504 HIT:       3708 MISS:      33796 MSHR_MERGE:          0
cpu0->cpu0_L2C PREFETCH     ACCESS:          0 HIT:          0 MISS:          0 MSHR_MERGE:          0
cpu0->cpu0_L2C WRITE        ACCESS:      38155 HIT:      38075 MISS:         80 MSHR_MERGE:          0
cpu0->cpu0_L2C TRANSLATION  ACCESS:        165 HIT:         35 MISS:        130 MSHR_MERGE:          0
cpu0->cpu0_L2C PREFETCH REQUESTED:          0 ISSUED:          0 USEFUL:          0 USELESS:          0 LATE:          0
cpu0->cpu0_L2C AVERAGE MISS LATENCY: 66.01 cycles
cpu0->cpu0_L1I TOTAL        ACCESS:    1117328 HIT:    1113630 MISS:       3698 MSHR_MERGE:       1374
cpu0->cpu0_L1I LOAD         ACCESS:    1117328 HIT:    1113630 MISS:       3698 MSHR_MERGE:       1374
cpu0->cpu0_L1I RFO          ACCESS:          0 HIT:          0 MISS:          0 MSHR_MERGE:          0
cpu0->cpu0_L1I PREFETCH     ACCESS:          0 HIT:          0 MISS:          0 MSHR_MERGE:          0
cpu0->cpu0_L1I WRITE        ACCESS:          0 HIT:          0 MISS:          0 MSHR_MERGE:          0
cpu0->cpu0_L1I TRANSLATION  ACCESS:          0 HIT:          0 MISS:          0 MSHR_MERGE:          0
cpu0->cpu0_L1I PREFETCH REQUESTED:          0 ISSUED:          0 USEFUL:          0 USELESS:          0 LATE:          0
cpu0->cpu0_L1I AVERAGE MISS LATENCY: 139.7 cycles
cpu0->cpu0_L1D TOTAL        ACCESS:   14158453 HIT:   13378030 MISS:     780423 MSHR_MERGE:     636618
cpu0->cpu0_L1D LOAD         ACCESS:   10700797 HIT:   10198223 MISS:     502574 MSHR_MERGE:     396438
cpu0->cpu0_L1D RFO          ACCESS:          0 HIT:          0 MISS:          0 MSHR_MERGE:          0
cpu0->cpu0_L1D PREFETCH     ACCESS:          0 HIT:          0 MISS:          0 MSHR_MERGE:          0
cpu0->cpu0_L1D WRITE        ACCESS:    3457112 HIT:    3179433 MISS:     277679 MSHR_MERGE:     240175
cpu0->cpu0_L1D TRANSLATION  ACCESS:        544 HIT:        374 MISS:        170 MSHR_MERGE:          5
cpu0->cpu0_L1D PREFETCH REQUESTED:          0 ISSUED:          0 USEFUL:          0 USELESS:          0 LATE:          0
cpu0->cpu0_L1D AVERAGE MISS LATENCY: 46.08 cycles
cpu0->cpu0_ITLB TOTAL        ACCESS:    1057968 HIT:    1057879 MISS:         89 MSHR_MERGE:         55
cpu0->cpu0_ITLB LOAD         ACCESS:    1057968 HIT:    1057879 MISS:         89 MSHR_MERGE:         55
cpu0->cpu0_ITLB RFO          ACCESS:          0 HIT:          0 MISS:          0 MSHR_MERGE:          0
cpu0->cpu0_ITLB PREFETCH     ACCESS:          0 HIT:          0 MISS:          0 MSHR_MERGE:          0
cpu0->cpu0_ITLB WRITE        ACCESS:          0 HIT:          0 MISS:          0 MSHR_MERGE:          0
cpu0->cpu0_ITLB TRANSLATION  ACCESS:          0 HIT:          0 MISS:          0 MSHR_MERGE:          0
cpu0->cpu0_ITLB PREFETCH REQUESTED:          0 ISSUED:          0 USEFUL:          0 USELESS:          0 LATE:          0
cpu0->cpu0_ITLB AVERAGE MISS LATENCY: 186.3 cycles
cpu0->cpu0_DTLB TOTAL        ACCESS:   13618780 HIT:   13595587 MISS:      23193 MSHR_MERGE:       8914
cpu0->cpu0_DTLB LOAD         ACCESS:   13618780 HIT:   13595587 MISS:      23193 MSHR_MERGE:       8914
cpu0->cpu0_DTLB RFO          ACCESS:          0 HIT:          0 MISS:          0 MSHR_MERGE:          0
cpu0->cpu0_DTLB PREFETCH     ACCESS:          0 HIT:          0 MISS:          0 MSHR_MERGE:          0
cpu0->cpu0_DTLB WRITE        ACCESS:          0 HIT:          0 MISS:          0 MSHR_MERGE:          0
cpu0->cpu0_DTLB TRANSLATION  ACCESS:          0 HIT:          0 MISS:          0 MSHR_MERGE:          0
cpu0->cpu0_DTLB PREFETCH REQUESTED:          0 ISSUED:          0 USEFUL:          0 USELESS:          0 LATE:          0
cpu0->cpu0_DTLB AVERAGE MISS LATENCY: 9.028 cycles
cpu0->LLC TOTAL        ACCESS:     117313 HIT:      84364 MISS:      32949 MSHR_MERGE:          0
cpu0->LLC LOAD         ACCESS:      52281 HIT:      34581 MISS:      17700 MSHR_MERGE:          0
cpu0->LLC RFO          ACCESS:      33796 HIT:      24353 MISS:       9443 MSHR_MERGE:          0
cpu0->LLC PREFETCH     ACCESS:          0 HIT:          0 MISS:          0 MSHR_MERGE:          0
cpu0->LLC WRITE        ACCESS:      31106 HIT:      25355 MISS:       5751 MSHR_MERGE:          0
cpu0->LLC TRANSLATION  ACCESS:        130 HIT:         75 MISS:         55 MSHR_MERGE:          0
cpu0->LLC PREFETCH REQUESTED:          0 ISSUED:          0 USEFUL:          0 USELESS:          0 LATE:          0
cpu0->LLC AVERAGE MISS LATENCY: 134.3 cycles

DRAM Statistics

Channel 0 RQ ROW_BUFFER_HIT:       2417
  ROW_BUFFER_MISS:      24777
  AVG DBUS CONGESTED CYCLE: 16.82
Channel 0 WQ ROW_BUFFER_HIT:        800
  ROW_BUFFER_MISS:       5783
  FULL:          0
Channel 0 REFRESHES ISSUED:       1657

[ROI Statistics]
[System Configuration]
num_cpus 1
cpu_freq 4000
fetch_width 6
decode_width 6
dispatch_width 6
execute_width 6
lq_width 2
sq_width 2
retire_width 6
scheduler_size 160
branch_mispredict_penalty 1
rob_size 352
lq_size 240
sq_size 112
ifetch_buffer_size 64
decode_buffer_size 32
dispatch_buffer_size 32
register_file_size 288
decode_latency 1
dispatch_latency 1
schedule_latency 0
execute_latency 0
page_size 4096
block_size 64
core_0_itlb_set 16
core_0_itlb_way 4
core_0_itlb_rq_size 16
core_0_itlb_wq_size 16
core_0_itlb_pq_size 0
core_0_itlb_mshr_size 8
core_0_itlb_hit_latency 1
core_0_itlb_fill_latency 1
core_0_itlb_max_tag_check 2
core_0_itlb_max_fill 2
core_0_dtlb_set 16
core_0_dtlb_way 4
core_0_dtlb_rq_size 16
core_0_dtlb_wq_size 16
core_0_dtlb_pq_size 0
core_0_dtlb_mshr_size 8
core_0_dtlb_hit_latency 1
core_0_dtlb_fill_latency 1
core_0_dtlb_max_tag_check 2
core_0_dtlb_max_fill 2
core_0_stlb_set 128
core_0_stlb_way 12
core_0_stlb_rq_size 32
core_0_stlb_wq_size 32
core_0_stlb_pq_size 0
core_0_stlb_mshr_size 16
core_0_stlb_hit_latency 4
core_0_stlb_fill_latency 4
core_0_stlb_max_tag_check 1
core_0_stlb_max_fill 1
core_0_l1i_set 64
core_0_l1i_way 8
core_0_l1i_rq_size 64
core_0_l1i_wq_size 64
core_0_l1i_pq_size 32
core_0_l1i_mshr_size 8
core_0_l1i_hit_latency 2
core_0_l1i_fill_latency 2
core_0_l1i_max_tag_check 2
core_0_l1i_max_fill 2
core_0_l1d_set 64
core_0_l1d_way 12
core_0_l1d_rq_size 64
core_0_l1d_wq_size 64
core_0_l1d_pq_size 8
core_0_l1d_mshr_size 16
core_0_l1d_hit_latency 2
core_0_l1d_fill_latency 3
core_0_l1d_max_tag_check 2
core_0_l1d_max_fill 2
core_0_l2c_set 1024
core_0_l2c_way 8
core_0_l2c_rq_size 32
core_0_l2c_wq_size 32
core_0_l2c_pq_size 16
core_0_l2c_mshr_size 32
core_0_l2c_hit_latency 5
core_0_l2c_fill_latency 5
core_0_l2c_max_tag_check 1
core_0_l2c_max_fill 1
llc_set 2048
llc_way 16
llc_rq_size 32
llc_wq_size 32
llc_pq_size 32
llc_mshr_size 64
llc_hit_latency 10
llc_fill_latency 10
llc_max_tag_check 1
llc_max_fill 1
dram_channels 1
dram_ranks 1
dram_bankgroups 8
dram_banks 4
dram_rows 16384
dram_columns 1024
dram_channel_width 8
dram_rq_size 64
dram_wq_size 64
dram_size 4294967296
core_0_itlb_prefetcher no
core_0_dtlb_prefetcher no
core_0_stlb_prefetcher no
core_0_l1i_prefetcher no
core_0_l1d_prefetcher no
core_0_l2c_prefetcher no
llc_prefetcher no
llc_replacement drrip

Core_0_instructions 50000005
Core_0_cycles 19888126
Core_0_IPC 2.51406
Core_0_branch_prediction_accuracy 95.5789
Core_0_branch_MPKI 4.52462
Core_0_average_ROB_occupancy_at_mispredict 127.594

Core_0_ITLB_total_access 1057968
Core_0_ITLB_total_hit 1057879
Core_0_ITLB_total_miss 89
Core_0_ITLB_total_MPKI 0.00178
Core_0_ITLB_total_miss_rate 8.41235e-05
Core_0_ITLB_demand_access 1057968
Core_0_ITLB_demand_hit 1057879
Core_0_ITLB_demand_miss 89
Core_0_ITLB_demand_MPKI 0.00178
Core_0_ITLB_demand_miss_rate 8.41235e-05
Core_0_ITLB_load_access 1057968
Core_0_ITLB_load_hit 1057879
Core_0_ITLB_load_miss 89
Core_0_ITLB_load_MPKI 0.00178
Core_0_ITLB_load_miss_rate 8.41235e-05
Core_0_ITLB_rfo_access 0
Core_0_ITLB_rfo_hit 0
Core_0_ITLB_rfo_miss 0
Core_0_ITLB_rfo_MPKI 0
Core_0_ITLB_rfo_miss_rate 0
Core_0_ITLB_prefetch_access 0
Core_0_ITLB_prefetch_hit 0
Core_0_ITLB_prefetch_miss 0
Core_0_ITLB_prefetch_MPKI 0
Core_0_ITLB_prefetch_miss_rate 0
Core_0_ITLB_writeback_access 0
Core_0_ITLB_writeback_hit 0
Core_0_ITLB_writeback_miss 0
Core_0_ITLB_writeback_MPKI 0
Core_0_ITLB_writeback_miss_rate 0
Core_0_ITLB_prefetch_requested 0
Core_0_ITLB_prefetch_issued 0
Core_0_ITLB_prefetch_useful 0
Core_0_ITLB_prefetch_useless 0
Core_0_ITLB_prefetch_late 0
Core_0_ITLB_prefetch_accuracy 0
Core_0_ITLB_prefetch_coverage 0

Core_0_DTLB_total_access 13618780
Core_0_DTLB_total_hit 13595587
Core_0_DTLB_total_miss 23193
Core_0_DTLB_total_MPKI 0.46386
Core_0_DTLB_total_miss_rate 0.00170302
Core_0_DTLB_demand_access 13618780
Core_0_DTLB_demand_hit 13595587
Core_0_DTLB_demand_miss 23193
Core_0_DTLB_demand_MPKI 0.46386
Core_0_DTLB_demand_miss_rate 0.00170302
Core_0_DTLB_load_access 13618780
Core_0_DTLB_load_hit 13595587
Core_0_DTLB_load_miss 23193
Core_0_DTLB_load_MPKI 0.46386
Core_0_DTLB_load_miss_rate 0.00170302
Core_0_DTLB_rfo_access 0
Core_0_DTLB_rfo_hit 0
Core_0_DTLB_rfo_miss 0
Core_0_DTLB_rfo_MPKI 0
Core_0_DTLB_rfo_miss_rate 0
Core_0_DTLB_prefetch_access 0
Core_0_DTLB_prefetch_hit 0
Core_0_DTLB_prefetch_miss 0
Core_0_DTLB_prefetch_MPKI 0
Core_0_DTLB_prefetch_miss_rate 0
Core_0_DTLB_writeback_access 0
Core_0_DTLB_writeback_hit 0
Core_0_DTLB_writeback_miss 0
Core_0_DTLB_writeback_MPKI 0
Core_0_DTLB_writeback_miss_rate 0
Core_0_DTLB_prefetch_requested 0
Core_0_DTLB_prefetch_issued 0
Core_0_DTLB_prefetch_useful 0
Core_0_DTLB_prefetch_useless 0
Core_0_DTLB_prefetch_late 0
Core_0_DTLB_prefetch_accuracy 0
Core_0_DTLB_prefetch_coverage 0

Core_0_STLB_total_access 14313
Core_0_STLB_total_hit 14038
Core_0_STLB_total_miss 275
Core_0_STLB_total_MPKI 0.0055
Core_0_STLB_total_miss_rate 0.0192133
Core_0_STLB_demand_access 14313
Core_0_STLB_demand_hit 14038
Core_0_STLB_demand_miss 275
Core_0_STLB_demand_MPKI 0.0055
Core_0_STLB_demand_miss_rate 0.0192133
Core_0_STLB_load_access 14313
Core_0_STLB_load_hit 14038
Core_0_STLB_load_miss 275
Core_0_STLB_load_MPKI 0.0055
Core_0_STLB_load_miss_rate 0.0192133
Core_0_STLB_rfo_access 0
Core_0_STLB_rfo_hit 0
Core_0_STLB_rfo_miss 0
Core_0_STLB_rfo_MPKI 0
Core_0_STLB_rfo_miss_rate 0
Core_0_STLB_prefetch_access 0
Core_0_STLB_prefetch_hit 0
Core_0_STLB_prefetch_miss 0
Core_0_STLB_prefetch_MPKI 0
Core_0_STLB_prefetch_miss_rate 0
Core_0_STLB_writeback_access 0
Core_0_STLB_writeback_hit 0
Core_0_STLB_writeback_miss 0
Core_0_STLB_writeback_MPKI 0
Core_0_STLB_writeback_miss_rate 0
Core_0_STLB_prefetch_requested 0
Core_0_STLB_prefetch_issued 0
Core_0_STLB_prefetch_useful 0
Core_0_STLB_prefetch_useless 0
Core_0_STLB_prefetch_late 0
Core_0_STLB_prefetch_accuracy 0
Core_0_STLB_prefetch_coverage 0

Core_0_L1I_total_access 1117328
Core_0_L1I_total_hit 1113630
Core_0_L1I_total_miss 3698
Core_0_L1I_total_MPKI 0.07396
Core_0_L1I_total_miss_rate 0.00330968
Core_0_L1I_demand_access 1117328
Core_0_L1I_demand_hit 1113630
Core_0_L1I_demand_miss 3698
Core_0_L1I_demand_MPKI 0.07396
Core_0_L1I_demand_miss_rate 0.00330968
Core_0_L1I_load_access 1117328
Core_0_L1I_load_hit 1113630
Core_0_L1I_load_miss 3698
Core_0_L1I_load_MPKI 0.07396
Core_0_L1I_load_miss_rate 0.00330968
Core_0_L1I_rfo_access 0
Core_0_L1I_rfo_hit 0
Core_0_L1I_rfo_miss 0
Core_0_L1I_rfo_MPKI 0
Core_0_L1I_rfo_miss_rate 0
Core_0_L1I_prefetch_access 0
Core_0_L1I_prefetch_hit 0
Core_0_L1I_prefetch_miss 0
Core_0_L1I_prefetch_MPKI 0
Core_0_L1I_prefetch_miss_rate 0
Core_0_L1I_writeback_access 0
Core_0_L1I_writeback_hit 0
Core_0_L1I_writeback_miss 0
Core_0_L1I_writeback_MPKI 0
Core_0_L1I_writeback_miss_rate 0
Core_0_L1I_prefetch_requested 0
Core_0_L1I_prefetch_issued 0
Core_0_L1I_prefetch_useful 0
Core_0_L1I_prefetch_useless 0
Core_0_L1I_prefetch_late 0
Core_0_L1I_prefetch_accuracy 0
Core_0_L1I_prefetch_coverage 0

Core_0_L1D_total_access 14157909
Core_0_L1D_total_hit 13377656
Core_0_L1D_total_miss 780253
Core_0_L1D_total_MPKI 15.6051
Core_0_L1D_total_miss_rate 0.0551108
Core_0_L1D_demand_access 10700797
Core_0_L1D_demand_hit 10198223
Core_0_L1D_demand_miss 502574
Core_0_L1D_demand_MPKI 10.0515
Core_0_L1D_demand_miss_rate 0.046966
Core_0_L1D_load_access 10700797
Core_0_L1D_load_hit 10198223
Core_0_L1D_load_miss 502574
Core_0_L1D_load_MPKI 10.0515
Core_0_L1D_load_miss_rate 0.046966
Core_0_L1D_rfo_access 0
Core_0_L1D_rfo_hit 0
Core_0_L1D_rfo_miss 0
Core_0_L1D_rfo_MPKI 0
Core_0_L1D_rfo_miss_rate 0
Core_0_L1D_prefetch_access 0
Core_0_L1D_prefetch_hit 0
Core_0_L1D_prefetch_miss 0
Core_0_L1D_prefetch_MPKI 0
Core_0_L1D_prefetch_miss_rate 0
Core_0_L1D_writeback_access 3457112
Core_0_L1D_writeback_hit 3179433
Core_0_L1D_writeback_miss 277679
Core_0_L1D_writeback_MPKI 5.55358
Core_0_L1D_writeback_miss_rate 0.0803211
Core_0_L1D_prefetch_requested 0
Core_0_L1D_prefetch_issued 0
Core_0_L1D_prefetch_useful 0
Core_0_L1D_prefetch_useless 0
Core_0_L1D_prefetch_late 0
Core_0_L1D_prefetch_accuracy 0
Core_0_L1D_prefetch_coverage 0

Core_0_L2C_total_access 184119
Core_0_L2C_total_hit 97962
Core_0_L2C_total_miss 86157
Core_0_L2C_total_MPKI 1.72314
Core_0_L2C_total_miss_rate 0.467942
Core_0_L2C_demand_access 145964
Core_0_L2C_demand_hit 59887
Core_0_L2C_demand_miss 86077
Core_0_L2C_demand_MPKI 1.72154
Core_0_L2C_demand_miss_rate 0.589714
Core_0_L2C_load_access 108460
Core_0_L2C_load_hit 56179
Core_0_L2C_load_miss 52281
Core_0_L2C_load_MPKI 1.04562
Core_0_L2C_load_miss_rate 0.48203
Core_0_L2C_rfo_access 37504
Core_0_L2C_rfo_hit 3708
Core_0_L2C_rfo_miss 33796
Core_0_L2C_rfo_MPKI 0.67592
Core_0_L2C_rfo_miss_rate 0.901131
Core_0_L2C_prefetch_access 0
Core_0_L2C_prefetch_hit 0
Core_0_L2C_prefetch_miss 0
Core_0_L2C_prefetch_MPKI 0
Core_0_L2C_prefetch_miss_rate 0
Core_0_L2C_writeback_access 38155
Core_0_L2C_writeback_hit 38075
Core_0_L2C_writeback_miss 80
Core_0_L2C_writeback_MPKI 0.0016
Core_0_L2C_writeback_miss_rate 0.00209671
Core_0_L2C_prefetch_requested 0
Core_0_L2C_prefetch_issued 0
Core_0_L2C_prefetch_useful 0
Core_0_L2C_prefetch_useless 0
Core_0_L2C_prefetch_late 0
Core_0_L2C_prefetch_accuracy 0
Core_0_L2C_prefetch_coverage 0

Core_0_LLC_total_access 117183
Core_0_LLC_total_hit 84289
Core_0_LLC_total_miss 32894
Core_0_LLC_total_MPKI 0.65788
Core_0_LLC_total_miss_rate 0.280706
Core_0_LLC_demand_access 86077
Core_0_LLC_demand_hit 58934
Core_0_LLC_demand_miss 27143
Core_0_LLC_demand_MPKI 0.54286
Core_0_LLC_demand_miss_rate 0.315334
Core_0_LLC_load_access 52281
Core_0_LLC_load_hit 34581
Core_0_LLC_load_miss 17700
Core_0_LLC_load_MPKI 0.354
Core_0_LLC_load_miss_rate 0.338555
Core_0_LLC_rfo_access 33796
Core_0_LLC_rfo_hit 24353
Core_0_LLC_rfo_miss 9443
Core_0_LLC_rfo_MPKI 0.18886
Core_0_LLC_rfo_miss_rate 0.279412
Core_0_LLC_prefetch_access 0
Core_0_LLC_prefetch_hit 0
Core_0_LLC_prefetch_miss 0
Core_0_LLC_prefetch_MPKI 0
Core_0_LLC_prefetch_miss_rate 0
Core_0_LLC_writeback_access 31106
Core_0_LLC_writeback_hit 25355
Core_0_LLC_writeback_miss 5751
Core_0_LLC_writeback_MPKI 0.11502
Core_0_LLC_writeback_miss_rate 0.184884
Core_0_LLC_prefetch_requested 0
Core_0_LLC_prefetch_issued 0
Core_0_LLC_prefetch_useful 0
Core_0_LLC_prefetch_useless 0
Core_0_LLC_prefetch_late 0
Core_0_LLC_prefetch_accuracy 0
Core_0_LLC_prefetch_coverage 0

[DRAM Statistics]
Channel_0_RQ_row_buffer_hit 2417
Channel_0_RQ_row_buffer_miss 24777
Channel_0_WQ_row_buffer_hit 800
Channel_0_WQ_row_buffer_miss 5783
Channel_0_WQ_full 0
Channel_0_dbus_congested 55724
DRAM_total_RQ_row_buffer_hit 2417
DRAM_total_RQ_row_buffer_miss 24777
DRAM_total_WQ_row_buffer_hit 800
DRAM_total_WQ_row_buffer_miss 5783
DRAM_total_WQ_full 0
DRAM_total_dbus_congested 55724
DRAM_avg_congested_cycle 16.8172

======STLB miss causes ========
Core_0_STLB_miss_cause_breakdown
Core_0_STLB_cause_Demand_Data_miss 251
Core_0_STLB_cause_Demand_Data_miss_rate 0.0175365
Core_0_STLB_cause_Demand_Instruction_miss 24
Core_0_STLB_cause_Demand_Instruction_miss_rate 0.0016768
Core_0_STLB_cause_L1D_Prefetch_miss 0
Core_0_STLB_cause_L1D_Prefetch_miss_rate 0
Core_0_STLB_cause_L1I_Prefetch_miss 0
Core_0_STLB_cause_L1I_Prefetch_miss_rate 0
Core_0_STLB_cause_Other_miss 0
Core_0_STLB_cause_Other_miss_rate 0
Core_0_STLB_Demand_miss 275
Core_0_STLB_Demand_miss_rate 0.0192133
Core_0_STLB_L1D_Prefetch_miss 0
Core_0_STLB_L1D_Prefetch_miss_rate 0
Core_0_STLB_Other_miss 0
Core_0_STLB_Other_miss_rate 0
