[VMEM] WARNING: physical memory size is smaller than virtual memory size.

*** ChampSim Multicore Out-of-Order Simulator ***
Warmup Instructions: 20000000
Simulation Instructions: 50000000
Number of CPUs: 1
Page size: 4096
Core 0: /data0/tzh/champsim_traces/SPEC06/473.astar-359B.champsimtrace.xz
Off-chip DRAM Size: 4 GiB Channels: 1 Width: 64-bit Data Rate: 3205 MT/s
Warmup halting CPU 0 at instruction 20000005 cycle 6359703 for remainder of phase
Warmup finished CPU 0 instructions: 20000005 cycles: 6359703 cumulative IPC: 3.145 (Simulation time: 00 hr 01 min 24 sec)
Warmup complete CPU 0 instructions: 20000005 cycles: 6359703 cumulative IPC: 3.145 (Simulation time: 00 hr 01 min 24 sec)
Simulation finished CPU 0 instructions: 50000004 cycles: 246119686 cumulative IPC: 0.2032 (Simulation time: 00 hr 19 min 53 sec)
Simulation complete CPU 0 instructions: 50000004 cycles: 246119686 cumulative IPC: 0.2032 (Simulation time: 00 hr 19 min 53 sec)

ChampSim completed all CPUs

=== Simulation ===
CPU 0 runs /data0/tzh/champsim_traces/SPEC06/473.astar-359B.champsimtrace.xz

Region of Interest Statistics

CPU 0 cumulative IPC: 0.2032 instructions: 50000004 cycles: 246119686
CPU 0 Branch Prediction Accuracy: 91.73% MPKI: 16.32 Average ROB Occupancy at Mispredict: 35.24
Branch type MPKI
BRANCH_DIRECT_JUMP: 0
BRANCH_INDIRECT: 0
BRANCH_CONDITIONAL: 16.32
BRANCH_DIRECT_CALL: 0
BRANCH_INDIRECT_CALL: 0.00054
BRANCH_RETURN: 0

cpu0->cpu0_STLB TOTAL        ACCESS:    1623041 HIT:     823194 MISS:     799847 MSHR_MERGE:          0
cpu0->cpu0_STLB LOAD         ACCESS:    1623041 HIT:     823194 MISS:     799847 MSHR_MERGE:          0
cpu0->cpu0_STLB RFO          ACCESS:          0 HIT:          0 MISS:          0 MSHR_MERGE:          0
cpu0->cpu0_STLB PREFETCH     ACCESS:          0 HIT:          0 MISS:          0 MSHR_MERGE:          0
cpu0->cpu0_STLB WRITE        ACCESS:          0 HIT:          0 MISS:          0 MSHR_MERGE:          0
cpu0->cpu0_STLB TRANSLATION  ACCESS:          0 HIT:          0 MISS:          0 MSHR_MERGE:          0
cpu0->cpu0_STLB PREFETCH REQUESTED:          0 ISSUED:          0 USEFUL:          0 USELESS:          0 LATE:          0
cpu0->cpu0_STLB AVERAGE MISS LATENCY: 151.9 cycles
cpu0->cpu0_L2C TOTAL        ACCESS:    4088588 HIT:    2183629 MISS:    1904959 MSHR_MERGE:          0
cpu0->cpu0_L2C LOAD         ACCESS:    1720516 HIT:     696654 MISS:    1023862 MSHR_MERGE:          0
cpu0->cpu0_L2C RFO          ACCESS:     763967 HIT:      47497 MISS:     716470 MSHR_MERGE:          0
cpu0->cpu0_L2C PREFETCH     ACCESS:          0 HIT:          0 MISS:          0 MSHR_MERGE:          0
cpu0->cpu0_L2C WRITE        ACCESS:    1167357 HIT:    1167319 MISS:         38 MSHR_MERGE:          0
cpu0->cpu0_L2C TRANSLATION  ACCESS:     436748 HIT:     272159 MISS:     164589 MSHR_MERGE:          0
cpu0->cpu0_L2C PREFETCH REQUESTED:          0 ISSUED:          0 USEFUL:          0 USELESS:          0 LATE:          0
cpu0->cpu0_L2C AVERAGE MISS LATENCY: 306.8 cycles
cpu0->cpu0_L1I TOTAL        ACCESS:     703410 HIT:     703403 MISS:          7 MSHR_MERGE:          0
cpu0->cpu0_L1I LOAD         ACCESS:     703410 HIT:     703403 MISS:          7 MSHR_MERGE:          0
cpu0->cpu0_L1I RFO          ACCESS:          0 HIT:          0 MISS:          0 MSHR_MERGE:          0
cpu0->cpu0_L1I PREFETCH     ACCESS:          0 HIT:          0 MISS:          0 MSHR_MERGE:          0
cpu0->cpu0_L1I WRITE        ACCESS:          0 HIT:          0 MISS:          0 MSHR_MERGE:          0
cpu0->cpu0_L1I TRANSLATION  ACCESS:          0 HIT:          0 MISS:          0 MSHR_MERGE:          0
cpu0->cpu0_L1I PREFETCH REQUESTED:          0 ISSUED:          0 USEFUL:          0 USELESS:          0 LATE:          0
cpu0->cpu0_L1I AVERAGE MISS LATENCY: 281.7 cycles
cpu0->cpu0_L1D TOTAL        ACCESS:   22104896 HIT:   18439399 MISS:    3665497 MSHR_MERGE:     744271
cpu0->cpu0_L1D LOAD         ACCESS:   14296713 HIT:   11920912 MISS:    2375801 MSHR_MERGE:     655290
cpu0->cpu0_L1D RFO          ACCESS:          0 HIT:          0 MISS:          0 MSHR_MERGE:          0
cpu0->cpu0_L1D PREFETCH     ACCESS:          0 HIT:          0 MISS:          0 MSHR_MERGE:          0
cpu0->cpu0_L1D WRITE        ACCESS:    6315624 HIT:    5551535 MISS:     764089 MSHR_MERGE:        122
cpu0->cpu0_L1D TRANSLATION  ACCESS:    1492559 HIT:     966952 MISS:     525607 MSHR_MERGE:      88859
cpu0->cpu0_L1D PREFETCH REQUESTED:          0 ISSUED:          0 USEFUL:          0 USELESS:          0 LATE:          0
cpu0->cpu0_L1D AVERAGE MISS LATENCY: 209 cycles
cpu0->cpu0_ITLB TOTAL        ACCESS:     703407 HIT:     703407 MISS:          0 MSHR_MERGE:          0
cpu0->cpu0_ITLB LOAD         ACCESS:     703407 HIT:     703407 MISS:          0 MSHR_MERGE:          0
cpu0->cpu0_ITLB RFO          ACCESS:          0 HIT:          0 MISS:          0 MSHR_MERGE:          0
cpu0->cpu0_ITLB PREFETCH     ACCESS:          0 HIT:          0 MISS:          0 MSHR_MERGE:          0
cpu0->cpu0_ITLB WRITE        ACCESS:          0 HIT:          0 MISS:          0 MSHR_MERGE:          0
cpu0->cpu0_ITLB TRANSLATION  ACCESS:          0 HIT:          0 MISS:          0 MSHR_MERGE:          0
cpu0->cpu0_ITLB PREFETCH REQUESTED:          0 ISSUED:          0 USEFUL:          0 USELESS:          0 LATE:          0
cpu0->cpu0_ITLB AVERAGE MISS LATENCY: - cycles
cpu0->cpu0_DTLB TOTAL        ACCESS:   20029216 HIT:   17763401 MISS:    2265815 MSHR_MERGE:     642774
cpu0->cpu0_DTLB LOAD         ACCESS:   20029216 HIT:   17763401 MISS:    2265815 MSHR_MERGE:     642774
cpu0->cpu0_DTLB RFO          ACCESS:          0 HIT:          0 MISS:          0 MSHR_MERGE:          0
cpu0->cpu0_DTLB PREFETCH     ACCESS:          0 HIT:          0 MISS:          0 MSHR_MERGE:          0
cpu0->cpu0_DTLB WRITE        ACCESS:          0 HIT:          0 MISS:          0 MSHR_MERGE:          0
cpu0->cpu0_DTLB TRANSLATION  ACCESS:          0 HIT:          0 MISS:          0 MSHR_MERGE:          0
cpu0->cpu0_DTLB PREFETCH REQUESTED:          0 ISSUED:          0 USEFUL:          0 USELESS:          0 LATE:          0
cpu0->cpu0_DTLB AVERAGE MISS LATENCY: 80.34 cycles
cpu0->LLC TOTAL        ACCESS:    3019355 HIT:     611990 MISS:    2407365 MSHR_MERGE:          0
cpu0->LLC LOAD         ACCESS:    1023861 HIT:      51222 MISS:     972639 MSHR_MERGE:          0
cpu0->LLC RFO          ACCESS:     716470 HIT:     127980 MISS:     588490 MSHR_MERGE:          0
cpu0->LLC PREFETCH     ACCESS:          0 HIT:          0 MISS:          0 MSHR_MERGE:          0
cpu0->LLC WRITE        ACCESS:    1114435 HIT:     331555 MISS:     782880 MSHR_MERGE:          0
cpu0->LLC TRANSLATION  ACCESS:     164589 HIT:     101233 MISS:      63356 MSHR_MERGE:          0
cpu0->LLC PREFETCH REQUESTED:          0 ISSUED:          0 USEFUL:          0 USELESS:          0 LATE:          0
cpu0->LLC AVERAGE MISS LATENCY: 233 cycles

DRAM Statistics

Channel 0 RQ ROW_BUFFER_HIT:      58892
  ROW_BUFFER_MISS:    1565163
  AVG DBUS CONGESTED CYCLE: 15.99
Channel 0 WQ ROW_BUFFER_HIT:     206398
  ROW_BUFFER_MISS:     735501
  FULL:        950
Channel 0 REFRESHES ISSUED:      20510

[ROI Statistics]
[System Configuration]
num_cpus 1
cpu_freq 4000
fetch_width 6
decode_width 6
dispatch_width 6
execute_width 6
lq_width 2
sq_width 2
retire_width 6
scheduler_size 160
branch_mispredict_penalty 1
rob_size 352
lq_size 240
sq_size 112
ifetch_buffer_size 64
decode_buffer_size 32
dispatch_buffer_size 32
register_file_size 288
decode_latency 1
dispatch_latency 1
schedule_latency 0
execute_latency 0
page_size 4096
block_size 64
core_0_itlb_set 16
core_0_itlb_way 4
core_0_itlb_rq_size 16
core_0_itlb_wq_size 16
core_0_itlb_pq_size 0
core_0_itlb_mshr_size 8
core_0_itlb_hit_latency 1
core_0_itlb_fill_latency 1
core_0_itlb_max_tag_check 2
core_0_itlb_max_fill 2
core_0_dtlb_set 16
core_0_dtlb_way 4
core_0_dtlb_rq_size 16
core_0_dtlb_wq_size 16
core_0_dtlb_pq_size 0
core_0_dtlb_mshr_size 8
core_0_dtlb_hit_latency 1
core_0_dtlb_fill_latency 1
core_0_dtlb_max_tag_check 2
core_0_dtlb_max_fill 2
core_0_stlb_set 128
core_0_stlb_way 12
core_0_stlb_rq_size 32
core_0_stlb_wq_size 32
core_0_stlb_pq_size 0
core_0_stlb_mshr_size 16
core_0_stlb_hit_latency 4
core_0_stlb_fill_latency 4
core_0_stlb_max_tag_check 1
core_0_stlb_max_fill 1
core_0_l1i_set 64
core_0_l1i_way 8
core_0_l1i_rq_size 64
core_0_l1i_wq_size 64
core_0_l1i_pq_size 32
core_0_l1i_mshr_size 8
core_0_l1i_hit_latency 2
core_0_l1i_fill_latency 2
core_0_l1i_max_tag_check 2
core_0_l1i_max_fill 2
core_0_l1d_set 64
core_0_l1d_way 12
core_0_l1d_rq_size 64
core_0_l1d_wq_size 64
core_0_l1d_pq_size 8
core_0_l1d_mshr_size 16
core_0_l1d_hit_latency 2
core_0_l1d_fill_latency 3
core_0_l1d_max_tag_check 2
core_0_l1d_max_fill 2
core_0_l2c_set 1024
core_0_l2c_way 8
core_0_l2c_rq_size 32
core_0_l2c_wq_size 32
core_0_l2c_pq_size 16
core_0_l2c_mshr_size 32
core_0_l2c_hit_latency 5
core_0_l2c_fill_latency 5
core_0_l2c_max_tag_check 1
core_0_l2c_max_fill 1
llc_set 2048
llc_way 16
llc_rq_size 32
llc_wq_size 32
llc_pq_size 32
llc_mshr_size 64
llc_hit_latency 10
llc_fill_latency 10
llc_max_tag_check 1
llc_max_fill 1
dram_channels 1
dram_ranks 1
dram_bankgroups 8
dram_banks 4
dram_rows 16384
dram_columns 1024
dram_channel_width 8
dram_rq_size 64
dram_wq_size 64
dram_size 4294967296
core_0_itlb_prefetcher no
core_0_dtlb_prefetcher no
core_0_stlb_prefetcher no
core_0_l1i_prefetcher no
core_0_l1d_prefetcher no
core_0_l2c_prefetcher no
llc_prefetcher no
llc_replacement drrip

Core_0_instructions 50000004
Core_0_cycles 246119686
Core_0_IPC 0.203153
Core_0_branch_prediction_accuracy 91.7283
Core_0_branch_MPKI 16.3208
Core_0_average_ROB_occupancy_at_mispredict 35.2439

Core_0_ITLB_total_access 703407
Core_0_ITLB_total_hit 703407
Core_0_ITLB_total_miss 0
Core_0_ITLB_total_MPKI 0
Core_0_ITLB_total_miss_rate 0
Core_0_ITLB_demand_access 703407
Core_0_ITLB_demand_hit 703407
Core_0_ITLB_demand_miss 0
Core_0_ITLB_demand_MPKI 0
Core_0_ITLB_demand_miss_rate 0
Core_0_ITLB_load_access 703407
Core_0_ITLB_load_hit 703407
Core_0_ITLB_load_miss 0
Core_0_ITLB_load_MPKI 0
Core_0_ITLB_load_miss_rate 0
Core_0_ITLB_rfo_access 0
Core_0_ITLB_rfo_hit 0
Core_0_ITLB_rfo_miss 0
Core_0_ITLB_rfo_MPKI 0
Core_0_ITLB_rfo_miss_rate 0
Core_0_ITLB_prefetch_access 0
Core_0_ITLB_prefetch_hit 0
Core_0_ITLB_prefetch_miss 0
Core_0_ITLB_prefetch_MPKI 0
Core_0_ITLB_prefetch_miss_rate 0
Core_0_ITLB_writeback_access 0
Core_0_ITLB_writeback_hit 0
Core_0_ITLB_writeback_miss 0
Core_0_ITLB_writeback_MPKI 0
Core_0_ITLB_writeback_miss_rate 0
Core_0_ITLB_prefetch_requested 0
Core_0_ITLB_prefetch_issued 0
Core_0_ITLB_prefetch_useful 0
Core_0_ITLB_prefetch_useless 0
Core_0_ITLB_prefetch_late 0
Core_0_ITLB_prefetch_accuracy 0
Core_0_ITLB_prefetch_coverage 0

Core_0_DTLB_total_access 20029216
Core_0_DTLB_total_hit 17763401
Core_0_DTLB_total_miss 2265815
Core_0_DTLB_total_MPKI 45.3163
Core_0_DTLB_total_miss_rate 0.113125
Core_0_DTLB_demand_access 20029216
Core_0_DTLB_demand_hit 17763401
Core_0_DTLB_demand_miss 2265815
Core_0_DTLB_demand_MPKI 45.3163
Core_0_DTLB_demand_miss_rate 0.113125
Core_0_DTLB_load_access 20029216
Core_0_DTLB_load_hit 17763401
Core_0_DTLB_load_miss 2265815
Core_0_DTLB_load_MPKI 45.3163
Core_0_DTLB_load_miss_rate 0.113125
Core_0_DTLB_rfo_access 0
Core_0_DTLB_rfo_hit 0
Core_0_DTLB_rfo_miss 0
Core_0_DTLB_rfo_MPKI 0
Core_0_DTLB_rfo_miss_rate 0
Core_0_DTLB_prefetch_access 0
Core_0_DTLB_prefetch_hit 0
Core_0_DTLB_prefetch_miss 0
Core_0_DTLB_prefetch_MPKI 0
Core_0_DTLB_prefetch_miss_rate 0
Core_0_DTLB_writeback_access 0
Core_0_DTLB_writeback_hit 0
Core_0_DTLB_writeback_miss 0
Core_0_DTLB_writeback_MPKI 0
Core_0_DTLB_writeback_miss_rate 0
Core_0_DTLB_prefetch_requested 0
Core_0_DTLB_prefetch_issued 0
Core_0_DTLB_prefetch_useful 0
Core_0_DTLB_prefetch_useless 0
Core_0_DTLB_prefetch_late 0
Core_0_DTLB_prefetch_accuracy 0
Core_0_DTLB_prefetch_coverage 0

Core_0_STLB_total_access 1623041
Core_0_STLB_total_hit 823194
Core_0_STLB_total_miss 799847
Core_0_STLB_total_MPKI 15.9969
Core_0_STLB_total_miss_rate 0.492808
Core_0_STLB_demand_access 1623041
Core_0_STLB_demand_hit 823194
Core_0_STLB_demand_miss 799847
Core_0_STLB_demand_MPKI 15.9969
Core_0_STLB_demand_miss_rate 0.492808
Core_0_STLB_load_access 1623041
Core_0_STLB_load_hit 823194
Core_0_STLB_load_miss 799847
Core_0_STLB_load_MPKI 15.9969
Core_0_STLB_load_miss_rate 0.492808
Core_0_STLB_rfo_access 0
Core_0_STLB_rfo_hit 0
Core_0_STLB_rfo_miss 0
Core_0_STLB_rfo_MPKI 0
Core_0_STLB_rfo_miss_rate 0
Core_0_STLB_prefetch_access 0
Core_0_STLB_prefetch_hit 0
Core_0_STLB_prefetch_miss 0
Core_0_STLB_prefetch_MPKI 0
Core_0_STLB_prefetch_miss_rate 0
Core_0_STLB_writeback_access 0
Core_0_STLB_writeback_hit 0
Core_0_STLB_writeback_miss 0
Core_0_STLB_writeback_MPKI 0
Core_0_STLB_writeback_miss_rate 0
Core_0_STLB_prefetch_requested 0
Core_0_STLB_prefetch_issued 0
Core_0_STLB_prefetch_useful 0
Core_0_STLB_prefetch_useless 0
Core_0_STLB_prefetch_late 0
Core_0_STLB_prefetch_accuracy 0
Core_0_STLB_prefetch_coverage 0

Core_0_L1I_total_access 703410
Core_0_L1I_total_hit 703403
Core_0_L1I_total_miss 7
Core_0_L1I_total_MPKI 0.00014
Core_0_L1I_total_miss_rate 9.95152e-06
Core_0_L1I_demand_access 703410
Core_0_L1I_demand_hit 703403
Core_0_L1I_demand_miss 7
Core_0_L1I_demand_MPKI 0.00014
Core_0_L1I_demand_miss_rate 9.95152e-06
Core_0_L1I_load_access 703410
Core_0_L1I_load_hit 703403
Core_0_L1I_load_miss 7
Core_0_L1I_load_MPKI 0.00014
Core_0_L1I_load_miss_rate 9.95152e-06
Core_0_L1I_rfo_access 0
Core_0_L1I_rfo_hit 0
Core_0_L1I_rfo_miss 0
Core_0_L1I_rfo_MPKI 0
Core_0_L1I_rfo_miss_rate 0
Core_0_L1I_prefetch_access 0
Core_0_L1I_prefetch_hit 0
Core_0_L1I_prefetch_miss 0
Core_0_L1I_prefetch_MPKI 0
Core_0_L1I_prefetch_miss_rate 0
Core_0_L1I_writeback_access 0
Core_0_L1I_writeback_hit 0
Core_0_L1I_writeback_miss 0
Core_0_L1I_writeback_MPKI 0
Core_0_L1I_writeback_miss_rate 0
Core_0_L1I_prefetch_requested 0
Core_0_L1I_prefetch_issued 0
Core_0_L1I_prefetch_useful 0
Core_0_L1I_prefetch_useless 0
Core_0_L1I_prefetch_late 0
Core_0_L1I_prefetch_accuracy 0
Core_0_L1I_prefetch_coverage 0

Core_0_L1D_total_access 20612337
Core_0_L1D_total_hit 17472447
Core_0_L1D_total_miss 3139890
Core_0_L1D_total_MPKI 62.7978
Core_0_L1D_total_miss_rate 0.152331
Core_0_L1D_demand_access 14296713
Core_0_L1D_demand_hit 11920912
Core_0_L1D_demand_miss 2375801
Core_0_L1D_demand_MPKI 47.516
Core_0_L1D_demand_miss_rate 0.166178
Core_0_L1D_load_access 14296713
Core_0_L1D_load_hit 11920912
Core_0_L1D_load_miss 2375801
Core_0_L1D_load_MPKI 47.516
Core_0_L1D_load_miss_rate 0.166178
Core_0_L1D_rfo_access 0
Core_0_L1D_rfo_hit 0
Core_0_L1D_rfo_miss 0
Core_0_L1D_rfo_MPKI 0
Core_0_L1D_rfo_miss_rate 0
Core_0_L1D_prefetch_access 0
Core_0_L1D_prefetch_hit 0
Core_0_L1D_prefetch_miss 0
Core_0_L1D_prefetch_MPKI 0
Core_0_L1D_prefetch_miss_rate 0
Core_0_L1D_writeback_access 6315624
Core_0_L1D_writeback_hit 5551535
Core_0_L1D_writeback_miss 764089
Core_0_L1D_writeback_MPKI 15.2818
Core_0_L1D_writeback_miss_rate 0.120984
Core_0_L1D_prefetch_requested 0
Core_0_L1D_prefetch_issued 0
Core_0_L1D_prefetch_useful 0
Core_0_L1D_prefetch_useless 0
Core_0_L1D_prefetch_late 0
Core_0_L1D_prefetch_accuracy 0
Core_0_L1D_prefetch_coverage 0

Core_0_L2C_total_access 3651840
Core_0_L2C_total_hit 1911470
Core_0_L2C_total_miss 1740370
Core_0_L2C_total_MPKI 34.8074
Core_0_L2C_total_miss_rate 0.476573
Core_0_L2C_demand_access 2484483
Core_0_L2C_demand_hit 744151
Core_0_L2C_demand_miss 1740332
Core_0_L2C_demand_MPKI 34.8066
Core_0_L2C_demand_miss_rate 0.700481
Core_0_L2C_load_access 1720516
Core_0_L2C_load_hit 696654
Core_0_L2C_load_miss 1023862
Core_0_L2C_load_MPKI 20.4772
Core_0_L2C_load_miss_rate 0.59509
Core_0_L2C_rfo_access 763967
Core_0_L2C_rfo_hit 47497
Core_0_L2C_rfo_miss 716470
Core_0_L2C_rfo_MPKI 14.3294
Core_0_L2C_rfo_miss_rate 0.937828
Core_0_L2C_prefetch_access 0
Core_0_L2C_prefetch_hit 0
Core_0_L2C_prefetch_miss 0
Core_0_L2C_prefetch_MPKI 0
Core_0_L2C_prefetch_miss_rate 0
Core_0_L2C_writeback_access 1167357
Core_0_L2C_writeback_hit 1167319
Core_0_L2C_writeback_miss 38
Core_0_L2C_writeback_MPKI 0.00076
Core_0_L2C_writeback_miss_rate 3.25522e-05
Core_0_L2C_prefetch_requested 0
Core_0_L2C_prefetch_issued 0
Core_0_L2C_prefetch_useful 0
Core_0_L2C_prefetch_useless 0
Core_0_L2C_prefetch_late 0
Core_0_L2C_prefetch_accuracy 0
Core_0_L2C_prefetch_coverage 0

Core_0_LLC_total_access 2854766
Core_0_LLC_total_hit 510757
Core_0_LLC_total_miss 2344009
Core_0_LLC_total_MPKI 46.8802
Core_0_LLC_total_miss_rate 0.821086
Core_0_LLC_demand_access 1740331
Core_0_LLC_demand_hit 179202
Core_0_LLC_demand_miss 1561129
Core_0_LLC_demand_MPKI 31.2226
Core_0_LLC_demand_miss_rate 0.89703
Core_0_LLC_load_access 1023861
Core_0_LLC_load_hit 51222
Core_0_LLC_load_miss 972639
Core_0_LLC_load_MPKI 19.4528
Core_0_LLC_load_miss_rate 0.949972
Core_0_LLC_rfo_access 716470
Core_0_LLC_rfo_hit 127980
Core_0_LLC_rfo_miss 588490
Core_0_LLC_rfo_MPKI 11.7698
Core_0_LLC_rfo_miss_rate 0.821374
Core_0_LLC_prefetch_access 0
Core_0_LLC_prefetch_hit 0
Core_0_LLC_prefetch_miss 0
Core_0_LLC_prefetch_MPKI 0
Core_0_LLC_prefetch_miss_rate 0
Core_0_LLC_writeback_access 1114435
Core_0_LLC_writeback_hit 331555
Core_0_LLC_writeback_miss 782880
Core_0_LLC_writeback_MPKI 15.6576
Core_0_LLC_writeback_miss_rate 0.70249
Core_0_LLC_prefetch_requested 0
Core_0_LLC_prefetch_issued 0
Core_0_LLC_prefetch_useful 0
Core_0_LLC_prefetch_useless 0
Core_0_LLC_prefetch_late 0
Core_0_LLC_prefetch_accuracy 0
Core_0_LLC_prefetch_coverage 0

[DRAM Statistics]
Channel_0_RQ_row_buffer_hit 58892
Channel_0_RQ_row_buffer_miss 1565163
Channel_0_WQ_row_buffer_hit 206398
Channel_0_WQ_row_buffer_miss 735501
Channel_0_WQ_full 950
Channel_0_dbus_congested 11608980
DRAM_total_RQ_row_buffer_hit 58892
DRAM_total_RQ_row_buffer_miss 1565163
DRAM_total_WQ_row_buffer_hit 206398
DRAM_total_WQ_row_buffer_miss 735501
DRAM_total_WQ_full 950
DRAM_total_dbus_congested 11608980
DRAM_avg_congested_cycle 15.988

======STLB miss causes ========
Core_0_STLB_miss_cause_breakdown
Core_0_STLB_cause_Demand_Data_miss 799847
Core_0_STLB_cause_Demand_Data_miss_rate 0.492808
Core_0_STLB_cause_Demand_Instruction_miss 0
Core_0_STLB_cause_Demand_Instruction_miss_rate 0
Core_0_STLB_cause_L1D_Prefetch_miss 0
Core_0_STLB_cause_L1D_Prefetch_miss_rate 0
Core_0_STLB_cause_L1I_Prefetch_miss 0
Core_0_STLB_cause_L1I_Prefetch_miss_rate 0
Core_0_STLB_cause_Other_miss 0
Core_0_STLB_cause_Other_miss_rate 0
Core_0_STLB_Demand_miss 799847
Core_0_STLB_Demand_miss_rate 0.492808
Core_0_STLB_L1D_Prefetch_miss 0
Core_0_STLB_L1D_Prefetch_miss_rate 0
Core_0_STLB_Other_miss 0
Core_0_STLB_Other_miss_rate 0
