[VMEM] WARNING: physical memory size is smaller than virtual memory size.

*** ChampSim Multicore Out-of-Order Simulator ***
Warmup Instructions: 20000000
Simulation Instructions: 50000000
Number of CPUs: 1
Page size: 4096
Core 0: /data0/tzh/champsim_traces/SPEC06/482.sphinx3-1522B.champsimtrace.xz
Off-chip DRAM Size: 4 GiB Channels: 1 Width: 64-bit Data Rate: 3205 MT/s
Warmup halting CPU 0 at instruction 20000004 cycle 4348392 for remainder of phase
Warmup finished CPU 0 instructions: 20000004 cycles: 4348392 cumulative IPC: 4.599 (Simulation time: 00 hr 00 min 44 sec)
Warmup complete CPU 0 instructions: 20000004 cycles: 4348392 cumulative IPC: 4.599 (Simulation time: 00 hr 00 min 44 sec)
Simulation finished CPU 0 instructions: 50000003 cycles: 38403606 cumulative IPC: 1.302 (Simulation time: 00 hr 05 min 17 sec)
Simulation complete CPU 0 instructions: 50000003 cycles: 38403606 cumulative IPC: 1.302 (Simulation time: 00 hr 05 min 17 sec)

ChampSim completed all CPUs

=== Simulation ===
CPU 0 runs /data0/tzh/champsim_traces/SPEC06/482.sphinx3-1522B.champsimtrace.xz

Region of Interest Statistics

CPU 0 cumulative IPC: 1.302 instructions: 50000003 cycles: 38403606
CPU 0 Branch Prediction Accuracy: 96.16% MPKI: 3.414 Average ROB Occupancy at Mispredict: 203.4
Branch type MPKI
BRANCH_DIRECT_JUMP: 0.00012
BRANCH_INDIRECT: 0
BRANCH_CONDITIONAL: 3.412
BRANCH_DIRECT_CALL: 6e-05
BRANCH_INDIRECT_CALL: 2e-05
BRANCH_RETURN: 0.00102

cpu0->cpu0_STLB TOTAL        ACCESS:      59202 HIT:      42547 MISS:      16655 MSHR_MERGE:          0
cpu0->cpu0_STLB LOAD         ACCESS:      59202 HIT:      42547 MISS:      16655 MSHR_MERGE:          0
cpu0->cpu0_STLB RFO          ACCESS:          0 HIT:          0 MISS:          0 MSHR_MERGE:          0
cpu0->cpu0_STLB PREFETCH     ACCESS:          0 HIT:          0 MISS:          0 MSHR_MERGE:          0
cpu0->cpu0_STLB WRITE        ACCESS:          0 HIT:          0 MISS:          0 MSHR_MERGE:          0
cpu0->cpu0_STLB TRANSLATION  ACCESS:          0 HIT:          0 MISS:          0 MSHR_MERGE:          0
cpu0->cpu0_STLB PREFETCH REQUESTED:          0 ISSUED:          0 USEFUL:          0 USELESS:          0 LATE:          0
cpu0->cpu0_STLB AVERAGE MISS LATENCY: 64.2 cycles
cpu0->cpu0_L2C TOTAL        ACCESS:     766728 HIT:     151667 MISS:     615061 MSHR_MERGE:          0
cpu0->cpu0_L2C LOAD         ACCESS:     654453 HIT:      89083 MISS:     565370 MSHR_MERGE:          0
cpu0->cpu0_L2C RFO          ACCESS:      48964 HIT:       4184 MISS:      44780 MSHR_MERGE:          0
cpu0->cpu0_L2C PREFETCH     ACCESS:          0 HIT:          0 MISS:          0 MSHR_MERGE:          0
cpu0->cpu0_L2C WRITE        ACCESS:      57261 HIT:      57114 MISS:        147 MSHR_MERGE:          0
cpu0->cpu0_L2C TRANSLATION  ACCESS:       6050 HIT:       1286 MISS:       4764 MSHR_MERGE:          0
cpu0->cpu0_L2C PREFETCH REQUESTED:          0 ISSUED:          0 USEFUL:          0 USELESS:          0 LATE:          0
cpu0->cpu0_L2C AVERAGE MISS LATENCY: 102.3 cycles
cpu0->cpu0_L1I TOTAL        ACCESS:    2477467 HIT:    2477450 MISS:         17 MSHR_MERGE:          4
cpu0->cpu0_L1I LOAD         ACCESS:    2477467 HIT:    2477450 MISS:         17 MSHR_MERGE:          4
cpu0->cpu0_L1I RFO          ACCESS:          0 HIT:          0 MISS:          0 MSHR_MERGE:          0
cpu0->cpu0_L1I PREFETCH     ACCESS:          0 HIT:          0 MISS:          0 MSHR_MERGE:          0
cpu0->cpu0_L1I WRITE        ACCESS:          0 HIT:          0 MISS:          0 MSHR_MERGE:          0
cpu0->cpu0_L1I TRANSLATION  ACCESS:          0 HIT:          0 MISS:          0 MSHR_MERGE:          0
cpu0->cpu0_L1I PREFETCH REQUESTED:          0 ISSUED:          0 USEFUL:          0 USELESS:          0 LATE:          0
cpu0->cpu0_L1I AVERAGE MISS LATENCY: 210 cycles
cpu0->cpu0_L1D TOTAL        ACCESS:   10141620 HIT:    6927075 MISS:    3214545 MSHR_MERGE:    2505089
cpu0->cpu0_L1D LOAD         ACCESS:    9114233 HIT:    6201188 MISS:    2913045 MSHR_MERGE:    2258603
cpu0->cpu0_L1D RFO          ACCESS:          0 HIT:          0 MISS:          0 MSHR_MERGE:          0
cpu0->cpu0_L1D PREFETCH     ACCESS:          0 HIT:          0 MISS:          0 MSHR_MERGE:          0
cpu0->cpu0_L1D WRITE        ACCESS:     994181 HIT:     698817 MISS:     295364 MSHR_MERGE:     246400
cpu0->cpu0_L1D TRANSLATION  ACCESS:      33206 HIT:      27070 MISS:       6136 MSHR_MERGE:         86
cpu0->cpu0_L1D PREFETCH REQUESTED:          0 ISSUED:          0 USEFUL:          0 USELESS:          0 LATE:          0
cpu0->cpu0_L1D AVERAGE MISS LATENCY: 97.53 cycles
cpu0->cpu0_ITLB TOTAL        ACCESS:    1785773 HIT:    1785772 MISS:          1 MSHR_MERGE:          0
cpu0->cpu0_ITLB LOAD         ACCESS:    1785773 HIT:    1785772 MISS:          1 MSHR_MERGE:          0
cpu0->cpu0_ITLB RFO          ACCESS:          0 HIT:          0 MISS:          0 MSHR_MERGE:          0
cpu0->cpu0_ITLB PREFETCH     ACCESS:          0 HIT:          0 MISS:          0 MSHR_MERGE:          0
cpu0->cpu0_ITLB WRITE        ACCESS:          0 HIT:          0 MISS:          0 MSHR_MERGE:          0
cpu0->cpu0_ITLB TRANSLATION  ACCESS:          0 HIT:          0 MISS:          0 MSHR_MERGE:          0
cpu0->cpu0_ITLB PREFETCH REQUESTED:          0 ISSUED:          0 USEFUL:          0 USELESS:          0 LATE:          0
cpu0->cpu0_ITLB AVERAGE MISS LATENCY: 383 cycles
cpu0->cpu0_DTLB TOTAL        ACCESS:   10010161 HIT:    9853153 MISS:     157008 MSHR_MERGE:      97807
cpu0->cpu0_DTLB LOAD         ACCESS:   10010161 HIT:    9853153 MISS:     157008 MSHR_MERGE:      97807
cpu0->cpu0_DTLB RFO          ACCESS:          0 HIT:          0 MISS:          0 MSHR_MERGE:          0
cpu0->cpu0_DTLB PREFETCH     ACCESS:          0 HIT:          0 MISS:          0 MSHR_MERGE:          0
cpu0->cpu0_DTLB WRITE        ACCESS:          0 HIT:          0 MISS:          0 MSHR_MERGE:          0
cpu0->cpu0_DTLB TRANSLATION  ACCESS:          0 HIT:          0 MISS:          0 MSHR_MERGE:          0
cpu0->cpu0_DTLB PREFETCH REQUESTED:          0 ISSUED:          0 USEFUL:          0 USELESS:          0 LATE:          0
cpu0->cpu0_DTLB AVERAGE MISS LATENCY: 23.34 cycles
cpu0->LLC TOTAL        ACCESS:     668471 HIT:     373024 MISS:     295447 MSHR_MERGE:          0
cpu0->LLC LOAD         ACCESS:     565370 HIT:     288841 MISS:     276529 MSHR_MERGE:          0
cpu0->LLC RFO          ACCESS:      44780 HIT:      35060 MISS:       9720 MSHR_MERGE:          0
cpu0->LLC PREFETCH     ACCESS:          0 HIT:          0 MISS:          0 MSHR_MERGE:          0
cpu0->LLC WRITE        ACCESS:      53557 HIT:      48239 MISS:       5318 MSHR_MERGE:          0
cpu0->LLC TRANSLATION  ACCESS:       4764 HIT:        884 MISS:       3880 MSHR_MERGE:          0
cpu0->LLC PREFETCH REQUESTED:          0 ISSUED:          0 USEFUL:          0 USELESS:          0 LATE:          0
cpu0->LLC AVERAGE MISS LATENCY: 180.8 cycles

DRAM Statistics

Channel 0 RQ ROW_BUFFER_HIT:       9150
  ROW_BUFFER_MISS:     280809
  AVG DBUS CONGESTED CYCLE: 17.6
Channel 0 WQ ROW_BUFFER_HIT:       4437
  ROW_BUFFER_MISS:       7592
  FULL:          0
Channel 0 REFRESHES ISSUED:       3200

[ROI Statistics]
[System Configuration]
num_cpus 1
cpu_freq 4000
fetch_width 6
decode_width 6
dispatch_width 6
execute_width 6
lq_width 2
sq_width 2
retire_width 6
scheduler_size 160
branch_mispredict_penalty 1
rob_size 352
lq_size 240
sq_size 112
ifetch_buffer_size 64
decode_buffer_size 32
dispatch_buffer_size 32
register_file_size 288
decode_latency 1
dispatch_latency 1
schedule_latency 0
execute_latency 0
page_size 4096
block_size 64
core_0_itlb_set 16
core_0_itlb_way 4
core_0_itlb_rq_size 16
core_0_itlb_wq_size 16
core_0_itlb_pq_size 0
core_0_itlb_mshr_size 8
core_0_itlb_hit_latency 1
core_0_itlb_fill_latency 1
core_0_itlb_max_tag_check 2
core_0_itlb_max_fill 2
core_0_dtlb_set 16
core_0_dtlb_way 4
core_0_dtlb_rq_size 16
core_0_dtlb_wq_size 16
core_0_dtlb_pq_size 0
core_0_dtlb_mshr_size 8
core_0_dtlb_hit_latency 1
core_0_dtlb_fill_latency 1
core_0_dtlb_max_tag_check 2
core_0_dtlb_max_fill 2
core_0_stlb_set 128
core_0_stlb_way 12
core_0_stlb_rq_size 32
core_0_stlb_wq_size 32
core_0_stlb_pq_size 0
core_0_stlb_mshr_size 16
core_0_stlb_hit_latency 4
core_0_stlb_fill_latency 4
core_0_stlb_max_tag_check 1
core_0_stlb_max_fill 1
core_0_l1i_set 64
core_0_l1i_way 8
core_0_l1i_rq_size 64
core_0_l1i_wq_size 64
core_0_l1i_pq_size 32
core_0_l1i_mshr_size 8
core_0_l1i_hit_latency 2
core_0_l1i_fill_latency 2
core_0_l1i_max_tag_check 2
core_0_l1i_max_fill 2
core_0_l1d_set 64
core_0_l1d_way 12
core_0_l1d_rq_size 64
core_0_l1d_wq_size 64
core_0_l1d_pq_size 8
core_0_l1d_mshr_size 16
core_0_l1d_hit_latency 2
core_0_l1d_fill_latency 3
core_0_l1d_max_tag_check 2
core_0_l1d_max_fill 2
core_0_l2c_set 1024
core_0_l2c_way 8
core_0_l2c_rq_size 32
core_0_l2c_wq_size 32
core_0_l2c_pq_size 16
core_0_l2c_mshr_size 32
core_0_l2c_hit_latency 5
core_0_l2c_fill_latency 5
core_0_l2c_max_tag_check 1
core_0_l2c_max_fill 1
llc_set 2048
llc_way 16
llc_rq_size 32
llc_wq_size 32
llc_pq_size 32
llc_mshr_size 64
llc_hit_latency 10
llc_fill_latency 10
llc_max_tag_check 1
llc_max_fill 1
dram_channels 1
dram_ranks 1
dram_bankgroups 8
dram_banks 4
dram_rows 16384
dram_columns 1024
dram_channel_width 8
dram_rq_size 64
dram_wq_size 64
dram_size 4294967296
core_0_itlb_prefetcher no
core_0_dtlb_prefetcher no
core_0_stlb_prefetcher no
core_0_l1i_prefetcher no
core_0_l1d_prefetcher no
core_0_l2c_prefetcher no
llc_prefetcher no
llc_replacement drrip

Core_0_instructions 50000003
Core_0_cycles 38403606
Core_0_IPC 1.30196
Core_0_branch_prediction_accuracy 96.163
Core_0_branch_MPKI 3.41366
Core_0_average_ROB_occupancy_at_mispredict 203.377

Core_0_ITLB_total_access 1785773
Core_0_ITLB_total_hit 1785772
Core_0_ITLB_total_miss 1
Core_0_ITLB_total_MPKI 2e-05
Core_0_ITLB_total_miss_rate 5.59982e-07
Core_0_ITLB_demand_access 1785773
Core_0_ITLB_demand_hit 1785772
Core_0_ITLB_demand_miss 1
Core_0_ITLB_demand_MPKI 2e-05
Core_0_ITLB_demand_miss_rate 5.59982e-07
Core_0_ITLB_load_access 1785773
Core_0_ITLB_load_hit 1785772
Core_0_ITLB_load_miss 1
Core_0_ITLB_load_MPKI 2e-05
Core_0_ITLB_load_miss_rate 5.59982e-07
Core_0_ITLB_rfo_access 0
Core_0_ITLB_rfo_hit 0
Core_0_ITLB_rfo_miss 0
Core_0_ITLB_rfo_MPKI 0
Core_0_ITLB_rfo_miss_rate 0
Core_0_ITLB_prefetch_access 0
Core_0_ITLB_prefetch_hit 0
Core_0_ITLB_prefetch_miss 0
Core_0_ITLB_prefetch_MPKI 0
Core_0_ITLB_prefetch_miss_rate 0
Core_0_ITLB_writeback_access 0
Core_0_ITLB_writeback_hit 0
Core_0_ITLB_writeback_miss 0
Core_0_ITLB_writeback_MPKI 0
Core_0_ITLB_writeback_miss_rate 0
Core_0_ITLB_prefetch_requested 0
Core_0_ITLB_prefetch_issued 0
Core_0_ITLB_prefetch_useful 0
Core_0_ITLB_prefetch_useless 0
Core_0_ITLB_prefetch_late 0
Core_0_ITLB_prefetch_accuracy 0
Core_0_ITLB_prefetch_coverage 0

Core_0_DTLB_total_access 10010161
Core_0_DTLB_total_hit 9853153
Core_0_DTLB_total_miss 157008
Core_0_DTLB_total_MPKI 3.14016
Core_0_DTLB_total_miss_rate 0.0156849
Core_0_DTLB_demand_access 10010161
Core_0_DTLB_demand_hit 9853153
Core_0_DTLB_demand_miss 157008
Core_0_DTLB_demand_MPKI 3.14016
Core_0_DTLB_demand_miss_rate 0.0156849
Core_0_DTLB_load_access 10010161
Core_0_DTLB_load_hit 9853153
Core_0_DTLB_load_miss 157008
Core_0_DTLB_load_MPKI 3.14016
Core_0_DTLB_load_miss_rate 0.0156849
Core_0_DTLB_rfo_access 0
Core_0_DTLB_rfo_hit 0
Core_0_DTLB_rfo_miss 0
Core_0_DTLB_rfo_MPKI 0
Core_0_DTLB_rfo_miss_rate 0
Core_0_DTLB_prefetch_access 0
Core_0_DTLB_prefetch_hit 0
Core_0_DTLB_prefetch_miss 0
Core_0_DTLB_prefetch_MPKI 0
Core_0_DTLB_prefetch_miss_rate 0
Core_0_DTLB_writeback_access 0
Core_0_DTLB_writeback_hit 0
Core_0_DTLB_writeback_miss 0
Core_0_DTLB_writeback_MPKI 0
Core_0_DTLB_writeback_miss_rate 0
Core_0_DTLB_prefetch_requested 0
Core_0_DTLB_prefetch_issued 0
Core_0_DTLB_prefetch_useful 0
Core_0_DTLB_prefetch_useless 0
Core_0_DTLB_prefetch_late 0
Core_0_DTLB_prefetch_accuracy 0
Core_0_DTLB_prefetch_coverage 0

Core_0_STLB_total_access 59202
Core_0_STLB_total_hit 42547
Core_0_STLB_total_miss 16655
Core_0_STLB_total_MPKI 0.3331
Core_0_STLB_total_miss_rate 0.281325
Core_0_STLB_demand_access 59202
Core_0_STLB_demand_hit 42547
Core_0_STLB_demand_miss 16655
Core_0_STLB_demand_MPKI 0.3331
Core_0_STLB_demand_miss_rate 0.281325
Core_0_STLB_load_access 59202
Core_0_STLB_load_hit 42547
Core_0_STLB_load_miss 16655
Core_0_STLB_load_MPKI 0.3331
Core_0_STLB_load_miss_rate 0.281325
Core_0_STLB_rfo_access 0
Core_0_STLB_rfo_hit 0
Core_0_STLB_rfo_miss 0
Core_0_STLB_rfo_MPKI 0
Core_0_STLB_rfo_miss_rate 0
Core_0_STLB_prefetch_access 0
Core_0_STLB_prefetch_hit 0
Core_0_STLB_prefetch_miss 0
Core_0_STLB_prefetch_MPKI 0
Core_0_STLB_prefetch_miss_rate 0
Core_0_STLB_writeback_access 0
Core_0_STLB_writeback_hit 0
Core_0_STLB_writeback_miss 0
Core_0_STLB_writeback_MPKI 0
Core_0_STLB_writeback_miss_rate 0
Core_0_STLB_prefetch_requested 0
Core_0_STLB_prefetch_issued 0
Core_0_STLB_prefetch_useful 0
Core_0_STLB_prefetch_useless 0
Core_0_STLB_prefetch_late 0
Core_0_STLB_prefetch_accuracy 0
Core_0_STLB_prefetch_coverage 0

Core_0_L1I_total_access 2477467
Core_0_L1I_total_hit 2477450
Core_0_L1I_total_miss 17
Core_0_L1I_total_MPKI 0.00034
Core_0_L1I_total_miss_rate 6.86185e-06
Core_0_L1I_demand_access 2477467
Core_0_L1I_demand_hit 2477450
Core_0_L1I_demand_miss 17
Core_0_L1I_demand_MPKI 0.00034
Core_0_L1I_demand_miss_rate 6.86185e-06
Core_0_L1I_load_access 2477467
Core_0_L1I_load_hit 2477450
Core_0_L1I_load_miss 17
Core_0_L1I_load_MPKI 0.00034
Core_0_L1I_load_miss_rate 6.86185e-06
Core_0_L1I_rfo_access 0
Core_0_L1I_rfo_hit 0
Core_0_L1I_rfo_miss 0
Core_0_L1I_rfo_MPKI 0
Core_0_L1I_rfo_miss_rate 0
Core_0_L1I_prefetch_access 0
Core_0_L1I_prefetch_hit 0
Core_0_L1I_prefetch_miss 0
Core_0_L1I_prefetch_MPKI 0
Core_0_L1I_prefetch_miss_rate 0
Core_0_L1I_writeback_access 0
Core_0_L1I_writeback_hit 0
Core_0_L1I_writeback_miss 0
Core_0_L1I_writeback_MPKI 0
Core_0_L1I_writeback_miss_rate 0
Core_0_L1I_prefetch_requested 0
Core_0_L1I_prefetch_issued 0
Core_0_L1I_prefetch_useful 0
Core_0_L1I_prefetch_useless 0
Core_0_L1I_prefetch_late 0
Core_0_L1I_prefetch_accuracy 0
Core_0_L1I_prefetch_coverage 0

Core_0_L1D_total_access 10108414
Core_0_L1D_total_hit 6900005
Core_0_L1D_total_miss 3208409
Core_0_L1D_total_MPKI 64.1682
Core_0_L1D_total_miss_rate 0.3174
Core_0_L1D_demand_access 9114233
Core_0_L1D_demand_hit 6201188
Core_0_L1D_demand_miss 2913045
Core_0_L1D_demand_MPKI 58.2609
Core_0_L1D_demand_miss_rate 0.319615
Core_0_L1D_load_access 9114233
Core_0_L1D_load_hit 6201188
Core_0_L1D_load_miss 2913045
Core_0_L1D_load_MPKI 58.2609
Core_0_L1D_load_miss_rate 0.319615
Core_0_L1D_rfo_access 0
Core_0_L1D_rfo_hit 0
Core_0_L1D_rfo_miss 0
Core_0_L1D_rfo_MPKI 0
Core_0_L1D_rfo_miss_rate 0
Core_0_L1D_prefetch_access 0
Core_0_L1D_prefetch_hit 0
Core_0_L1D_prefetch_miss 0
Core_0_L1D_prefetch_MPKI 0
Core_0_L1D_prefetch_miss_rate 0
Core_0_L1D_writeback_access 994181
Core_0_L1D_writeback_hit 698817
Core_0_L1D_writeback_miss 295364
Core_0_L1D_writeback_MPKI 5.90728
Core_0_L1D_writeback_miss_rate 0.297093
Core_0_L1D_prefetch_requested 0
Core_0_L1D_prefetch_issued 0
Core_0_L1D_prefetch_useful 0
Core_0_L1D_prefetch_useless 0
Core_0_L1D_prefetch_late 0
Core_0_L1D_prefetch_accuracy 0
Core_0_L1D_prefetch_coverage 0

Core_0_L2C_total_access 760678
Core_0_L2C_total_hit 150381
Core_0_L2C_total_miss 610297
Core_0_L2C_total_MPKI 12.2059
Core_0_L2C_total_miss_rate 0.802307
Core_0_L2C_demand_access 703417
Core_0_L2C_demand_hit 93267
Core_0_L2C_demand_miss 610150
Core_0_L2C_demand_MPKI 12.203
Core_0_L2C_demand_miss_rate 0.867409
Core_0_L2C_load_access 654453
Core_0_L2C_load_hit 89083
Core_0_L2C_load_miss 565370
Core_0_L2C_load_MPKI 11.3074
Core_0_L2C_load_miss_rate 0.863882
Core_0_L2C_rfo_access 48964
Core_0_L2C_rfo_hit 4184
Core_0_L2C_rfo_miss 44780
Core_0_L2C_rfo_MPKI 0.8956
Core_0_L2C_rfo_miss_rate 0.914549
Core_0_L2C_prefetch_access 0
Core_0_L2C_prefetch_hit 0
Core_0_L2C_prefetch_miss 0
Core_0_L2C_prefetch_MPKI 0
Core_0_L2C_prefetch_miss_rate 0
Core_0_L2C_writeback_access 57261
Core_0_L2C_writeback_hit 57114
Core_0_L2C_writeback_miss 147
Core_0_L2C_writeback_MPKI 0.00294
Core_0_L2C_writeback_miss_rate 0.00256719
Core_0_L2C_prefetch_requested 0
Core_0_L2C_prefetch_issued 0
Core_0_L2C_prefetch_useful 0
Core_0_L2C_prefetch_useless 0
Core_0_L2C_prefetch_late 0
Core_0_L2C_prefetch_accuracy 0
Core_0_L2C_prefetch_coverage 0

Core_0_LLC_total_access 663707
Core_0_LLC_total_hit 372140
Core_0_LLC_total_miss 291567
Core_0_LLC_total_MPKI 5.83134
Core_0_LLC_total_miss_rate 0.439301
Core_0_LLC_demand_access 610150
Core_0_LLC_demand_hit 323901
Core_0_LLC_demand_miss 286249
Core_0_LLC_demand_MPKI 5.72498
Core_0_LLC_demand_miss_rate 0.469145
Core_0_LLC_load_access 565370
Core_0_LLC_load_hit 288841
Core_0_LLC_load_miss 276529
Core_0_LLC_load_MPKI 5.53058
Core_0_LLC_load_miss_rate 0.489112
Core_0_LLC_rfo_access 44780
Core_0_LLC_rfo_hit 35060
Core_0_LLC_rfo_miss 9720
Core_0_LLC_rfo_MPKI 0.1944
Core_0_LLC_rfo_miss_rate 0.217061
Core_0_LLC_prefetch_access 0
Core_0_LLC_prefetch_hit 0
Core_0_LLC_prefetch_miss 0
Core_0_LLC_prefetch_MPKI 0
Core_0_LLC_prefetch_miss_rate 0
Core_0_LLC_writeback_access 53557
Core_0_LLC_writeback_hit 48239
Core_0_LLC_writeback_miss 5318
Core_0_LLC_writeback_MPKI 0.10636
Core_0_LLC_writeback_miss_rate 0.0992961
Core_0_LLC_prefetch_requested 0
Core_0_LLC_prefetch_issued 0
Core_0_LLC_prefetch_useful 0
Core_0_LLC_prefetch_useless 0
Core_0_LLC_prefetch_late 0
Core_0_LLC_prefetch_accuracy 0
Core_0_LLC_prefetch_coverage 0

[DRAM Statistics]
Channel_0_RQ_row_buffer_hit 9150
Channel_0_RQ_row_buffer_miss 280809
Channel_0_WQ_row_buffer_hit 4437
Channel_0_WQ_row_buffer_miss 7592
Channel_0_WQ_full 0
Channel_0_dbus_congested 547265
DRAM_total_RQ_row_buffer_hit 9150
DRAM_total_RQ_row_buffer_miss 280809
DRAM_total_WQ_row_buffer_hit 4437
DRAM_total_WQ_row_buffer_miss 7592
DRAM_total_WQ_full 0
DRAM_total_dbus_congested 547265
DRAM_avg_congested_cycle 17.6014

======STLB miss causes ========
Core_0_STLB_miss_cause_breakdown
Core_0_STLB_cause_Demand_Data_miss 16654
Core_0_STLB_cause_Demand_Data_miss_rate 0.281308
Core_0_STLB_cause_Demand_Instruction_miss 1
Core_0_STLB_cause_Demand_Instruction_miss_rate 1.68913e-05
Core_0_STLB_cause_L1D_Prefetch_miss 0
Core_0_STLB_cause_L1D_Prefetch_miss_rate 0
Core_0_STLB_cause_L1I_Prefetch_miss 0
Core_0_STLB_cause_L1I_Prefetch_miss_rate 0
Core_0_STLB_cause_Other_miss 0
Core_0_STLB_cause_Other_miss_rate 0
Core_0_STLB_Demand_miss 16655
Core_0_STLB_Demand_miss_rate 0.281325
Core_0_STLB_L1D_Prefetch_miss 0
Core_0_STLB_L1D_Prefetch_miss_rate 0
Core_0_STLB_Other_miss 0
Core_0_STLB_Other_miss_rate 0
