[VMEM] WARNING: physical memory size is smaller than virtual memory size.

*** ChampSim Multicore Out-of-Order Simulator ***
Warmup Instructions: 20000000
Simulation Instructions: 50000000
Number of CPUs: 1
Page size: 4096
Core 0: /data0/tzh/champsim_traces/SPEC17/657.xz_s-4994B.champsimtrace.xz
Off-chip DRAM Size: 4 GiB Channels: 1 Width: 64-bit Data Rate: 3205 MT/s
Warmup halting CPU 0 at instruction 20000004 cycle 4105418 for remainder of phase
Warmup finished CPU 0 instructions: 20000004 cycles: 4105418 cumulative IPC: 4.872 (Simulation time: 00 hr 00 min 40 sec)
Warmup complete CPU 0 instructions: 20000004 cycles: 4105418 cumulative IPC: 4.872 (Simulation time: 00 hr 00 min 40 sec)
Simulation finished CPU 0 instructions: 50000000 cycles: 25657400 cumulative IPC: 1.949 (Simulation time: 00 hr 03 min 56 sec)
Simulation complete CPU 0 instructions: 50000000 cycles: 25657400 cumulative IPC: 1.949 (Simulation time: 00 hr 03 min 56 sec)

ChampSim completed all CPUs

=== Simulation ===
CPU 0 runs /data0/tzh/champsim_traces/SPEC17/657.xz_s-4994B.champsimtrace.xz

Region of Interest Statistics

CPU 0 cumulative IPC: 1.949 instructions: 50000000 cycles: 25657400
CPU 0 Branch Prediction Accuracy: 86.35% MPKI: 14.3 Average ROB Occupancy at Mispredict: 29.61
Branch type MPKI
BRANCH_DIRECT_JUMP: 6e-05
BRANCH_INDIRECT: 0.00092
BRANCH_CONDITIONAL: 14.3
BRANCH_DIRECT_CALL: 0
BRANCH_INDIRECT_CALL: 0
BRANCH_RETURN: 0

cpu0->cpu0_STLB TOTAL        ACCESS:        402 HIT:        257 MISS:        145 MSHR_MERGE:          0
cpu0->cpu0_STLB LOAD         ACCESS:        402 HIT:        257 MISS:        145 MSHR_MERGE:          0
cpu0->cpu0_STLB RFO          ACCESS:          0 HIT:          0 MISS:          0 MSHR_MERGE:          0
cpu0->cpu0_STLB PREFETCH     ACCESS:          0 HIT:          0 MISS:          0 MSHR_MERGE:          0
cpu0->cpu0_STLB WRITE        ACCESS:          0 HIT:          0 MISS:          0 MSHR_MERGE:          0
cpu0->cpu0_STLB TRANSLATION  ACCESS:          0 HIT:          0 MISS:          0 MSHR_MERGE:          0
cpu0->cpu0_STLB PREFETCH REQUESTED:          0 ISSUED:          0 USEFUL:          0 USELESS:          0 LATE:          0
cpu0->cpu0_STLB AVERAGE MISS LATENCY: 240.8 cycles
cpu0->cpu0_L2C TOTAL        ACCESS:      32547 HIT:      23143 MISS:       9404 MSHR_MERGE:          0
cpu0->cpu0_L2C LOAD         ACCESS:       9706 HIT:       7059 MISS:       2647 MSHR_MERGE:          0
cpu0->cpu0_L2C RFO          ACCESS:       9952 HIT:       3254 MISS:       6698 MSHR_MERGE:          0
cpu0->cpu0_L2C PREFETCH     ACCESS:          0 HIT:          0 MISS:          0 MSHR_MERGE:          0
cpu0->cpu0_L2C WRITE        ACCESS:      12806 HIT:      12767 MISS:         39 MSHR_MERGE:          0
cpu0->cpu0_L2C TRANSLATION  ACCESS:         83 HIT:         63 MISS:         20 MSHR_MERGE:          0
cpu0->cpu0_L2C PREFETCH REQUESTED:          0 ISSUED:          0 USEFUL:          0 USELESS:          0 LATE:          0
cpu0->cpu0_L2C AVERAGE MISS LATENCY: 148.6 cycles
cpu0->cpu0_L1I TOTAL        ACCESS:     385973 HIT:     385973 MISS:          0 MSHR_MERGE:          0
cpu0->cpu0_L1I LOAD         ACCESS:     385973 HIT:     385973 MISS:          0 MSHR_MERGE:          0
cpu0->cpu0_L1I RFO          ACCESS:          0 HIT:          0 MISS:          0 MSHR_MERGE:          0
cpu0->cpu0_L1I PREFETCH     ACCESS:          0 HIT:          0 MISS:          0 MSHR_MERGE:          0
cpu0->cpu0_L1I WRITE        ACCESS:          0 HIT:          0 MISS:          0 MSHR_MERGE:          0
cpu0->cpu0_L1I TRANSLATION  ACCESS:          0 HIT:          0 MISS:          0 MSHR_MERGE:          0
cpu0->cpu0_L1I PREFETCH REQUESTED:          0 ISSUED:          0 USEFUL:          0 USELESS:          0 LATE:          0
cpu0->cpu0_L1I AVERAGE MISS LATENCY: - cycles
cpu0->cpu0_L1D TOTAL        ACCESS:    7809393 HIT:    7741817 MISS:      67576 MSHR_MERGE:      47835
cpu0->cpu0_L1D LOAD         ACCESS:    4677457 HIT:    4664122 MISS:      13335 MSHR_MERGE:       3629
cpu0->cpu0_L1D RFO          ACCESS:          0 HIT:          0 MISS:          0 MSHR_MERGE:          0
cpu0->cpu0_L1D PREFETCH     ACCESS:          0 HIT:          0 MISS:          0 MSHR_MERGE:          0
cpu0->cpu0_L1D WRITE        ACCESS:    3131645 HIT:    3077487 MISS:      54158 MSHR_MERGE:      44206
cpu0->cpu0_L1D TRANSLATION  ACCESS:        291 HIT:        208 MISS:         83 MSHR_MERGE:          0
cpu0->cpu0_L1D PREFETCH REQUESTED:          0 ISSUED:          0 USEFUL:          0 USELESS:          0 LATE:          0
cpu0->cpu0_L1D AVERAGE MISS LATENCY: 79.26 cycles
cpu0->cpu0_ITLB TOTAL        ACCESS:     383431 HIT:     383431 MISS:          0 MSHR_MERGE:          0
cpu0->cpu0_ITLB LOAD         ACCESS:     383431 HIT:     383431 MISS:          0 MSHR_MERGE:          0
cpu0->cpu0_ITLB RFO          ACCESS:          0 HIT:          0 MISS:          0 MSHR_MERGE:          0
cpu0->cpu0_ITLB PREFETCH     ACCESS:          0 HIT:          0 MISS:          0 MSHR_MERGE:          0
cpu0->cpu0_ITLB WRITE        ACCESS:          0 HIT:          0 MISS:          0 MSHR_MERGE:          0
cpu0->cpu0_ITLB TRANSLATION  ACCESS:          0 HIT:          0 MISS:          0 MSHR_MERGE:          0
cpu0->cpu0_ITLB PREFETCH REQUESTED:          0 ISSUED:          0 USEFUL:          0 USELESS:          0 LATE:          0
cpu0->cpu0_ITLB AVERAGE MISS LATENCY: - cycles
cpu0->cpu0_DTLB TOTAL        ACCESS:    7330671 HIT:    7329479 MISS:       1192 MSHR_MERGE:        790
cpu0->cpu0_DTLB LOAD         ACCESS:    7330671 HIT:    7329479 MISS:       1192 MSHR_MERGE:        790
cpu0->cpu0_DTLB RFO          ACCESS:          0 HIT:          0 MISS:          0 MSHR_MERGE:          0
cpu0->cpu0_DTLB PREFETCH     ACCESS:          0 HIT:          0 MISS:          0 MSHR_MERGE:          0
cpu0->cpu0_DTLB WRITE        ACCESS:          0 HIT:          0 MISS:          0 MSHR_MERGE:          0
cpu0->cpu0_DTLB TRANSLATION  ACCESS:          0 HIT:          0 MISS:          0 MSHR_MERGE:          0
cpu0->cpu0_DTLB PREFETCH REQUESTED:          0 ISSUED:          0 USEFUL:          0 USELESS:          0 LATE:          0
cpu0->cpu0_DTLB AVERAGE MISS LATENCY: 92.21 cycles
cpu0->LLC TOTAL        ACCESS:      12862 HIT:       3642 MISS:       9220 MSHR_MERGE:          0
cpu0->LLC LOAD         ACCESS:       2647 HIT:        134 MISS:       2513 MSHR_MERGE:          0
cpu0->LLC RFO          ACCESS:       6698 HIT:         10 MISS:       6688 MSHR_MERGE:          0
cpu0->LLC PREFETCH     ACCESS:          0 HIT:          0 MISS:          0 MSHR_MERGE:          0
cpu0->LLC WRITE        ACCESS:       3497 HIT:       3497 MISS:          0 MSHR_MERGE:          0
cpu0->LLC TRANSLATION  ACCESS:         20 HIT:          1 MISS:         19 MSHR_MERGE:          0
cpu0->LLC PREFETCH REQUESTED:          0 ISSUED:          0 USEFUL:          0 USELESS:          0 LATE:          0
cpu0->LLC AVERAGE MISS LATENCY: 135.3 cycles

DRAM Statistics

Channel 0 RQ ROW_BUFFER_HIT:       2194
  ROW_BUFFER_MISS:       7026
  AVG DBUS CONGESTED CYCLE: 2.329
Channel 0 WQ ROW_BUFFER_HIT:          0
  ROW_BUFFER_MISS:          0
  FULL:          0
Channel 0 REFRESHES ISSUED:       2138

[ROI Statistics]
[System Configuration]
num_cpus 1
cpu_freq 4000
fetch_width 6
decode_width 6
dispatch_width 6
execute_width 6
lq_width 2
sq_width 2
retire_width 6
scheduler_size 160
branch_mispredict_penalty 1
rob_size 352
lq_size 240
sq_size 112
ifetch_buffer_size 64
decode_buffer_size 32
dispatch_buffer_size 32
register_file_size 288
decode_latency 1
dispatch_latency 1
schedule_latency 0
execute_latency 0
page_size 4096
block_size 64
core_0_itlb_set 16
core_0_itlb_way 4
core_0_itlb_rq_size 16
core_0_itlb_wq_size 16
core_0_itlb_pq_size 0
core_0_itlb_mshr_size 8
core_0_itlb_hit_latency 1
core_0_itlb_fill_latency 1
core_0_itlb_max_tag_check 2
core_0_itlb_max_fill 2
core_0_dtlb_set 16
core_0_dtlb_way 4
core_0_dtlb_rq_size 16
core_0_dtlb_wq_size 16
core_0_dtlb_pq_size 0
core_0_dtlb_mshr_size 8
core_0_dtlb_hit_latency 1
core_0_dtlb_fill_latency 1
core_0_dtlb_max_tag_check 2
core_0_dtlb_max_fill 2
core_0_stlb_set 128
core_0_stlb_way 12
core_0_stlb_rq_size 32
core_0_stlb_wq_size 32
core_0_stlb_pq_size 0
core_0_stlb_mshr_size 16
core_0_stlb_hit_latency 4
core_0_stlb_fill_latency 4
core_0_stlb_max_tag_check 1
core_0_stlb_max_fill 1
core_0_l1i_set 64
core_0_l1i_way 8
core_0_l1i_rq_size 64
core_0_l1i_wq_size 64
core_0_l1i_pq_size 32
core_0_l1i_mshr_size 8
core_0_l1i_hit_latency 2
core_0_l1i_fill_latency 2
core_0_l1i_max_tag_check 2
core_0_l1i_max_fill 2
core_0_l1d_set 64
core_0_l1d_way 12
core_0_l1d_rq_size 64
core_0_l1d_wq_size 64
core_0_l1d_pq_size 8
core_0_l1d_mshr_size 16
core_0_l1d_hit_latency 2
core_0_l1d_fill_latency 3
core_0_l1d_max_tag_check 2
core_0_l1d_max_fill 2
core_0_l2c_set 1024
core_0_l2c_way 8
core_0_l2c_rq_size 32
core_0_l2c_wq_size 32
core_0_l2c_pq_size 16
core_0_l2c_mshr_size 32
core_0_l2c_hit_latency 5
core_0_l2c_fill_latency 5
core_0_l2c_max_tag_check 1
core_0_l2c_max_fill 1
llc_set 2048
llc_way 16
llc_rq_size 32
llc_wq_size 32
llc_pq_size 32
llc_mshr_size 64
llc_hit_latency 10
llc_fill_latency 10
llc_max_tag_check 1
llc_max_fill 1
dram_channels 1
dram_ranks 1
dram_bankgroups 8
dram_banks 4
dram_rows 16384
dram_columns 1024
dram_channel_width 8
dram_rq_size 64
dram_wq_size 64
dram_size 4294967296
core_0_itlb_prefetcher no
core_0_dtlb_prefetcher no
core_0_stlb_prefetcher no
core_0_l1i_prefetcher no
core_0_l1d_prefetcher no
core_0_l2c_prefetcher no
llc_prefetcher no
llc_replacement drrip

Core_0_instructions 50000000
Core_0_cycles 25657400
Core_0_IPC 1.94876
Core_0_branch_prediction_accuracy 86.3502
Core_0_branch_MPKI 14.301
Core_0_average_ROB_occupancy_at_mispredict 29.614

Core_0_ITLB_total_access 383431
Core_0_ITLB_total_hit 383431
Core_0_ITLB_total_miss 0
Core_0_ITLB_total_MPKI 0
Core_0_ITLB_total_miss_rate 0
Core_0_ITLB_demand_access 383431
Core_0_ITLB_demand_hit 383431
Core_0_ITLB_demand_miss 0
Core_0_ITLB_demand_MPKI 0
Core_0_ITLB_demand_miss_rate 0
Core_0_ITLB_load_access 383431
Core_0_ITLB_load_hit 383431
Core_0_ITLB_load_miss 0
Core_0_ITLB_load_MPKI 0
Core_0_ITLB_load_miss_rate 0
Core_0_ITLB_rfo_access 0
Core_0_ITLB_rfo_hit 0
Core_0_ITLB_rfo_miss 0
Core_0_ITLB_rfo_MPKI 0
Core_0_ITLB_rfo_miss_rate 0
Core_0_ITLB_prefetch_access 0
Core_0_ITLB_prefetch_hit 0
Core_0_ITLB_prefetch_miss 0
Core_0_ITLB_prefetch_MPKI 0
Core_0_ITLB_prefetch_miss_rate 0
Core_0_ITLB_writeback_access 0
Core_0_ITLB_writeback_hit 0
Core_0_ITLB_writeback_miss 0
Core_0_ITLB_writeback_MPKI 0
Core_0_ITLB_writeback_miss_rate 0
Core_0_ITLB_prefetch_requested 0
Core_0_ITLB_prefetch_issued 0
Core_0_ITLB_prefetch_useful 0
Core_0_ITLB_prefetch_useless 0
Core_0_ITLB_prefetch_late 0
Core_0_ITLB_prefetch_accuracy 0
Core_0_ITLB_prefetch_coverage 0

Core_0_DTLB_total_access 7330671
Core_0_DTLB_total_hit 7329479
Core_0_DTLB_total_miss 1192
Core_0_DTLB_total_MPKI 0.02384
Core_0_DTLB_total_miss_rate 0.000162604
Core_0_DTLB_demand_access 7330671
Core_0_DTLB_demand_hit 7329479
Core_0_DTLB_demand_miss 1192
Core_0_DTLB_demand_MPKI 0.02384
Core_0_DTLB_demand_miss_rate 0.000162604
Core_0_DTLB_load_access 7330671
Core_0_DTLB_load_hit 7329479
Core_0_DTLB_load_miss 1192
Core_0_DTLB_load_MPKI 0.02384
Core_0_DTLB_load_miss_rate 0.000162604
Core_0_DTLB_rfo_access 0
Core_0_DTLB_rfo_hit 0
Core_0_DTLB_rfo_miss 0
Core_0_DTLB_rfo_MPKI 0
Core_0_DTLB_rfo_miss_rate 0
Core_0_DTLB_prefetch_access 0
Core_0_DTLB_prefetch_hit 0
Core_0_DTLB_prefetch_miss 0
Core_0_DTLB_prefetch_MPKI 0
Core_0_DTLB_prefetch_miss_rate 0
Core_0_DTLB_writeback_access 0
Core_0_DTLB_writeback_hit 0
Core_0_DTLB_writeback_miss 0
Core_0_DTLB_writeback_MPKI 0
Core_0_DTLB_writeback_miss_rate 0
Core_0_DTLB_prefetch_requested 0
Core_0_DTLB_prefetch_issued 0
Core_0_DTLB_prefetch_useful 0
Core_0_DTLB_prefetch_useless 0
Core_0_DTLB_prefetch_late 0
Core_0_DTLB_prefetch_accuracy 0
Core_0_DTLB_prefetch_coverage 0

Core_0_STLB_total_access 402
Core_0_STLB_total_hit 257
Core_0_STLB_total_miss 145
Core_0_STLB_total_MPKI 0.0029
Core_0_STLB_total_miss_rate 0.360697
Core_0_STLB_demand_access 402
Core_0_STLB_demand_hit 257
Core_0_STLB_demand_miss 145
Core_0_STLB_demand_MPKI 0.0029
Core_0_STLB_demand_miss_rate 0.360697
Core_0_STLB_load_access 402
Core_0_STLB_load_hit 257
Core_0_STLB_load_miss 145
Core_0_STLB_load_MPKI 0.0029
Core_0_STLB_load_miss_rate 0.360697
Core_0_STLB_rfo_access 0
Core_0_STLB_rfo_hit 0
Core_0_STLB_rfo_miss 0
Core_0_STLB_rfo_MPKI 0
Core_0_STLB_rfo_miss_rate 0
Core_0_STLB_prefetch_access 0
Core_0_STLB_prefetch_hit 0
Core_0_STLB_prefetch_miss 0
Core_0_STLB_prefetch_MPKI 0
Core_0_STLB_prefetch_miss_rate 0
Core_0_STLB_writeback_access 0
Core_0_STLB_writeback_hit 0
Core_0_STLB_writeback_miss 0
Core_0_STLB_writeback_MPKI 0
Core_0_STLB_writeback_miss_rate 0
Core_0_STLB_prefetch_requested 0
Core_0_STLB_prefetch_issued 0
Core_0_STLB_prefetch_useful 0
Core_0_STLB_prefetch_useless 0
Core_0_STLB_prefetch_late 0
Core_0_STLB_prefetch_accuracy 0
Core_0_STLB_prefetch_coverage 0

Core_0_L1I_total_access 385973
Core_0_L1I_total_hit 385973
Core_0_L1I_total_miss 0
Core_0_L1I_total_MPKI 0
Core_0_L1I_total_miss_rate 0
Core_0_L1I_demand_access 385973
Core_0_L1I_demand_hit 385973
Core_0_L1I_demand_miss 0
Core_0_L1I_demand_MPKI 0
Core_0_L1I_demand_miss_rate 0
Core_0_L1I_load_access 385973
Core_0_L1I_load_hit 385973
Core_0_L1I_load_miss 0
Core_0_L1I_load_MPKI 0
Core_0_L1I_load_miss_rate 0
Core_0_L1I_rfo_access 0
Core_0_L1I_rfo_hit 0
Core_0_L1I_rfo_miss 0
Core_0_L1I_rfo_MPKI 0
Core_0_L1I_rfo_miss_rate 0
Core_0_L1I_prefetch_access 0
Core_0_L1I_prefetch_hit 0
Core_0_L1I_prefetch_miss 0
Core_0_L1I_prefetch_MPKI 0
Core_0_L1I_prefetch_miss_rate 0
Core_0_L1I_writeback_access 0
Core_0_L1I_writeback_hit 0
Core_0_L1I_writeback_miss 0
Core_0_L1I_writeback_MPKI 0
Core_0_L1I_writeback_miss_rate 0
Core_0_L1I_prefetch_requested 0
Core_0_L1I_prefetch_issued 0
Core_0_L1I_prefetch_useful 0
Core_0_L1I_prefetch_useless 0
Core_0_L1I_prefetch_late 0
Core_0_L1I_prefetch_accuracy 0
Core_0_L1I_prefetch_coverage 0

Core_0_L1D_total_access 7809102
Core_0_L1D_total_hit 7741609
Core_0_L1D_total_miss 67493
Core_0_L1D_total_MPKI 1.34986
Core_0_L1D_total_miss_rate 0.00864286
Core_0_L1D_demand_access 4677457
Core_0_L1D_demand_hit 4664122
Core_0_L1D_demand_miss 13335
Core_0_L1D_demand_MPKI 0.2667
Core_0_L1D_demand_miss_rate 0.00285091
Core_0_L1D_load_access 4677457
Core_0_L1D_load_hit 4664122
Core_0_L1D_load_miss 13335
Core_0_L1D_load_MPKI 0.2667
Core_0_L1D_load_miss_rate 0.00285091
Core_0_L1D_rfo_access 0
Core_0_L1D_rfo_hit 0
Core_0_L1D_rfo_miss 0
Core_0_L1D_rfo_MPKI 0
Core_0_L1D_rfo_miss_rate 0
Core_0_L1D_prefetch_access 0
Core_0_L1D_prefetch_hit 0
Core_0_L1D_prefetch_miss 0
Core_0_L1D_prefetch_MPKI 0
Core_0_L1D_prefetch_miss_rate 0
Core_0_L1D_writeback_access 3131645
Core_0_L1D_writeback_hit 3077487
Core_0_L1D_writeback_miss 54158
Core_0_L1D_writeback_MPKI 1.08316
Core_0_L1D_writeback_miss_rate 0.0172938
Core_0_L1D_prefetch_requested 0
Core_0_L1D_prefetch_issued 0
Core_0_L1D_prefetch_useful 0
Core_0_L1D_prefetch_useless 0
Core_0_L1D_prefetch_late 0
Core_0_L1D_prefetch_accuracy 0
Core_0_L1D_prefetch_coverage 0

Core_0_L2C_total_access 32464
Core_0_L2C_total_hit 23080
Core_0_L2C_total_miss 9384
Core_0_L2C_total_MPKI 0.18768
Core_0_L2C_total_miss_rate 0.289059
Core_0_L2C_demand_access 19658
Core_0_L2C_demand_hit 10313
Core_0_L2C_demand_miss 9345
Core_0_L2C_demand_MPKI 0.1869
Core_0_L2C_demand_miss_rate 0.475379
Core_0_L2C_load_access 9706
Core_0_L2C_load_hit 7059
Core_0_L2C_load_miss 2647
Core_0_L2C_load_MPKI 0.05294
Core_0_L2C_load_miss_rate 0.272718
Core_0_L2C_rfo_access 9952
Core_0_L2C_rfo_hit 3254
Core_0_L2C_rfo_miss 6698
Core_0_L2C_rfo_MPKI 0.13396
Core_0_L2C_rfo_miss_rate 0.673031
Core_0_L2C_prefetch_access 0
Core_0_L2C_prefetch_hit 0
Core_0_L2C_prefetch_miss 0
Core_0_L2C_prefetch_MPKI 0
Core_0_L2C_prefetch_miss_rate 0
Core_0_L2C_writeback_access 12806
Core_0_L2C_writeback_hit 12767
Core_0_L2C_writeback_miss 39
Core_0_L2C_writeback_MPKI 0.00078
Core_0_L2C_writeback_miss_rate 0.00304545
Core_0_L2C_prefetch_requested 0
Core_0_L2C_prefetch_issued 0
Core_0_L2C_prefetch_useful 0
Core_0_L2C_prefetch_useless 0
Core_0_L2C_prefetch_late 0
Core_0_L2C_prefetch_accuracy 0
Core_0_L2C_prefetch_coverage 0

Core_0_LLC_total_access 12842
Core_0_LLC_total_hit 3641
Core_0_LLC_total_miss 9201
Core_0_LLC_total_MPKI 0.18402
Core_0_LLC_total_miss_rate 0.716477
Core_0_LLC_demand_access 9345
Core_0_LLC_demand_hit 144
Core_0_LLC_demand_miss 9201
Core_0_LLC_demand_MPKI 0.18402
Core_0_LLC_demand_miss_rate 0.984591
Core_0_LLC_load_access 2647
Core_0_LLC_load_hit 134
Core_0_LLC_load_miss 2513
Core_0_LLC_load_MPKI 0.05026
Core_0_LLC_load_miss_rate 0.949377
Core_0_LLC_rfo_access 6698
Core_0_LLC_rfo_hit 10
Core_0_LLC_rfo_miss 6688
Core_0_LLC_rfo_MPKI 0.13376
Core_0_LLC_rfo_miss_rate 0.998507
Core_0_LLC_prefetch_access 0
Core_0_LLC_prefetch_hit 0
Core_0_LLC_prefetch_miss 0
Core_0_LLC_prefetch_MPKI 0
Core_0_LLC_prefetch_miss_rate 0
Core_0_LLC_writeback_access 3497
Core_0_LLC_writeback_hit 3497
Core_0_LLC_writeback_miss 0
Core_0_LLC_writeback_MPKI 0
Core_0_LLC_writeback_miss_rate 0
Core_0_LLC_prefetch_requested 0
Core_0_LLC_prefetch_issued 0
Core_0_LLC_prefetch_useful 0
Core_0_LLC_prefetch_useless 0
Core_0_LLC_prefetch_late 0
Core_0_LLC_prefetch_accuracy 0
Core_0_LLC_prefetch_coverage 0

[DRAM Statistics]
Channel_0_RQ_row_buffer_hit 2194
Channel_0_RQ_row_buffer_miss 7026
Channel_0_WQ_row_buffer_hit 0
Channel_0_WQ_row_buffer_miss 0
Channel_0_WQ_full 0
Channel_0_dbus_congested 629
DRAM_total_RQ_row_buffer_hit 2194
DRAM_total_RQ_row_buffer_miss 7026
DRAM_total_WQ_row_buffer_hit 0
DRAM_total_WQ_row_buffer_miss 0
DRAM_total_WQ_full 0
DRAM_total_dbus_congested 629
DRAM_avg_congested_cycle 2.32909

======STLB miss causes ========
Core_0_STLB_miss_cause_breakdown
Core_0_STLB_cause_Demand_Data_miss 145
Core_0_STLB_cause_Demand_Data_miss_rate 0.360697
Core_0_STLB_cause_Demand_Instruction_miss 0
Core_0_STLB_cause_Demand_Instruction_miss_rate 0
Core_0_STLB_cause_L1D_Prefetch_miss 0
Core_0_STLB_cause_L1D_Prefetch_miss_rate 0
Core_0_STLB_cause_L1I_Prefetch_miss 0
Core_0_STLB_cause_L1I_Prefetch_miss_rate 0
Core_0_STLB_cause_Other_miss 0
Core_0_STLB_cause_Other_miss_rate 0
Core_0_STLB_Demand_miss 145
Core_0_STLB_Demand_miss_rate 0.360697
Core_0_STLB_L1D_Prefetch_miss 0
Core_0_STLB_L1D_Prefetch_miss_rate 0
Core_0_STLB_Other_miss 0
Core_0_STLB_Other_miss_rate 0
