[VMEM] WARNING: physical memory size is smaller than virtual memory size.

*** ChampSim Multicore Out-of-Order Simulator ***
Warmup Instructions: 20000000
Simulation Instructions: 50000000
Number of CPUs: 1
Page size: 4096
Core 0: /data0/tzh/champsim_traces/Ligra/ligra_BellmanFord.com-lj.ungraph.gcc_6.3.0_O3.drop_33750M.length_250M.champsimtrace.xz
Off-chip DRAM Size: 4 GiB Channels: 1 Width: 64-bit Data Rate: 3205 MT/s
Warmup halting CPU 0 at instruction 20000001 cycle 5525113 for remainder of phase
Warmup finished CPU 0 instructions: 20000001 cycles: 5525113 cumulative IPC: 3.62 (Simulation time: 00 hr 01 min 13 sec)
Warmup complete CPU 0 instructions: 20000001 cycles: 5525113 cumulative IPC: 3.62 (Simulation time: 00 hr 01 min 13 sec)
Simulation finished CPU 0 instructions: 50000000 cycles: 122959454 cumulative IPC: 0.4066 (Simulation time: 00 hr 11 min 49 sec)
Simulation complete CPU 0 instructions: 50000000 cycles: 122959454 cumulative IPC: 0.4066 (Simulation time: 00 hr 11 min 49 sec)

ChampSim completed all CPUs

=== Simulation ===
CPU 0 runs /data0/tzh/champsim_traces/Ligra/ligra_BellmanFord.com-lj.ungraph.gcc_6.3.0_O3.drop_33750M.length_250M.champsimtrace.xz

Region of Interest Statistics

CPU 0 cumulative IPC: 0.4066 instructions: 50000000 cycles: 122959454
CPU 0 Branch Prediction Accuracy: 92.91% MPKI: 10.12 Average ROB Occupancy at Mispredict: 56.37
Branch type MPKI
BRANCH_DIRECT_JUMP: 0.4477
BRANCH_INDIRECT: 0
BRANCH_CONDITIONAL: 9.672
BRANCH_DIRECT_CALL: 0
BRANCH_INDIRECT_CALL: 0
BRANCH_RETURN: 0

cpu0->cpu0_STLB TOTAL        ACCESS:     985404 HIT:     650455 MISS:     334949 MSHR_MERGE:          0
cpu0->cpu0_STLB LOAD         ACCESS:     985404 HIT:     650455 MISS:     334949 MSHR_MERGE:          0
cpu0->cpu0_STLB RFO          ACCESS:          0 HIT:          0 MISS:          0 MSHR_MERGE:          0
cpu0->cpu0_STLB PREFETCH     ACCESS:          0 HIT:          0 MISS:          0 MSHR_MERGE:          0
cpu0->cpu0_STLB WRITE        ACCESS:          0 HIT:          0 MISS:          0 MSHR_MERGE:          0
cpu0->cpu0_STLB TRANSLATION  ACCESS:          0 HIT:          0 MISS:          0 MSHR_MERGE:          0
cpu0->cpu0_STLB PREFETCH REQUESTED:          0 ISSUED:          0 USEFUL:          0 USELESS:          0 LATE:          0
cpu0->cpu0_STLB AVERAGE MISS LATENCY: 35.95 cycles
cpu0->cpu0_L2C TOTAL        ACCESS:    2174486 HIT:     510016 MISS:    1664470 MSHR_MERGE:          0
cpu0->cpu0_L2C LOAD         ACCESS:    1744362 HIT:     170631 MISS:    1573731 MSHR_MERGE:          0
cpu0->cpu0_L2C RFO          ACCESS:      39716 HIT:       3909 MISS:      35807 MSHR_MERGE:          0
cpu0->cpu0_L2C PREFETCH     ACCESS:          0 HIT:          0 MISS:          0 MSHR_MERGE:          0
cpu0->cpu0_L2C WRITE        ACCESS:     134208 HIT:     134198 MISS:         10 MSHR_MERGE:          0
cpu0->cpu0_L2C TRANSLATION  ACCESS:     256200 HIT:     201278 MISS:      54922 MSHR_MERGE:          0
cpu0->cpu0_L2C PREFETCH REQUESTED:          0 ISSUED:          0 USEFUL:          0 USELESS:          0 LATE:          0
cpu0->cpu0_L2C AVERAGE MISS LATENCY: 186.9 cycles
cpu0->cpu0_L1I TOTAL        ACCESS:    1060371 HIT:    1060369 MISS:          2 MSHR_MERGE:          0
cpu0->cpu0_L1I LOAD         ACCESS:    1060371 HIT:    1060369 MISS:          2 MSHR_MERGE:          0
cpu0->cpu0_L1I RFO          ACCESS:          0 HIT:          0 MISS:          0 MSHR_MERGE:          0
cpu0->cpu0_L1I PREFETCH     ACCESS:          0 HIT:          0 MISS:          0 MSHR_MERGE:          0
cpu0->cpu0_L1I WRITE        ACCESS:          0 HIT:          0 MISS:          0 MSHR_MERGE:          0
cpu0->cpu0_L1I TRANSLATION  ACCESS:          0 HIT:          0 MISS:          0 MSHR_MERGE:          0
cpu0->cpu0_L1I PREFETCH REQUESTED:          0 ISSUED:          0 USEFUL:          0 USELESS:          0 LATE:          0
cpu0->cpu0_L1I AVERAGE MISS LATENCY: 224.5 cycles
cpu0->cpu0_L1D TOTAL        ACCESS:   13444442 HIT:    8783714 MISS:    4660728 MSHR_MERGE:    2620451
cpu0->cpu0_L1D LOAD         ACCESS:   12548306 HIT:    8194419 MISS:    4353887 MSHR_MERGE:    2609526
cpu0->cpu0_L1D RFO          ACCESS:          0 HIT:          0 MISS:          0 MSHR_MERGE:          0
cpu0->cpu0_L1D PREFETCH     ACCESS:          0 HIT:          0 MISS:          0 MSHR_MERGE:          0
cpu0->cpu0_L1D WRITE        ACCESS:     228077 HIT:     178688 MISS:      49389 MSHR_MERGE:       9673
cpu0->cpu0_L1D TRANSLATION  ACCESS:     668059 HIT:     410607 MISS:     257452 MSHR_MERGE:       1252
cpu0->cpu0_L1D PREFETCH REQUESTED:          0 ISSUED:          0 USEFUL:          0 USELESS:          0 LATE:          0
cpu0->cpu0_L1D AVERAGE MISS LATENCY: 161.4 cycles
cpu0->cpu0_ITLB TOTAL        ACCESS:    1060368 HIT:    1060368 MISS:          0 MSHR_MERGE:          0
cpu0->cpu0_ITLB LOAD         ACCESS:    1060368 HIT:    1060368 MISS:          0 MSHR_MERGE:          0
cpu0->cpu0_ITLB RFO          ACCESS:          0 HIT:          0 MISS:          0 MSHR_MERGE:          0
cpu0->cpu0_ITLB PREFETCH     ACCESS:          0 HIT:          0 MISS:          0 MSHR_MERGE:          0
cpu0->cpu0_ITLB WRITE        ACCESS:          0 HIT:          0 MISS:          0 MSHR_MERGE:          0
cpu0->cpu0_ITLB TRANSLATION  ACCESS:          0 HIT:          0 MISS:          0 MSHR_MERGE:          0
cpu0->cpu0_ITLB PREFETCH REQUESTED:          0 ISSUED:          0 USEFUL:          0 USELESS:          0 LATE:          0
cpu0->cpu0_ITLB AVERAGE MISS LATENCY: - cycles
cpu0->cpu0_DTLB TOTAL        ACCESS:   12775202 HIT:   11557361 MISS:    1217841 MSHR_MERGE:     232438
cpu0->cpu0_DTLB LOAD         ACCESS:   12775202 HIT:   11557361 MISS:    1217841 MSHR_MERGE:     232438
cpu0->cpu0_DTLB RFO          ACCESS:          0 HIT:          0 MISS:          0 MSHR_MERGE:          0
cpu0->cpu0_DTLB PREFETCH     ACCESS:          0 HIT:          0 MISS:          0 MSHR_MERGE:          0
cpu0->cpu0_DTLB WRITE        ACCESS:          0 HIT:          0 MISS:          0 MSHR_MERGE:          0
cpu0->cpu0_DTLB TRANSLATION  ACCESS:          0 HIT:          0 MISS:          0 MSHR_MERGE:          0
cpu0->cpu0_DTLB PREFETCH REQUESTED:          0 ISSUED:          0 USEFUL:          0 USELESS:          0 LATE:          0
cpu0->cpu0_DTLB AVERAGE MISS LATENCY: 17.56 cycles
cpu0->LLC TOTAL        ACCESS:    1787298 HIT:     319804 MISS:    1467494 MSHR_MERGE:          0
cpu0->LLC LOAD         ACCESS:    1573731 HIT:     216782 MISS:    1356949 MSHR_MERGE:          0
cpu0->LLC RFO          ACCESS:      35807 HIT:       3165 MISS:      32642 MSHR_MERGE:          0
cpu0->LLC PREFETCH     ACCESS:          0 HIT:          0 MISS:          0 MSHR_MERGE:          0
cpu0->LLC WRITE        ACCESS:     122838 HIT:      50443 MISS:      72395 MSHR_MERGE:          0
cpu0->LLC TRANSLATION  ACCESS:      54922 HIT:      49414 MISS:       5508 MSHR_MERGE:          0
cpu0->LLC PREFETCH REQUESTED:          0 ISSUED:          0 USEFUL:          0 USELESS:          0 LATE:          0
cpu0->LLC AVERAGE MISS LATENCY: 194.5 cycles

DRAM Statistics

Channel 0 RQ ROW_BUFFER_HIT:      13883
  ROW_BUFFER_MISS:    1381166
  AVG DBUS CONGESTED CYCLE: 12.26
Channel 0 WQ ROW_BUFFER_HIT:      32371
  ROW_BUFFER_MISS:      69221
  FULL:          0
Channel 0 REFRESHES ISSUED:      10247

[ROI Statistics]
[System Configuration]
num_cpus 1
cpu_freq 4000
fetch_width 6
decode_width 6
dispatch_width 6
execute_width 6
lq_width 2
sq_width 2
retire_width 6
scheduler_size 160
branch_mispredict_penalty 1
rob_size 352
lq_size 240
sq_size 112
ifetch_buffer_size 64
decode_buffer_size 32
dispatch_buffer_size 32
register_file_size 288
decode_latency 1
dispatch_latency 1
schedule_latency 0
execute_latency 0
page_size 4096
block_size 64
core_0_itlb_set 16
core_0_itlb_way 4
core_0_itlb_rq_size 16
core_0_itlb_wq_size 16
core_0_itlb_pq_size 0
core_0_itlb_mshr_size 8
core_0_itlb_hit_latency 1
core_0_itlb_fill_latency 1
core_0_itlb_max_tag_check 2
core_0_itlb_max_fill 2
core_0_dtlb_set 16
core_0_dtlb_way 4
core_0_dtlb_rq_size 16
core_0_dtlb_wq_size 16
core_0_dtlb_pq_size 0
core_0_dtlb_mshr_size 8
core_0_dtlb_hit_latency 1
core_0_dtlb_fill_latency 1
core_0_dtlb_max_tag_check 2
core_0_dtlb_max_fill 2
core_0_stlb_set 128
core_0_stlb_way 12
core_0_stlb_rq_size 32
core_0_stlb_wq_size 32
core_0_stlb_pq_size 0
core_0_stlb_mshr_size 16
core_0_stlb_hit_latency 4
core_0_stlb_fill_latency 4
core_0_stlb_max_tag_check 1
core_0_stlb_max_fill 1
core_0_l1i_set 64
core_0_l1i_way 8
core_0_l1i_rq_size 64
core_0_l1i_wq_size 64
core_0_l1i_pq_size 32
core_0_l1i_mshr_size 8
core_0_l1i_hit_latency 2
core_0_l1i_fill_latency 2
core_0_l1i_max_tag_check 2
core_0_l1i_max_fill 2
core_0_l1d_set 64
core_0_l1d_way 12
core_0_l1d_rq_size 64
core_0_l1d_wq_size 64
core_0_l1d_pq_size 8
core_0_l1d_mshr_size 16
core_0_l1d_hit_latency 2
core_0_l1d_fill_latency 3
core_0_l1d_max_tag_check 2
core_0_l1d_max_fill 2
core_0_l2c_set 1024
core_0_l2c_way 8
core_0_l2c_rq_size 32
core_0_l2c_wq_size 32
core_0_l2c_pq_size 16
core_0_l2c_mshr_size 32
core_0_l2c_hit_latency 5
core_0_l2c_fill_latency 5
core_0_l2c_max_tag_check 1
core_0_l2c_max_fill 1
llc_set 2048
llc_way 16
llc_rq_size 32
llc_wq_size 32
llc_pq_size 32
llc_mshr_size 64
llc_hit_latency 10
llc_fill_latency 10
llc_max_tag_check 1
llc_max_fill 1
dram_channels 1
dram_ranks 1
dram_bankgroups 8
dram_banks 4
dram_rows 16384
dram_columns 1024
dram_channel_width 8
dram_rq_size 64
dram_wq_size 64
dram_size 4294967296
core_0_itlb_prefetcher no
core_0_dtlb_prefetcher no
core_0_stlb_prefetcher no
core_0_l1i_prefetcher no
core_0_l1d_prefetcher no
core_0_l2c_prefetcher no
llc_prefetcher no
llc_replacement drrip

Core_0_instructions 50000000
Core_0_cycles 122959454
Core_0_IPC 0.406638
Core_0_branch_prediction_accuracy 92.9087
Core_0_branch_MPKI 10.1201
Core_0_average_ROB_occupancy_at_mispredict 56.3653

Core_0_ITLB_total_access 1060368
Core_0_ITLB_total_hit 1060368
Core_0_ITLB_total_miss 0
Core_0_ITLB_total_MPKI 0
Core_0_ITLB_total_miss_rate 0
Core_0_ITLB_demand_access 1060368
Core_0_ITLB_demand_hit 1060368
Core_0_ITLB_demand_miss 0
Core_0_ITLB_demand_MPKI 0
Core_0_ITLB_demand_miss_rate 0
Core_0_ITLB_load_access 1060368
Core_0_ITLB_load_hit 1060368
Core_0_ITLB_load_miss 0
Core_0_ITLB_load_MPKI 0
Core_0_ITLB_load_miss_rate 0
Core_0_ITLB_rfo_access 0
Core_0_ITLB_rfo_hit 0
Core_0_ITLB_rfo_miss 0
Core_0_ITLB_rfo_MPKI 0
Core_0_ITLB_rfo_miss_rate 0
Core_0_ITLB_prefetch_access 0
Core_0_ITLB_prefetch_hit 0
Core_0_ITLB_prefetch_miss 0
Core_0_ITLB_prefetch_MPKI 0
Core_0_ITLB_prefetch_miss_rate 0
Core_0_ITLB_writeback_access 0
Core_0_ITLB_writeback_hit 0
Core_0_ITLB_writeback_miss 0
Core_0_ITLB_writeback_MPKI 0
Core_0_ITLB_writeback_miss_rate 0
Core_0_ITLB_prefetch_requested 0
Core_0_ITLB_prefetch_issued 0
Core_0_ITLB_prefetch_useful 0
Core_0_ITLB_prefetch_useless 0
Core_0_ITLB_prefetch_late 0
Core_0_ITLB_prefetch_accuracy 0
Core_0_ITLB_prefetch_coverage 0

Core_0_DTLB_total_access 12775202
Core_0_DTLB_total_hit 11557361
Core_0_DTLB_total_miss 1217841
Core_0_DTLB_total_MPKI 24.3568
Core_0_DTLB_total_miss_rate 0.0953285
Core_0_DTLB_demand_access 12775202
Core_0_DTLB_demand_hit 11557361
Core_0_DTLB_demand_miss 1217841
Core_0_DTLB_demand_MPKI 24.3568
Core_0_DTLB_demand_miss_rate 0.0953285
Core_0_DTLB_load_access 12775202
Core_0_DTLB_load_hit 11557361
Core_0_DTLB_load_miss 1217841
Core_0_DTLB_load_MPKI 24.3568
Core_0_DTLB_load_miss_rate 0.0953285
Core_0_DTLB_rfo_access 0
Core_0_DTLB_rfo_hit 0
Core_0_DTLB_rfo_miss 0
Core_0_DTLB_rfo_MPKI 0
Core_0_DTLB_rfo_miss_rate 0
Core_0_DTLB_prefetch_access 0
Core_0_DTLB_prefetch_hit 0
Core_0_DTLB_prefetch_miss 0
Core_0_DTLB_prefetch_MPKI 0
Core_0_DTLB_prefetch_miss_rate 0
Core_0_DTLB_writeback_access 0
Core_0_DTLB_writeback_hit 0
Core_0_DTLB_writeback_miss 0
Core_0_DTLB_writeback_MPKI 0
Core_0_DTLB_writeback_miss_rate 0
Core_0_DTLB_prefetch_requested 0
Core_0_DTLB_prefetch_issued 0
Core_0_DTLB_prefetch_useful 0
Core_0_DTLB_prefetch_useless 0
Core_0_DTLB_prefetch_late 0
Core_0_DTLB_prefetch_accuracy 0
Core_0_DTLB_prefetch_coverage 0

Core_0_STLB_total_access 985404
Core_0_STLB_total_hit 650455
Core_0_STLB_total_miss 334949
Core_0_STLB_total_MPKI 6.69898
Core_0_STLB_total_miss_rate 0.33991
Core_0_STLB_demand_access 985404
Core_0_STLB_demand_hit 650455
Core_0_STLB_demand_miss 334949
Core_0_STLB_demand_MPKI 6.69898
Core_0_STLB_demand_miss_rate 0.33991
Core_0_STLB_load_access 985404
Core_0_STLB_load_hit 650455
Core_0_STLB_load_miss 334949
Core_0_STLB_load_MPKI 6.69898
Core_0_STLB_load_miss_rate 0.33991
Core_0_STLB_rfo_access 0
Core_0_STLB_rfo_hit 0
Core_0_STLB_rfo_miss 0
Core_0_STLB_rfo_MPKI 0
Core_0_STLB_rfo_miss_rate 0
Core_0_STLB_prefetch_access 0
Core_0_STLB_prefetch_hit 0
Core_0_STLB_prefetch_miss 0
Core_0_STLB_prefetch_MPKI 0
Core_0_STLB_prefetch_miss_rate 0
Core_0_STLB_writeback_access 0
Core_0_STLB_writeback_hit 0
Core_0_STLB_writeback_miss 0
Core_0_STLB_writeback_MPKI 0
Core_0_STLB_writeback_miss_rate 0
Core_0_STLB_prefetch_requested 0
Core_0_STLB_prefetch_issued 0
Core_0_STLB_prefetch_useful 0
Core_0_STLB_prefetch_useless 0
Core_0_STLB_prefetch_late 0
Core_0_STLB_prefetch_accuracy 0
Core_0_STLB_prefetch_coverage 0

Core_0_L1I_total_access 1060371
Core_0_L1I_total_hit 1060369
Core_0_L1I_total_miss 2
Core_0_L1I_total_MPKI 4e-05
Core_0_L1I_total_miss_rate 1.88613e-06
Core_0_L1I_demand_access 1060371
Core_0_L1I_demand_hit 1060369
Core_0_L1I_demand_miss 2
Core_0_L1I_demand_MPKI 4e-05
Core_0_L1I_demand_miss_rate 1.88613e-06
Core_0_L1I_load_access 1060371
Core_0_L1I_load_hit 1060369
Core_0_L1I_load_miss 2
Core_0_L1I_load_MPKI 4e-05
Core_0_L1I_load_miss_rate 1.88613e-06
Core_0_L1I_rfo_access 0
Core_0_L1I_rfo_hit 0
Core_0_L1I_rfo_miss 0
Core_0_L1I_rfo_MPKI 0
Core_0_L1I_rfo_miss_rate 0
Core_0_L1I_prefetch_access 0
Core_0_L1I_prefetch_hit 0
Core_0_L1I_prefetch_miss 0
Core_0_L1I_prefetch_MPKI 0
Core_0_L1I_prefetch_miss_rate 0
Core_0_L1I_writeback_access 0
Core_0_L1I_writeback_hit 0
Core_0_L1I_writeback_miss 0
Core_0_L1I_writeback_MPKI 0
Core_0_L1I_writeback_miss_rate 0
Core_0_L1I_prefetch_requested 0
Core_0_L1I_prefetch_issued 0
Core_0_L1I_prefetch_useful 0
Core_0_L1I_prefetch_useless 0
Core_0_L1I_prefetch_late 0
Core_0_L1I_prefetch_accuracy 0
Core_0_L1I_prefetch_coverage 0

Core_0_L1D_total_access 12776383
Core_0_L1D_total_hit 8373107
Core_0_L1D_total_miss 4403276
Core_0_L1D_total_MPKI 88.0655
Core_0_L1D_total_miss_rate 0.344642
Core_0_L1D_demand_access 12548306
Core_0_L1D_demand_hit 8194419
Core_0_L1D_demand_miss 4353887
Core_0_L1D_demand_MPKI 87.0777
Core_0_L1D_demand_miss_rate 0.34697
Core_0_L1D_load_access 12548306
Core_0_L1D_load_hit 8194419
Core_0_L1D_load_miss 4353887
Core_0_L1D_load_MPKI 87.0777
Core_0_L1D_load_miss_rate 0.34697
Core_0_L1D_rfo_access 0
Core_0_L1D_rfo_hit 0
Core_0_L1D_rfo_miss 0
Core_0_L1D_rfo_MPKI 0
Core_0_L1D_rfo_miss_rate 0
Core_0_L1D_prefetch_access 0
Core_0_L1D_prefetch_hit 0
Core_0_L1D_prefetch_miss 0
Core_0_L1D_prefetch_MPKI 0
Core_0_L1D_prefetch_miss_rate 0
Core_0_L1D_writeback_access 228077
Core_0_L1D_writeback_hit 178688
Core_0_L1D_writeback_miss 49389
Core_0_L1D_writeback_MPKI 0.98778
Core_0_L1D_writeback_miss_rate 0.216545
Core_0_L1D_prefetch_requested 0
Core_0_L1D_prefetch_issued 0
Core_0_L1D_prefetch_useful 0
Core_0_L1D_prefetch_useless 0
Core_0_L1D_prefetch_late 0
Core_0_L1D_prefetch_accuracy 0
Core_0_L1D_prefetch_coverage 0

Core_0_L2C_total_access 1918286
Core_0_L2C_total_hit 308738
Core_0_L2C_total_miss 1609548
Core_0_L2C_total_MPKI 32.191
Core_0_L2C_total_miss_rate 0.839055
Core_0_L2C_demand_access 1784078
Core_0_L2C_demand_hit 174540
Core_0_L2C_demand_miss 1609538
Core_0_L2C_demand_MPKI 32.1908
Core_0_L2C_demand_miss_rate 0.902168
Core_0_L2C_load_access 1744362
Core_0_L2C_load_hit 170631
Core_0_L2C_load_miss 1573731
Core_0_L2C_load_MPKI 31.4746
Core_0_L2C_load_miss_rate 0.902181
Core_0_L2C_rfo_access 39716
Core_0_L2C_rfo_hit 3909
Core_0_L2C_rfo_miss 35807
Core_0_L2C_rfo_MPKI 0.71614
Core_0_L2C_rfo_miss_rate 0.901576
Core_0_L2C_prefetch_access 0
Core_0_L2C_prefetch_hit 0
Core_0_L2C_prefetch_miss 0
Core_0_L2C_prefetch_MPKI 0
Core_0_L2C_prefetch_miss_rate 0
Core_0_L2C_writeback_access 134208
Core_0_L2C_writeback_hit 134198
Core_0_L2C_writeback_miss 10
Core_0_L2C_writeback_MPKI 0.0002
Core_0_L2C_writeback_miss_rate 7.45112e-05
Core_0_L2C_prefetch_requested 0
Core_0_L2C_prefetch_issued 0
Core_0_L2C_prefetch_useful 0
Core_0_L2C_prefetch_useless 0
Core_0_L2C_prefetch_late 0
Core_0_L2C_prefetch_accuracy 0
Core_0_L2C_prefetch_coverage 0

Core_0_LLC_total_access 1732376
Core_0_LLC_total_hit 270390
Core_0_LLC_total_miss 1461986
Core_0_LLC_total_MPKI 29.2397
Core_0_LLC_total_miss_rate 0.84392
Core_0_LLC_demand_access 1609538
Core_0_LLC_demand_hit 219947
Core_0_LLC_demand_miss 1389591
Core_0_LLC_demand_MPKI 27.7918
Core_0_LLC_demand_miss_rate 0.863348
Core_0_LLC_load_access 1573731
Core_0_LLC_load_hit 216782
Core_0_LLC_load_miss 1356949
Core_0_LLC_load_MPKI 27.139
Core_0_LLC_load_miss_rate 0.86225
Core_0_LLC_rfo_access 35807
Core_0_LLC_rfo_hit 3165
Core_0_LLC_rfo_miss 32642
Core_0_LLC_rfo_MPKI 0.65284
Core_0_LLC_rfo_miss_rate 0.911609
Core_0_LLC_prefetch_access 0
Core_0_LLC_prefetch_hit 0
Core_0_LLC_prefetch_miss 0
Core_0_LLC_prefetch_MPKI 0
Core_0_LLC_prefetch_miss_rate 0
Core_0_LLC_writeback_access 122838
Core_0_LLC_writeback_hit 50443
Core_0_LLC_writeback_miss 72395
Core_0_LLC_writeback_MPKI 1.4479
Core_0_LLC_writeback_miss_rate 0.589353
Core_0_LLC_prefetch_requested 0
Core_0_LLC_prefetch_issued 0
Core_0_LLC_prefetch_useful 0
Core_0_LLC_prefetch_useless 0
Core_0_LLC_prefetch_late 0
Core_0_LLC_prefetch_accuracy 0
Core_0_LLC_prefetch_coverage 0

[DRAM Statistics]
Channel_0_RQ_row_buffer_hit 13883
Channel_0_RQ_row_buffer_miss 1381166
Channel_0_WQ_row_buffer_hit 32371
Channel_0_WQ_row_buffer_miss 69221
Channel_0_WQ_full 0
Channel_0_dbus_congested 2917767
DRAM_total_RQ_row_buffer_hit 13883
DRAM_total_RQ_row_buffer_miss 1381166
DRAM_total_WQ_row_buffer_hit 32371
DRAM_total_WQ_row_buffer_miss 69221
DRAM_total_WQ_full 0
DRAM_total_dbus_congested 2917767
DRAM_avg_congested_cycle 12.2607

======STLB miss causes ========
Core_0_STLB_miss_cause_breakdown
Core_0_STLB_cause_Demand_Data_miss 334949
Core_0_STLB_cause_Demand_Data_miss_rate 0.33991
Core_0_STLB_cause_Demand_Instruction_miss 0
Core_0_STLB_cause_Demand_Instruction_miss_rate 0
Core_0_STLB_cause_L1D_Prefetch_miss 0
Core_0_STLB_cause_L1D_Prefetch_miss_rate 0
Core_0_STLB_cause_L1I_Prefetch_miss 0
Core_0_STLB_cause_L1I_Prefetch_miss_rate 0
Core_0_STLB_cause_Other_miss 0
Core_0_STLB_cause_Other_miss_rate 0
Core_0_STLB_Demand_miss 334949
Core_0_STLB_Demand_miss_rate 0.33991
Core_0_STLB_L1D_Prefetch_miss 0
Core_0_STLB_L1D_Prefetch_miss_rate 0
Core_0_STLB_Other_miss 0
Core_0_STLB_Other_miss_rate 0
