[VMEM] WARNING: physical memory size is smaller than virtual memory size.

*** ChampSim Multicore Out-of-Order Simulator ***
Warmup Instructions: 20000000
Simulation Instructions: 50000000
Number of CPUs: 1
Page size: 4096
Core 0: /data0/tzh/champsim_traces/Ligra/ligra_PageRank.com-lj.ungraph.gcc_6.3.0_O3.drop_18500M.length_250M.champsimtrace.xz
Off-chip DRAM Size: 4 GiB Channels: 1 Width: 64-bit Data Rate: 3205 MT/s
Warmup halting CPU 0 at instruction 20000005 cycle 6333040 for remainder of phase
Warmup finished CPU 0 instructions: 20000005 cycles: 6333040 cumulative IPC: 3.158 (Simulation time: 00 hr 01 min 10 sec)
Warmup complete CPU 0 instructions: 20000005 cycles: 6333040 cumulative IPC: 3.158 (Simulation time: 00 hr 01 min 10 sec)
Simulation finished CPU 0 instructions: 50000004 cycles: 25820940 cumulative IPC: 1.936 (Simulation time: 00 hr 05 min 07 sec)
Simulation complete CPU 0 instructions: 50000004 cycles: 25820940 cumulative IPC: 1.936 (Simulation time: 00 hr 05 min 07 sec)

ChampSim completed all CPUs

=== Simulation ===
CPU 0 runs /data0/tzh/champsim_traces/Ligra/ligra_PageRank.com-lj.ungraph.gcc_6.3.0_O3.drop_18500M.length_250M.champsimtrace.xz

Region of Interest Statistics

CPU 0 cumulative IPC: 1.936 instructions: 50000004 cycles: 25820940
CPU 0 Branch Prediction Accuracy: 98.95% MPKI: 1.068 Average ROB Occupancy at Mispredict: 129.1
Branch type MPKI
BRANCH_DIRECT_JUMP: 2e-05
BRANCH_INDIRECT: 0
BRANCH_CONDITIONAL: 1.067
BRANCH_DIRECT_CALL: 0
BRANCH_INDIRECT_CALL: 0
BRANCH_RETURN: 0.0007

cpu0->cpu0_STLB TOTAL        ACCESS:      16968 HIT:      12993 MISS:       3975 MSHR_MERGE:          0
cpu0->cpu0_STLB LOAD         ACCESS:      16968 HIT:      12993 MISS:       3975 MSHR_MERGE:          0
cpu0->cpu0_STLB RFO          ACCESS:          0 HIT:          0 MISS:          0 MSHR_MERGE:          0
cpu0->cpu0_STLB PREFETCH     ACCESS:          0 HIT:          0 MISS:          0 MSHR_MERGE:          0
cpu0->cpu0_STLB WRITE        ACCESS:          0 HIT:          0 MISS:          0 MSHR_MERGE:          0
cpu0->cpu0_STLB TRANSLATION  ACCESS:          0 HIT:          0 MISS:          0 MSHR_MERGE:          0
cpu0->cpu0_STLB PREFETCH REQUESTED:          0 ISSUED:          0 USEFUL:          0 USELESS:          0 LATE:          0
cpu0->cpu0_STLB AVERAGE MISS LATENCY: 276.1 cycles
cpu0->cpu0_L2C TOTAL        ACCESS:    1796515 HIT:     894965 MISS:     901550 MSHR_MERGE:          0
cpu0->cpu0_L2C LOAD         ACCESS:     681420 HIT:     250518 MISS:     430902 MSHR_MERGE:          0
cpu0->cpu0_L2C RFO          ACCESS:     555997 HIT:      86045 MISS:     469952 MSHR_MERGE:          0
cpu0->cpu0_L2C PREFETCH     ACCESS:          0 HIT:          0 MISS:          0 MSHR_MERGE:          0
cpu0->cpu0_L2C WRITE        ACCESS:     558187 HIT:     558075 MISS:        112 MSHR_MERGE:          0
cpu0->cpu0_L2C TRANSLATION  ACCESS:        911 HIT:        327 MISS:        584 MSHR_MERGE:          0
cpu0->cpu0_L2C PREFETCH REQUESTED:          0 ISSUED:          0 USEFUL:          0 USELESS:          0 LATE:          0
cpu0->cpu0_L2C AVERAGE MISS LATENCY: 140.1 cycles
cpu0->cpu0_L1I TOTAL        ACCESS:    6096699 HIT:    6096698 MISS:          1 MSHR_MERGE:          0
cpu0->cpu0_L1I LOAD         ACCESS:    6096699 HIT:    6096698 MISS:          1 MSHR_MERGE:          0
cpu0->cpu0_L1I RFO          ACCESS:          0 HIT:          0 MISS:          0 MSHR_MERGE:          0
cpu0->cpu0_L1I PREFETCH     ACCESS:          0 HIT:          0 MISS:          0 MSHR_MERGE:          0
cpu0->cpu0_L1I WRITE        ACCESS:          0 HIT:          0 MISS:          0 MSHR_MERGE:          0
cpu0->cpu0_L1I TRANSLATION  ACCESS:          0 HIT:          0 MISS:          0 MSHR_MERGE:          0
cpu0->cpu0_L1I PREFETCH REQUESTED:          0 ISSUED:          0 USEFUL:          0 USELESS:          0 LATE:          0
cpu0->cpu0_L1I AVERAGE MISS LATENCY: 525 cycles
cpu0->cpu0_L1D TOTAL        ACCESS:   13308184 HIT:    9296173 MISS:    4012011 MSHR_MERGE:    2773677
cpu0->cpu0_L1D LOAD         ACCESS:    3384270 HIT:    2021304 MISS:    1362966 MSHR_MERGE:     681546
cpu0->cpu0_L1D RFO          ACCESS:          0 HIT:          0 MISS:          0 MSHR_MERGE:          0
cpu0->cpu0_L1D PREFETCH     ACCESS:          0 HIT:          0 MISS:          0 MSHR_MERGE:          0
cpu0->cpu0_L1D WRITE        ACCESS:    9916303 HIT:    7268488 MISS:    2647815 MSHR_MERGE:    2091812
cpu0->cpu0_L1D TRANSLATION  ACCESS:       7611 HIT:       6381 MISS:       1230 MSHR_MERGE:        319
cpu0->cpu0_L1D PREFETCH REQUESTED:          0 ISSUED:          0 USEFUL:          0 USELESS:          0 LATE:          0
cpu0->cpu0_L1D AVERAGE MISS LATENCY: 110.9 cycles
cpu0->cpu0_ITLB TOTAL        ACCESS:    4325020 HIT:    4325020 MISS:          0 MSHR_MERGE:          0
cpu0->cpu0_ITLB LOAD         ACCESS:    4325020 HIT:    4325020 MISS:          0 MSHR_MERGE:          0
cpu0->cpu0_ITLB RFO          ACCESS:          0 HIT:          0 MISS:          0 MSHR_MERGE:          0
cpu0->cpu0_ITLB PREFETCH     ACCESS:          0 HIT:          0 MISS:          0 MSHR_MERGE:          0
cpu0->cpu0_ITLB WRITE        ACCESS:          0 HIT:          0 MISS:          0 MSHR_MERGE:          0
cpu0->cpu0_ITLB TRANSLATION  ACCESS:          0 HIT:          0 MISS:          0 MSHR_MERGE:          0
cpu0->cpu0_ITLB PREFETCH REQUESTED:          0 ISSUED:          0 USEFUL:          0 USELESS:          0 LATE:          0
cpu0->cpu0_ITLB AVERAGE MISS LATENCY: - cycles
cpu0->cpu0_DTLB TOTAL        ACCESS:   11565423 HIT:   11502315 MISS:      63108 MSHR_MERGE:      46140
cpu0->cpu0_DTLB LOAD         ACCESS:   11565423 HIT:   11502315 MISS:      63108 MSHR_MERGE:      46140
cpu0->cpu0_DTLB RFO          ACCESS:          0 HIT:          0 MISS:          0 MSHR_MERGE:          0
cpu0->cpu0_DTLB PREFETCH     ACCESS:          0 HIT:          0 MISS:          0 MSHR_MERGE:          0
cpu0->cpu0_DTLB WRITE        ACCESS:          0 HIT:          0 MISS:          0 MSHR_MERGE:          0
cpu0->cpu0_DTLB TRANSLATION  ACCESS:          0 HIT:          0 MISS:          0 MSHR_MERGE:          0
cpu0->cpu0_DTLB PREFETCH REQUESTED:          0 ISSUED:          0 USEFUL:          0 USELESS:          0 LATE:          0
cpu0->cpu0_DTLB AVERAGE MISS LATENCY: 69.92 cycles
cpu0->LLC TOTAL        ACCESS:    1408435 HIT:    1076545 MISS:     331890 MSHR_MERGE:          0
cpu0->LLC LOAD         ACCESS:     430898 HIT:     305615 MISS:     125283 MSHR_MERGE:          0
cpu0->LLC RFO          ACCESS:     469952 HIT:     300822 MISS:     169130 MSHR_MERGE:          0
cpu0->LLC PREFETCH     ACCESS:          0 HIT:          0 MISS:          0 MSHR_MERGE:          0
cpu0->LLC WRITE        ACCESS:     507001 HIT:     470048 MISS:      36953 MSHR_MERGE:          0
cpu0->LLC TRANSLATION  ACCESS:        584 HIT:         60 MISS:        524 MSHR_MERGE:          0
cpu0->LLC PREFETCH REQUESTED:          0 ISSUED:          0 USEFUL:          0 USELESS:          0 LATE:          0
cpu0->LLC AVERAGE MISS LATENCY: 339.7 cycles

DRAM Statistics

Channel 0 RQ ROW_BUFFER_HIT:      15923
  ROW_BUFFER_MISS:     278832
  AVG DBUS CONGESTED CYCLE: 7.864
Channel 0 WQ ROW_BUFFER_HIT:      53761
  ROW_BUFFER_MISS:     207562
  FULL:        131
Channel 0 REFRESHES ISSUED:       2152

[ROI Statistics]
[System Configuration]
num_cpus 1
cpu_freq 4000
fetch_width 6
decode_width 6
dispatch_width 6
execute_width 6
lq_width 2
sq_width 2
retire_width 6
scheduler_size 160
branch_mispredict_penalty 1
rob_size 352
lq_size 240
sq_size 112
ifetch_buffer_size 64
decode_buffer_size 32
dispatch_buffer_size 32
register_file_size 288
decode_latency 1
dispatch_latency 1
schedule_latency 0
execute_latency 0
page_size 4096
block_size 64
core_0_itlb_set 16
core_0_itlb_way 4
core_0_itlb_rq_size 16
core_0_itlb_wq_size 16
core_0_itlb_pq_size 0
core_0_itlb_mshr_size 8
core_0_itlb_hit_latency 1
core_0_itlb_fill_latency 1
core_0_itlb_max_tag_check 2
core_0_itlb_max_fill 2
core_0_dtlb_set 16
core_0_dtlb_way 4
core_0_dtlb_rq_size 16
core_0_dtlb_wq_size 16
core_0_dtlb_pq_size 0
core_0_dtlb_mshr_size 8
core_0_dtlb_hit_latency 1
core_0_dtlb_fill_latency 1
core_0_dtlb_max_tag_check 2
core_0_dtlb_max_fill 2
core_0_stlb_set 128
core_0_stlb_way 12
core_0_stlb_rq_size 32
core_0_stlb_wq_size 32
core_0_stlb_pq_size 0
core_0_stlb_mshr_size 16
core_0_stlb_hit_latency 4
core_0_stlb_fill_latency 4
core_0_stlb_max_tag_check 1
core_0_stlb_max_fill 1
core_0_l1i_set 64
core_0_l1i_way 8
core_0_l1i_rq_size 64
core_0_l1i_wq_size 64
core_0_l1i_pq_size 32
core_0_l1i_mshr_size 8
core_0_l1i_hit_latency 2
core_0_l1i_fill_latency 2
core_0_l1i_max_tag_check 2
core_0_l1i_max_fill 2
core_0_l1d_set 64
core_0_l1d_way 12
core_0_l1d_rq_size 64
core_0_l1d_wq_size 64
core_0_l1d_pq_size 8
core_0_l1d_mshr_size 16
core_0_l1d_hit_latency 2
core_0_l1d_fill_latency 3
core_0_l1d_max_tag_check 2
core_0_l1d_max_fill 2
core_0_l2c_set 1024
core_0_l2c_way 8
core_0_l2c_rq_size 32
core_0_l2c_wq_size 32
core_0_l2c_pq_size 16
core_0_l2c_mshr_size 32
core_0_l2c_hit_latency 5
core_0_l2c_fill_latency 5
core_0_l2c_max_tag_check 1
core_0_l2c_max_fill 1
llc_set 2048
llc_way 16
llc_rq_size 32
llc_wq_size 32
llc_pq_size 32
llc_mshr_size 64
llc_hit_latency 10
llc_fill_latency 10
llc_max_tag_check 1
llc_max_fill 1
dram_channels 1
dram_ranks 1
dram_bankgroups 8
dram_banks 4
dram_rows 16384
dram_columns 1024
dram_channel_width 8
dram_rq_size 64
dram_wq_size 64
dram_size 4294967296
core_0_itlb_prefetcher no
core_0_dtlb_prefetcher no
core_0_stlb_prefetcher no
core_0_l1i_prefetcher no
core_0_l1d_prefetcher no
core_0_l2c_prefetcher no
llc_prefetcher no
llc_replacement drrip

Core_0_instructions 50000004
Core_0_cycles 25820940
Core_0_IPC 1.93641
Core_0_branch_prediction_accuracy 98.9488
Core_0_branch_MPKI 1.06806
Core_0_average_ROB_occupancy_at_mispredict 129.129

Core_0_ITLB_total_access 4325020
Core_0_ITLB_total_hit 4325020
Core_0_ITLB_total_miss 0
Core_0_ITLB_total_MPKI 0
Core_0_ITLB_total_miss_rate 0
Core_0_ITLB_demand_access 4325020
Core_0_ITLB_demand_hit 4325020
Core_0_ITLB_demand_miss 0
Core_0_ITLB_demand_MPKI 0
Core_0_ITLB_demand_miss_rate 0
Core_0_ITLB_load_access 4325020
Core_0_ITLB_load_hit 4325020
Core_0_ITLB_load_miss 0
Core_0_ITLB_load_MPKI 0
Core_0_ITLB_load_miss_rate 0
Core_0_ITLB_rfo_access 0
Core_0_ITLB_rfo_hit 0
Core_0_ITLB_rfo_miss 0
Core_0_ITLB_rfo_MPKI 0
Core_0_ITLB_rfo_miss_rate 0
Core_0_ITLB_prefetch_access 0
Core_0_ITLB_prefetch_hit 0
Core_0_ITLB_prefetch_miss 0
Core_0_ITLB_prefetch_MPKI 0
Core_0_ITLB_prefetch_miss_rate 0
Core_0_ITLB_writeback_access 0
Core_0_ITLB_writeback_hit 0
Core_0_ITLB_writeback_miss 0
Core_0_ITLB_writeback_MPKI 0
Core_0_ITLB_writeback_miss_rate 0
Core_0_ITLB_prefetch_requested 0
Core_0_ITLB_prefetch_issued 0
Core_0_ITLB_prefetch_useful 0
Core_0_ITLB_prefetch_useless 0
Core_0_ITLB_prefetch_late 0
Core_0_ITLB_prefetch_accuracy 0
Core_0_ITLB_prefetch_coverage 0

Core_0_DTLB_total_access 11565423
Core_0_DTLB_total_hit 11502315
Core_0_DTLB_total_miss 63108
Core_0_DTLB_total_MPKI 1.26216
Core_0_DTLB_total_miss_rate 0.00545661
Core_0_DTLB_demand_access 11565423
Core_0_DTLB_demand_hit 11502315
Core_0_DTLB_demand_miss 63108
Core_0_DTLB_demand_MPKI 1.26216
Core_0_DTLB_demand_miss_rate 0.00545661
Core_0_DTLB_load_access 11565423
Core_0_DTLB_load_hit 11502315
Core_0_DTLB_load_miss 63108
Core_0_DTLB_load_MPKI 1.26216
Core_0_DTLB_load_miss_rate 0.00545661
Core_0_DTLB_rfo_access 0
Core_0_DTLB_rfo_hit 0
Core_0_DTLB_rfo_miss 0
Core_0_DTLB_rfo_MPKI 0
Core_0_DTLB_rfo_miss_rate 0
Core_0_DTLB_prefetch_access 0
Core_0_DTLB_prefetch_hit 0
Core_0_DTLB_prefetch_miss 0
Core_0_DTLB_prefetch_MPKI 0
Core_0_DTLB_prefetch_miss_rate 0
Core_0_DTLB_writeback_access 0
Core_0_DTLB_writeback_hit 0
Core_0_DTLB_writeback_miss 0
Core_0_DTLB_writeback_MPKI 0
Core_0_DTLB_writeback_miss_rate 0
Core_0_DTLB_prefetch_requested 0
Core_0_DTLB_prefetch_issued 0
Core_0_DTLB_prefetch_useful 0
Core_0_DTLB_prefetch_useless 0
Core_0_DTLB_prefetch_late 0
Core_0_DTLB_prefetch_accuracy 0
Core_0_DTLB_prefetch_coverage 0

Core_0_STLB_total_access 16968
Core_0_STLB_total_hit 12993
Core_0_STLB_total_miss 3975
Core_0_STLB_total_MPKI 0.0795
Core_0_STLB_total_miss_rate 0.234264
Core_0_STLB_demand_access 16968
Core_0_STLB_demand_hit 12993
Core_0_STLB_demand_miss 3975
Core_0_STLB_demand_MPKI 0.0795
Core_0_STLB_demand_miss_rate 0.234264
Core_0_STLB_load_access 16968
Core_0_STLB_load_hit 12993
Core_0_STLB_load_miss 3975
Core_0_STLB_load_MPKI 0.0795
Core_0_STLB_load_miss_rate 0.234264
Core_0_STLB_rfo_access 0
Core_0_STLB_rfo_hit 0
Core_0_STLB_rfo_miss 0
Core_0_STLB_rfo_MPKI 0
Core_0_STLB_rfo_miss_rate 0
Core_0_STLB_prefetch_access 0
Core_0_STLB_prefetch_hit 0
Core_0_STLB_prefetch_miss 0
Core_0_STLB_prefetch_MPKI 0
Core_0_STLB_prefetch_miss_rate 0
Core_0_STLB_writeback_access 0
Core_0_STLB_writeback_hit 0
Core_0_STLB_writeback_miss 0
Core_0_STLB_writeback_MPKI 0
Core_0_STLB_writeback_miss_rate 0
Core_0_STLB_prefetch_requested 0
Core_0_STLB_prefetch_issued 0
Core_0_STLB_prefetch_useful 0
Core_0_STLB_prefetch_useless 0
Core_0_STLB_prefetch_late 0
Core_0_STLB_prefetch_accuracy 0
Core_0_STLB_prefetch_coverage 0

Core_0_L1I_total_access 6096699
Core_0_L1I_total_hit 6096698
Core_0_L1I_total_miss 1
Core_0_L1I_total_MPKI 2e-05
Core_0_L1I_total_miss_rate 1.64023e-07
Core_0_L1I_demand_access 6096699
Core_0_L1I_demand_hit 6096698
Core_0_L1I_demand_miss 1
Core_0_L1I_demand_MPKI 2e-05
Core_0_L1I_demand_miss_rate 1.64023e-07
Core_0_L1I_load_access 6096699
Core_0_L1I_load_hit 6096698
Core_0_L1I_load_miss 1
Core_0_L1I_load_MPKI 2e-05
Core_0_L1I_load_miss_rate 1.64023e-07
Core_0_L1I_rfo_access 0
Core_0_L1I_rfo_hit 0
Core_0_L1I_rfo_miss 0
Core_0_L1I_rfo_MPKI 0
Core_0_L1I_rfo_miss_rate 0
Core_0_L1I_prefetch_access 0
Core_0_L1I_prefetch_hit 0
Core_0_L1I_prefetch_miss 0
Core_0_L1I_prefetch_MPKI 0
Core_0_L1I_prefetch_miss_rate 0
Core_0_L1I_writeback_access 0
Core_0_L1I_writeback_hit 0
Core_0_L1I_writeback_miss 0
Core_0_L1I_writeback_MPKI 0
Core_0_L1I_writeback_miss_rate 0
Core_0_L1I_prefetch_requested 0
Core_0_L1I_prefetch_issued 0
Core_0_L1I_prefetch_useful 0
Core_0_L1I_prefetch_useless 0
Core_0_L1I_prefetch_late 0
Core_0_L1I_prefetch_accuracy 0
Core_0_L1I_prefetch_coverage 0

Core_0_L1D_total_access 13300573
Core_0_L1D_total_hit 9289792
Core_0_L1D_total_miss 4010781
Core_0_L1D_total_MPKI 80.2156
Core_0_L1D_total_miss_rate 0.301549
Core_0_L1D_demand_access 3384270
Core_0_L1D_demand_hit 2021304
Core_0_L1D_demand_miss 1362966
Core_0_L1D_demand_MPKI 27.2593
Core_0_L1D_demand_miss_rate 0.402736
Core_0_L1D_load_access 3384270
Core_0_L1D_load_hit 2021304
Core_0_L1D_load_miss 1362966
Core_0_L1D_load_MPKI 27.2593
Core_0_L1D_load_miss_rate 0.402736
Core_0_L1D_rfo_access 0
Core_0_L1D_rfo_hit 0
Core_0_L1D_rfo_miss 0
Core_0_L1D_rfo_MPKI 0
Core_0_L1D_rfo_miss_rate 0
Core_0_L1D_prefetch_access 0
Core_0_L1D_prefetch_hit 0
Core_0_L1D_prefetch_miss 0
Core_0_L1D_prefetch_MPKI 0
Core_0_L1D_prefetch_miss_rate 0
Core_0_L1D_writeback_access 9916303
Core_0_L1D_writeback_hit 7268488
Core_0_L1D_writeback_miss 2647815
Core_0_L1D_writeback_MPKI 52.9563
Core_0_L1D_writeback_miss_rate 0.267016
Core_0_L1D_prefetch_requested 0
Core_0_L1D_prefetch_issued 0
Core_0_L1D_prefetch_useful 0
Core_0_L1D_prefetch_useless 0
Core_0_L1D_prefetch_late 0
Core_0_L1D_prefetch_accuracy 0
Core_0_L1D_prefetch_coverage 0

Core_0_L2C_total_access 1795604
Core_0_L2C_total_hit 894638
Core_0_L2C_total_miss 900966
Core_0_L2C_total_MPKI 18.0193
Core_0_L2C_total_miss_rate 0.501762
Core_0_L2C_demand_access 1237417
Core_0_L2C_demand_hit 336563
Core_0_L2C_demand_miss 900854
Core_0_L2C_demand_MPKI 18.0171
Core_0_L2C_demand_miss_rate 0.728012
Core_0_L2C_load_access 681420
Core_0_L2C_load_hit 250518
Core_0_L2C_load_miss 430902
Core_0_L2C_load_MPKI 8.61804
Core_0_L2C_load_miss_rate 0.632359
Core_0_L2C_rfo_access 555997
Core_0_L2C_rfo_hit 86045
Core_0_L2C_rfo_miss 469952
Core_0_L2C_rfo_MPKI 9.39904
Core_0_L2C_rfo_miss_rate 0.845242
Core_0_L2C_prefetch_access 0
Core_0_L2C_prefetch_hit 0
Core_0_L2C_prefetch_miss 0
Core_0_L2C_prefetch_MPKI 0
Core_0_L2C_prefetch_miss_rate 0
Core_0_L2C_writeback_access 558187
Core_0_L2C_writeback_hit 558075
Core_0_L2C_writeback_miss 112
Core_0_L2C_writeback_MPKI 0.00224
Core_0_L2C_writeback_miss_rate 0.00020065
Core_0_L2C_prefetch_requested 0
Core_0_L2C_prefetch_issued 0
Core_0_L2C_prefetch_useful 0
Core_0_L2C_prefetch_useless 0
Core_0_L2C_prefetch_late 0
Core_0_L2C_prefetch_accuracy 0
Core_0_L2C_prefetch_coverage 0

Core_0_LLC_total_access 1407851
Core_0_LLC_total_hit 1076485
Core_0_LLC_total_miss 331366
Core_0_LLC_total_MPKI 6.62732
Core_0_LLC_total_miss_rate 0.23537
Core_0_LLC_demand_access 900850
Core_0_LLC_demand_hit 606437
Core_0_LLC_demand_miss 294413
Core_0_LLC_demand_MPKI 5.88826
Core_0_LLC_demand_miss_rate 0.326817
Core_0_LLC_load_access 430898
Core_0_LLC_load_hit 305615
Core_0_LLC_load_miss 125283
Core_0_LLC_load_MPKI 2.50566
Core_0_LLC_load_miss_rate 0.290749
Core_0_LLC_rfo_access 469952
Core_0_LLC_rfo_hit 300822
Core_0_LLC_rfo_miss 169130
Core_0_LLC_rfo_MPKI 3.3826
Core_0_LLC_rfo_miss_rate 0.359888
Core_0_LLC_prefetch_access 0
Core_0_LLC_prefetch_hit 0
Core_0_LLC_prefetch_miss 0
Core_0_LLC_prefetch_MPKI 0
Core_0_LLC_prefetch_miss_rate 0
Core_0_LLC_writeback_access 507001
Core_0_LLC_writeback_hit 470048
Core_0_LLC_writeback_miss 36953
Core_0_LLC_writeback_MPKI 0.73906
Core_0_LLC_writeback_miss_rate 0.0728855
Core_0_LLC_prefetch_requested 0
Core_0_LLC_prefetch_issued 0
Core_0_LLC_prefetch_useful 0
Core_0_LLC_prefetch_useless 0
Core_0_LLC_prefetch_late 0
Core_0_LLC_prefetch_accuracy 0
Core_0_LLC_prefetch_coverage 0

[DRAM Statistics]
Channel_0_RQ_row_buffer_hit 15923
Channel_0_RQ_row_buffer_miss 278832
Channel_0_WQ_row_buffer_hit 53761
Channel_0_WQ_row_buffer_miss 207562
Channel_0_WQ_full 131
Channel_0_dbus_congested 2000986
DRAM_total_RQ_row_buffer_hit 15923
DRAM_total_RQ_row_buffer_miss 278832
DRAM_total_WQ_row_buffer_hit 53761
DRAM_total_WQ_row_buffer_miss 207562
DRAM_total_WQ_full 131
DRAM_total_dbus_congested 2000986
DRAM_avg_congested_cycle 7.86363

======STLB miss causes ========
Core_0_STLB_miss_cause_breakdown
Core_0_STLB_cause_Demand_Data_miss 3975
Core_0_STLB_cause_Demand_Data_miss_rate 0.234264
Core_0_STLB_cause_Demand_Instruction_miss 0
Core_0_STLB_cause_Demand_Instruction_miss_rate 0
Core_0_STLB_cause_L1D_Prefetch_miss 0
Core_0_STLB_cause_L1D_Prefetch_miss_rate 0
Core_0_STLB_cause_L1I_Prefetch_miss 0
Core_0_STLB_cause_L1I_Prefetch_miss_rate 0
Core_0_STLB_cause_Other_miss 0
Core_0_STLB_cause_Other_miss_rate 0
Core_0_STLB_Demand_miss 3975
Core_0_STLB_Demand_miss_rate 0.234264
Core_0_STLB_L1D_Prefetch_miss 0
Core_0_STLB_L1D_Prefetch_miss_rate 0
Core_0_STLB_Other_miss 0
Core_0_STLB_Other_miss_rate 0
