[VMEM] WARNING: physical memory size is smaller than virtual memory size.

*** ChampSim Multicore Out-of-Order Simulator ***
Warmup Instructions: 20000000
Simulation Instructions: 50000000
Number of CPUs: 1
Page size: 4096
Core 0: /data0/tzh/champsim_traces/SPEC06/450.soplex-92B.champsimtrace.xz
 L1D Berti prefetcher
Off-chip DRAM Size: 4 GiB Channels: 1 Width: 64-bit Data Rate: 3205 MT/s
Warmup halting CPU 0 at instruction 20000004 cycle 4865575 for remainder of phase
Warmup finished CPU 0 instructions: 20000004 cycles: 4865575 cumulative IPC: 4.111 (Simulation time: 00 hr 01 min 03 sec)
Warmup complete CPU 0 instructions: 20000004 cycles: 4865575 cumulative IPC: 4.111 (Simulation time: 00 hr 01 min 03 sec)
Simulation finished CPU 0 instructions: 50000000 cycles: 71019886 cumulative IPC: 0.704 (Simulation time: 00 hr 08 min 16 sec)
Simulation complete CPU 0 instructions: 50000000 cycles: 71019886 cumulative IPC: 0.704 (Simulation time: 00 hr 08 min 16 sec)

ChampSim completed all CPUs

=== Simulation ===
CPU 0 runs /data0/tzh/champsim_traces/SPEC06/450.soplex-92B.champsimtrace.xz

Region of Interest Statistics

CPU 0 cumulative IPC: 0.704 instructions: 50000000 cycles: 71019886
CPU 0 Branch Prediction Accuracy: 93.44% MPKI: 12.75 Average ROB Occupancy at Mispredict: 39.87
Branch type MPKI
BRANCH_DIRECT_JUMP: 0.0005
BRANCH_INDIRECT: 2e-05
BRANCH_CONDITIONAL: 12.75
BRANCH_DIRECT_CALL: 0.0004
BRANCH_INDIRECT_CALL: 6e-05
BRANCH_RETURN: 0.00102

cpu0->cpu0_STLB TOTAL        ACCESS:     265962 HIT:     210178 MISS:      55784 MSHR_MERGE:          0
cpu0->cpu0_STLB LOAD         ACCESS:     265962 HIT:     210178 MISS:      55784 MSHR_MERGE:          0
cpu0->cpu0_STLB RFO          ACCESS:          0 HIT:          0 MISS:          0 MSHR_MERGE:          0
cpu0->cpu0_STLB PREFETCH     ACCESS:          0 HIT:          0 MISS:          0 MSHR_MERGE:          0
cpu0->cpu0_STLB WRITE        ACCESS:          0 HIT:          0 MISS:          0 MSHR_MERGE:          0
cpu0->cpu0_STLB TRANSLATION  ACCESS:          0 HIT:          0 MISS:          0 MSHR_MERGE:          0
cpu0->cpu0_STLB PREFETCH REQUESTED:          0 ISSUED:          0 USEFUL:          0 USELESS:          0 LATE:          0
cpu0->cpu0_STLB AVERAGE MISS LATENCY: 95.99 cycles
cpu0->cpu0_L2C TOTAL        ACCESS:    8185509 HIT:    4574431 MISS:    3611078 MSHR_MERGE:    1242677
cpu0->cpu0_L2C LOAD         ACCESS:     909335 HIT:     455170 MISS:     454165 MSHR_MERGE:      52762
cpu0->cpu0_L2C RFO          ACCESS:     321303 HIT:      25715 MISS:     295588 MSHR_MERGE:          0
cpu0->cpu0_L2C PREFETCH     ACCESS:    6176030 HIT:    3332007 MISS:    2844023 MSHR_MERGE:    1189915
cpu0->cpu0_L2C WRITE        ACCESS:     754896 HIT:     754487 MISS:        409 MSHR_MERGE:          0
cpu0->cpu0_L2C TRANSLATION  ACCESS:      23945 HIT:       7052 MISS:      16893 MSHR_MERGE:          0
cpu0->cpu0_L2C PREFETCH REQUESTED:    6221954 ISSUED:    5173589 USEFUL:     732232 USELESS:     635313 LATE:      52762
cpu0->cpu0_L2C AVERAGE MISS LATENCY: 220.1 cycles
cpu0->cpu0_L1I TOTAL        ACCESS:    2110162 HIT:    2110010 MISS:        152 MSHR_MERGE:         23
cpu0->cpu0_L1I LOAD         ACCESS:    2110162 HIT:    2110010 MISS:        152 MSHR_MERGE:         23
cpu0->cpu0_L1I RFO          ACCESS:          0 HIT:          0 MISS:          0 MSHR_MERGE:          0
cpu0->cpu0_L1I PREFETCH     ACCESS:          0 HIT:          0 MISS:          0 MSHR_MERGE:          0
cpu0->cpu0_L1I WRITE        ACCESS:          0 HIT:          0 MISS:          0 MSHR_MERGE:          0
cpu0->cpu0_L1I TRANSLATION  ACCESS:          0 HIT:          0 MISS:          0 MSHR_MERGE:          0
cpu0->cpu0_L1I PREFETCH REQUESTED:          0 ISSUED:          0 USEFUL:          0 USELESS:          0 LATE:          0
cpu0->cpu0_L1I AVERAGE MISS LATENCY: 252.4 cycles
cpu0->cpu0_L1D TOTAL        ACCESS:   15069353 HIT:   11149463 MISS:    3919890 MSHR_MERGE:    1662975
cpu0->cpu0_L1D LOAD         ACCESS:    9673198 HIT:    8304053 MISS:    1369145 MSHR_MERGE:     459928
cpu0->cpu0_L1D RFO          ACCESS:          0 HIT:          0 MISS:          0 MSHR_MERGE:          0
cpu0->cpu0_L1D PREFETCH     ACCESS:    1264381 HIT:     224466 MISS:    1039915 MSHR_MERGE:      37477
cpu0->cpu0_L1D WRITE        ACCESS:    4020681 HIT:    2534370 MISS:    1486311 MSHR_MERGE:    1164996
cpu0->cpu0_L1D TRANSLATION  ACCESS:     111093 HIT:      86574 MISS:      24519 MSHR_MERGE:        574
cpu0->cpu0_L1D PREFETCH REQUESTED:    1287810 ISSUED:    1264377 USEFUL:     614899 USELESS:     387475 LATE:      71848
cpu0->cpu0_L1D AVERAGE MISS LATENCY: 143 cycles
cpu0->cpu0_ITLB TOTAL        ACCESS:    1791010 HIT:    1790995 MISS:         15 MSHR_MERGE:          6
cpu0->cpu0_ITLB LOAD         ACCESS:    1791010 HIT:    1790995 MISS:         15 MSHR_MERGE:          6
cpu0->cpu0_ITLB RFO          ACCESS:          0 HIT:          0 MISS:          0 MSHR_MERGE:          0
cpu0->cpu0_ITLB PREFETCH     ACCESS:          0 HIT:          0 MISS:          0 MSHR_MERGE:          0
cpu0->cpu0_ITLB WRITE        ACCESS:          0 HIT:          0 MISS:          0 MSHR_MERGE:          0
cpu0->cpu0_ITLB TRANSLATION  ACCESS:          0 HIT:          0 MISS:          0 MSHR_MERGE:          0
cpu0->cpu0_ITLB PREFETCH REQUESTED:          0 ISSUED:          0 USEFUL:          0 USELESS:          0 LATE:          0
cpu0->cpu0_ITLB AVERAGE MISS LATENCY: 410.2 cycles
cpu0->cpu0_DTLB TOTAL        ACCESS:   14293389 HIT:   13819532 MISS:     473857 MSHR_MERGE:     207904
cpu0->cpu0_DTLB LOAD         ACCESS:   14293389 HIT:   13819532 MISS:     473857 MSHR_MERGE:     207904
cpu0->cpu0_DTLB RFO          ACCESS:          0 HIT:          0 MISS:          0 MSHR_MERGE:          0
cpu0->cpu0_DTLB PREFETCH     ACCESS:          0 HIT:          0 MISS:          0 MSHR_MERGE:          0
cpu0->cpu0_DTLB WRITE        ACCESS:          0 HIT:          0 MISS:          0 MSHR_MERGE:          0
cpu0->cpu0_DTLB TRANSLATION  ACCESS:          0 HIT:          0 MISS:          0 MSHR_MERGE:          0
cpu0->cpu0_DTLB PREFETCH REQUESTED:          0 ISSUED:          0 USEFUL:          0 USELESS:          0 LATE:          0
cpu0->cpu0_DTLB AVERAGE MISS LATENCY: 25.33 cycles
cpu0->LLC TOTAL        ACCESS:    2962978 HIT:    1125180 MISS:    1837798 MSHR_MERGE:          0
cpu0->LLC LOAD         ACCESS:     401401 HIT:     135653 MISS:     265748 MSHR_MERGE:          0
cpu0->LLC RFO          ACCESS:     295588 HIT:      61224 MISS:     234364 MSHR_MERGE:          0
cpu0->LLC PREFETCH     ACCESS:    1654108 HIT:     509737 MISS:    1144371 MSHR_MERGE:          0
cpu0->LLC WRITE        ACCESS:     594988 HIT:     412650 MISS:     182338 MSHR_MERGE:          0
cpu0->LLC TRANSLATION  ACCESS:      16893 HIT:       5916 MISS:      10977 MSHR_MERGE:          0
cpu0->LLC PREFETCH REQUESTED:          0 ISSUED:          0 USEFUL:          0 USELESS:          0 LATE:          0
cpu0->LLC AVERAGE MISS LATENCY: 213.9 cycles

DRAM Statistics

Channel 0 RQ ROW_BUFFER_HIT:      91094
  ROW_BUFFER_MISS:    1563097
  AVG DBUS CONGESTED CYCLE: 6.249
Channel 0 WQ ROW_BUFFER_HIT:      65172
  ROW_BUFFER_MISS:     312266
  FULL:        943
Channel 0 REFRESHES ISSUED:       5918

[ROI Statistics]
[System Configuration]
num_cpus 1
cpu_freq 4000
fetch_width 6
decode_width 6
dispatch_width 6
execute_width 6
lq_width 2
sq_width 2
retire_width 6
scheduler_size 160
branch_mispredict_penalty 1
rob_size 352
lq_size 240
sq_size 112
ifetch_buffer_size 64
decode_buffer_size 32
dispatch_buffer_size 32
register_file_size 288
decode_latency 1
dispatch_latency 1
schedule_latency 0
execute_latency 0
page_size 4096
block_size 64
core_0_itlb_set 16
core_0_itlb_way 4
core_0_itlb_rq_size 16
core_0_itlb_wq_size 16
core_0_itlb_pq_size 0
core_0_itlb_mshr_size 8
core_0_itlb_hit_latency 1
core_0_itlb_fill_latency 1
core_0_itlb_max_tag_check 2
core_0_itlb_max_fill 2
core_0_dtlb_set 16
core_0_dtlb_way 4
core_0_dtlb_rq_size 16
core_0_dtlb_wq_size 16
core_0_dtlb_pq_size 0
core_0_dtlb_mshr_size 8
core_0_dtlb_hit_latency 1
core_0_dtlb_fill_latency 1
core_0_dtlb_max_tag_check 2
core_0_dtlb_max_fill 2
core_0_stlb_set 128
core_0_stlb_way 12
core_0_stlb_rq_size 32
core_0_stlb_wq_size 32
core_0_stlb_pq_size 0
core_0_stlb_mshr_size 16
core_0_stlb_hit_latency 4
core_0_stlb_fill_latency 4
core_0_stlb_max_tag_check 1
core_0_stlb_max_fill 1
core_0_l1i_set 64
core_0_l1i_way 8
core_0_l1i_rq_size 64
core_0_l1i_wq_size 64
core_0_l1i_pq_size 32
core_0_l1i_mshr_size 8
core_0_l1i_hit_latency 2
core_0_l1i_fill_latency 2
core_0_l1i_max_tag_check 2
core_0_l1i_max_fill 2
core_0_l1d_set 64
core_0_l1d_way 12
core_0_l1d_rq_size 64
core_0_l1d_wq_size 64
core_0_l1d_pq_size 8
core_0_l1d_mshr_size 16
core_0_l1d_hit_latency 2
core_0_l1d_fill_latency 3
core_0_l1d_max_tag_check 2
core_0_l1d_max_fill 2
core_0_l2c_set 1024
core_0_l2c_way 8
core_0_l2c_rq_size 32
core_0_l2c_wq_size 32
core_0_l2c_pq_size 16
core_0_l2c_mshr_size 32
core_0_l2c_hit_latency 5
core_0_l2c_fill_latency 5
core_0_l2c_max_tag_check 1
core_0_l2c_max_fill 1
llc_set 2048
llc_way 16
llc_rq_size 32
llc_wq_size 32
llc_pq_size 32
llc_mshr_size 64
llc_hit_latency 10
llc_fill_latency 10
llc_max_tag_check 1
llc_max_fill 1
dram_channels 1
dram_ranks 1
dram_bankgroups 8
dram_banks 4
dram_rows 16384
dram_columns 1024
dram_channel_width 8
dram_rq_size 64
dram_wq_size 64
dram_size 4294967296
core_0_itlb_prefetcher no
core_0_dtlb_prefetcher no
core_0_stlb_prefetcher no
core_0_l1i_prefetcher next_line
core_0_l1d_prefetcher berti
core_0_l2c_prefetcher pythia
llc_prefetcher no
llc_replacement drrip

Core_0_instructions 50000000
Core_0_cycles 71019886
Core_0_IPC 0.704028
Core_0_branch_prediction_accuracy 93.443
Core_0_branch_MPKI 12.753
Core_0_average_ROB_occupancy_at_mispredict 39.8693

Core_0_ITLB_total_access 1791010
Core_0_ITLB_total_hit 1790995
Core_0_ITLB_total_miss 15
Core_0_ITLB_total_MPKI 0.0003
Core_0_ITLB_total_miss_rate 8.37516e-06
Core_0_ITLB_demand_access 1791010
Core_0_ITLB_demand_hit 1790995
Core_0_ITLB_demand_miss 15
Core_0_ITLB_demand_MPKI 0.0003
Core_0_ITLB_demand_miss_rate 8.37516e-06
Core_0_ITLB_load_access 1791010
Core_0_ITLB_load_hit 1790995
Core_0_ITLB_load_miss 15
Core_0_ITLB_load_MPKI 0.0003
Core_0_ITLB_load_miss_rate 8.37516e-06
Core_0_ITLB_rfo_access 0
Core_0_ITLB_rfo_hit 0
Core_0_ITLB_rfo_miss 0
Core_0_ITLB_rfo_MPKI 0
Core_0_ITLB_rfo_miss_rate 0
Core_0_ITLB_prefetch_access 0
Core_0_ITLB_prefetch_hit 0
Core_0_ITLB_prefetch_miss 0
Core_0_ITLB_prefetch_MPKI 0
Core_0_ITLB_prefetch_miss_rate 0
Core_0_ITLB_writeback_access 0
Core_0_ITLB_writeback_hit 0
Core_0_ITLB_writeback_miss 0
Core_0_ITLB_writeback_MPKI 0
Core_0_ITLB_writeback_miss_rate 0
Core_0_ITLB_prefetch_requested 0
Core_0_ITLB_prefetch_issued 0
Core_0_ITLB_prefetch_useful 0
Core_0_ITLB_prefetch_useless 0
Core_0_ITLB_prefetch_late 0
Core_0_ITLB_prefetch_accuracy 0
Core_0_ITLB_prefetch_coverage 0

Core_0_DTLB_total_access 14293389
Core_0_DTLB_total_hit 13819532
Core_0_DTLB_total_miss 473857
Core_0_DTLB_total_MPKI 9.47714
Core_0_DTLB_total_miss_rate 0.0331522
Core_0_DTLB_demand_access 14293389
Core_0_DTLB_demand_hit 13819532
Core_0_DTLB_demand_miss 473857
Core_0_DTLB_demand_MPKI 9.47714
Core_0_DTLB_demand_miss_rate 0.0331522
Core_0_DTLB_load_access 14293389
Core_0_DTLB_load_hit 13819532
Core_0_DTLB_load_miss 473857
Core_0_DTLB_load_MPKI 9.47714
Core_0_DTLB_load_miss_rate 0.0331522
Core_0_DTLB_rfo_access 0
Core_0_DTLB_rfo_hit 0
Core_0_DTLB_rfo_miss 0
Core_0_DTLB_rfo_MPKI 0
Core_0_DTLB_rfo_miss_rate 0
Core_0_DTLB_prefetch_access 0
Core_0_DTLB_prefetch_hit 0
Core_0_DTLB_prefetch_miss 0
Core_0_DTLB_prefetch_MPKI 0
Core_0_DTLB_prefetch_miss_rate 0
Core_0_DTLB_writeback_access 0
Core_0_DTLB_writeback_hit 0
Core_0_DTLB_writeback_miss 0
Core_0_DTLB_writeback_MPKI 0
Core_0_DTLB_writeback_miss_rate 0
Core_0_DTLB_prefetch_requested 0
Core_0_DTLB_prefetch_issued 0
Core_0_DTLB_prefetch_useful 0
Core_0_DTLB_prefetch_useless 0
Core_0_DTLB_prefetch_late 0
Core_0_DTLB_prefetch_accuracy 0
Core_0_DTLB_prefetch_coverage 0

Core_0_STLB_total_access 265962
Core_0_STLB_total_hit 210178
Core_0_STLB_total_miss 55784
Core_0_STLB_total_MPKI 1.11568
Core_0_STLB_total_miss_rate 0.209744
Core_0_STLB_demand_access 265962
Core_0_STLB_demand_hit 210178
Core_0_STLB_demand_miss 55784
Core_0_STLB_demand_MPKI 1.11568
Core_0_STLB_demand_miss_rate 0.209744
Core_0_STLB_load_access 265962
Core_0_STLB_load_hit 210178
Core_0_STLB_load_miss 55784
Core_0_STLB_load_MPKI 1.11568
Core_0_STLB_load_miss_rate 0.209744
Core_0_STLB_rfo_access 0
Core_0_STLB_rfo_hit 0
Core_0_STLB_rfo_miss 0
Core_0_STLB_rfo_MPKI 0
Core_0_STLB_rfo_miss_rate 0
Core_0_STLB_prefetch_access 0
Core_0_STLB_prefetch_hit 0
Core_0_STLB_prefetch_miss 0
Core_0_STLB_prefetch_MPKI 0
Core_0_STLB_prefetch_miss_rate 0
Core_0_STLB_writeback_access 0
Core_0_STLB_writeback_hit 0
Core_0_STLB_writeback_miss 0
Core_0_STLB_writeback_MPKI 0
Core_0_STLB_writeback_miss_rate 0
Core_0_STLB_prefetch_requested 0
Core_0_STLB_prefetch_issued 0
Core_0_STLB_prefetch_useful 0
Core_0_STLB_prefetch_useless 0
Core_0_STLB_prefetch_late 0
Core_0_STLB_prefetch_accuracy 0
Core_0_STLB_prefetch_coverage 0

Core_0_L1I_total_access 2110162
Core_0_L1I_total_hit 2110010
Core_0_L1I_total_miss 152
Core_0_L1I_total_MPKI 0.00304
Core_0_L1I_total_miss_rate 7.20324e-05
Core_0_L1I_demand_access 2110162
Core_0_L1I_demand_hit 2110010
Core_0_L1I_demand_miss 152
Core_0_L1I_demand_MPKI 0.00304
Core_0_L1I_demand_miss_rate 7.20324e-05
Core_0_L1I_load_access 2110162
Core_0_L1I_load_hit 2110010
Core_0_L1I_load_miss 152
Core_0_L1I_load_MPKI 0.00304
Core_0_L1I_load_miss_rate 7.20324e-05
Core_0_L1I_rfo_access 0
Core_0_L1I_rfo_hit 0
Core_0_L1I_rfo_miss 0
Core_0_L1I_rfo_MPKI 0
Core_0_L1I_rfo_miss_rate 0
Core_0_L1I_prefetch_access 0
Core_0_L1I_prefetch_hit 0
Core_0_L1I_prefetch_miss 0
Core_0_L1I_prefetch_MPKI 0
Core_0_L1I_prefetch_miss_rate 0
Core_0_L1I_writeback_access 0
Core_0_L1I_writeback_hit 0
Core_0_L1I_writeback_miss 0
Core_0_L1I_writeback_MPKI 0
Core_0_L1I_writeback_miss_rate 0
Core_0_L1I_prefetch_requested 0
Core_0_L1I_prefetch_issued 0
Core_0_L1I_prefetch_useful 0
Core_0_L1I_prefetch_useless 0
Core_0_L1I_prefetch_late 0
Core_0_L1I_prefetch_accuracy 0
Core_0_L1I_prefetch_coverage 0

Core_0_L1D_total_access 14958260
Core_0_L1D_total_hit 11062889
Core_0_L1D_total_miss 3895371
Core_0_L1D_total_MPKI 77.9074
Core_0_L1D_total_miss_rate 0.260416
Core_0_L1D_demand_access 9673198
Core_0_L1D_demand_hit 8304053
Core_0_L1D_demand_miss 1369145
Core_0_L1D_demand_MPKI 27.3829
Core_0_L1D_demand_miss_rate 0.14154
Core_0_L1D_load_access 9673198
Core_0_L1D_load_hit 8304053
Core_0_L1D_load_miss 1369145
Core_0_L1D_load_MPKI 27.3829
Core_0_L1D_load_miss_rate 0.14154
Core_0_L1D_rfo_access 0
Core_0_L1D_rfo_hit 0
Core_0_L1D_rfo_miss 0
Core_0_L1D_rfo_MPKI 0
Core_0_L1D_rfo_miss_rate 0
Core_0_L1D_prefetch_access 1264381
Core_0_L1D_prefetch_hit 224466
Core_0_L1D_prefetch_miss 1039915
Core_0_L1D_prefetch_MPKI 20.7983
Core_0_L1D_prefetch_miss_rate 0.82247
Core_0_L1D_writeback_access 4020681
Core_0_L1D_writeback_hit 2534370
Core_0_L1D_writeback_miss 1486311
Core_0_L1D_writeback_MPKI 29.7262
Core_0_L1D_writeback_miss_rate 0.369666
Core_0_L1D_prefetch_requested 1287810
Core_0_L1D_prefetch_issued 1264377
Core_0_L1D_prefetch_useful 614899
Core_0_L1D_prefetch_useless 387475
Core_0_L1D_prefetch_late 71848
Core_0_L1D_prefetch_accuracy 0.486326
Core_0_L1D_prefetch_coverage 0.309922

Core_0_L2C_total_access 8161564
Core_0_L2C_total_hit 4567379
Core_0_L2C_total_miss 3594185
Core_0_L2C_total_MPKI 71.8837
Core_0_L2C_total_miss_rate 0.440379
Core_0_L2C_demand_access 1230638
Core_0_L2C_demand_hit 480885
Core_0_L2C_demand_miss 749753
Core_0_L2C_demand_MPKI 14.9951
Core_0_L2C_demand_miss_rate 0.609239
Core_0_L2C_load_access 909335
Core_0_L2C_load_hit 455170
Core_0_L2C_load_miss 454165
Core_0_L2C_load_MPKI 9.0833
Core_0_L2C_load_miss_rate 0.499447
Core_0_L2C_rfo_access 321303
Core_0_L2C_rfo_hit 25715
Core_0_L2C_rfo_miss 295588
Core_0_L2C_rfo_MPKI 5.91176
Core_0_L2C_rfo_miss_rate 0.919967
Core_0_L2C_prefetch_access 6176030
Core_0_L2C_prefetch_hit 3332007
Core_0_L2C_prefetch_miss 2844023
Core_0_L2C_prefetch_MPKI 56.8805
Core_0_L2C_prefetch_miss_rate 0.460494
Core_0_L2C_writeback_access 754896
Core_0_L2C_writeback_hit 754487
Core_0_L2C_writeback_miss 409
Core_0_L2C_writeback_MPKI 0.00818
Core_0_L2C_writeback_miss_rate 0.000541796
Core_0_L2C_prefetch_requested 6221954
Core_0_L2C_prefetch_issued 5173589
Core_0_L2C_prefetch_useful 732232
Core_0_L2C_prefetch_useless 635313
Core_0_L2C_prefetch_late 52762
Core_0_L2C_prefetch_accuracy 0.141533
Core_0_L2C_prefetch_coverage 0.494089

Core_0_LLC_total_access 2946085
Core_0_LLC_total_hit 1119264
Core_0_LLC_total_miss 1826821
Core_0_LLC_total_MPKI 36.5364
Core_0_LLC_total_miss_rate 0.620084
Core_0_LLC_demand_access 696989
Core_0_LLC_demand_hit 196877
Core_0_LLC_demand_miss 500112
Core_0_LLC_demand_MPKI 10.0022
Core_0_LLC_demand_miss_rate 0.717532
Core_0_LLC_load_access 401401
Core_0_LLC_load_hit 135653
Core_0_LLC_load_miss 265748
Core_0_LLC_load_MPKI 5.31496
Core_0_LLC_load_miss_rate 0.662051
Core_0_LLC_rfo_access 295588
Core_0_LLC_rfo_hit 61224
Core_0_LLC_rfo_miss 234364
Core_0_LLC_rfo_MPKI 4.68728
Core_0_LLC_rfo_miss_rate 0.792874
Core_0_LLC_prefetch_access 1654108
Core_0_LLC_prefetch_hit 509737
Core_0_LLC_prefetch_miss 1144371
Core_0_LLC_prefetch_MPKI 22.8874
Core_0_LLC_prefetch_miss_rate 0.691836
Core_0_LLC_writeback_access 594988
Core_0_LLC_writeback_hit 412650
Core_0_LLC_writeback_miss 182338
Core_0_LLC_writeback_MPKI 3.64676
Core_0_LLC_writeback_miss_rate 0.306457
Core_0_LLC_prefetch_requested 0
Core_0_LLC_prefetch_issued 0
Core_0_LLC_prefetch_useful 0
Core_0_LLC_prefetch_useless 0
Core_0_LLC_prefetch_late 0
Core_0_LLC_prefetch_accuracy 0
Core_0_LLC_prefetch_coverage 0

[DRAM Statistics]
Channel_0_RQ_row_buffer_hit 91094
Channel_0_RQ_row_buffer_miss 1563097
Channel_0_WQ_row_buffer_hit 65172
Channel_0_WQ_row_buffer_miss 312266
Channel_0_WQ_full 943
Channel_0_dbus_congested 5340636
DRAM_total_RQ_row_buffer_hit 91094
DRAM_total_RQ_row_buffer_miss 1563097
DRAM_total_WQ_row_buffer_hit 65172
DRAM_total_WQ_row_buffer_miss 312266
DRAM_total_WQ_full 943
DRAM_total_dbus_congested 5340636
DRAM_avg_congested_cycle 6.24878

======STLB miss causes ========
Core_0_STLB_miss_cause_breakdown
Core_0_STLB_cause_Demand_Data_miss 45648
Core_0_STLB_cause_Demand_Data_miss_rate 0.171634
Core_0_STLB_cause_Demand_Instruction_miss 9
Core_0_STLB_cause_Demand_Instruction_miss_rate 3.38394e-05
Core_0_STLB_cause_L1D_Prefetch_miss 10127
Core_0_STLB_cause_L1D_Prefetch_miss_rate 0.0380769
Core_0_STLB_cause_L1I_Prefetch_miss 0
Core_0_STLB_cause_L1I_Prefetch_miss_rate 0
Core_0_STLB_cause_Other_miss 0
Core_0_STLB_cause_Other_miss_rate 0
Core_0_STLB_Demand_miss 45657
Core_0_STLB_Demand_miss_rate 0.171667
Core_0_STLB_L1D_Prefetch_miss 10127
Core_0_STLB_L1D_Prefetch_miss_rate 0.0380769
Core_0_STLB_Other_miss 0
Core_0_STLB_Other_miss_rate 0
