[VMEM] WARNING: physical memory size is smaller than virtual memory size.

*** ChampSim Multicore Out-of-Order Simulator ***
Warmup Instructions: 20000000
Simulation Instructions: 50000000
Number of CPUs: 1
Page size: 4096
Core 0: /data0/tzh/champsim_traces/SPEC06/462.libquantum-1343B.champsimtrace.xz
 L1D Berti prefetcher
Off-chip DRAM Size: 4 GiB Channels: 1 Width: 64-bit Data Rate: 3205 MT/s
Warmup halting CPU 0 at instruction 20000001 cycle 6078601 for remainder of phase
Warmup finished CPU 0 instructions: 20000001 cycles: 6078601 cumulative IPC: 3.29 (Simulation time: 00 hr 00 min 55 sec)
Warmup complete CPU 0 instructions: 20000001 cycles: 6078601 cumulative IPC: 3.29 (Simulation time: 00 hr 00 min 55 sec)
Simulation finished CPU 0 instructions: 50000004 cycles: 52940080 cumulative IPC: 0.9445 (Simulation time: 00 hr 07 min 32 sec)
Simulation complete CPU 0 instructions: 50000004 cycles: 52940080 cumulative IPC: 0.9445 (Simulation time: 00 hr 07 min 32 sec)

ChampSim completed all CPUs

=== Simulation ===
CPU 0 runs /data0/tzh/champsim_traces/SPEC06/462.libquantum-1343B.champsimtrace.xz

Region of Interest Statistics

CPU 0 cumulative IPC: 0.9445 instructions: 50000004 cycles: 52940080
CPU 0 Branch Prediction Accuracy: 95.08% MPKI: 8.95 Average ROB Occupancy at Mispredict: 15.93
Branch type MPKI
BRANCH_DIRECT_JUMP: 2e-05
BRANCH_INDIRECT: 4e-05
BRANCH_CONDITIONAL: 8.949
BRANCH_DIRECT_CALL: 0.00018
BRANCH_INDIRECT_CALL: 0
BRANCH_RETURN: 0.00018

cpu0->cpu0_STLB TOTAL        ACCESS:      21884 HIT:          0 MISS:      21884 MSHR_MERGE:          0
cpu0->cpu0_STLB LOAD         ACCESS:      21884 HIT:          0 MISS:      21884 MSHR_MERGE:          0
cpu0->cpu0_STLB RFO          ACCESS:          0 HIT:          0 MISS:          0 MSHR_MERGE:          0
cpu0->cpu0_STLB PREFETCH     ACCESS:          0 HIT:          0 MISS:          0 MSHR_MERGE:          0
cpu0->cpu0_STLB WRITE        ACCESS:          0 HIT:          0 MISS:          0 MSHR_MERGE:          0
cpu0->cpu0_STLB TRANSLATION  ACCESS:          0 HIT:          0 MISS:          0 MSHR_MERGE:          0
cpu0->cpu0_STLB PREFETCH REQUESTED:          0 ISSUED:          0 USEFUL:          0 USELESS:          0 LATE:          0
cpu0->cpu0_STLB AVERAGE MISS LATENCY: 57.49 cycles
cpu0->cpu0_L2C TOTAL        ACCESS:    8379064 HIT:    1910701 MISS:    6468363 MSHR_MERGE:    5065414
cpu0->cpu0_L2C LOAD         ACCESS:     233186 HIT:      61196 MISS:     171990 MSHR_MERGE:      89410
cpu0->cpu0_L2C RFO          ACCESS:         10 HIT:          0 MISS:         10 MSHR_MERGE:          0
cpu0->cpu0_L2C PREFETCH     ACCESS:    7328897 HIT:    1035276 MISS:    6293621 MSHR_MERGE:    4976004
cpu0->cpu0_L2C WRITE        ACCESS:     814229 HIT:     814229 MISS:          0 MSHR_MERGE:          0
cpu0->cpu0_L2C TRANSLATION  ACCESS:       2742 HIT:          0 MISS:       2742 MSHR_MERGE:          0
cpu0->cpu0_L2C PREFETCH REQUESTED:    7200142 ISSUED:    6161907 USEFUL:     734288 USELESS:     371178 LATE:      89410
cpu0->cpu0_L2C AVERAGE MISS LATENCY: 330 cycles
cpu0->cpu0_L1I TOTAL        ACCESS:    3398693 HIT:    3398681 MISS:         12 MSHR_MERGE:          1
cpu0->cpu0_L1I LOAD         ACCESS:    3398693 HIT:    3398681 MISS:         12 MSHR_MERGE:          1
cpu0->cpu0_L1I RFO          ACCESS:          0 HIT:          0 MISS:          0 MSHR_MERGE:          0
cpu0->cpu0_L1I PREFETCH     ACCESS:          0 HIT:          0 MISS:          0 MSHR_MERGE:          0
cpu0->cpu0_L1I WRITE        ACCESS:          0 HIT:          0 MISS:          0 MSHR_MERGE:          0
cpu0->cpu0_L1I TRANSLATION  ACCESS:          0 HIT:          0 MISS:          0 MSHR_MERGE:          0
cpu0->cpu0_L1I PREFETCH REQUESTED:          0 ISSUED:          0 USEFUL:          0 USELESS:          0 LATE:          0
cpu0->cpu0_L1I AVERAGE MISS LATENCY: 266.5 cycles
cpu0->cpu0_L1D TOTAL        ACCESS:   14426589 HIT:   11448758 MISS:    2977831 MSHR_MERGE:    1574909
cpu0->cpu0_L1D LOAD         ACCESS:   10512691 HIT:    8782661 MISS:    1730030 MSHR_MERGE:    1496856
cpu0->cpu0_L1D RFO          ACCESS:          0 HIT:          0 MISS:          0 MSHR_MERGE:          0
cpu0->cpu0_L1D PREFETCH     ACCESS:    1284534 HIT:      39506 MISS:    1245028 MSHR_MERGE:      78032
cpu0->cpu0_L1D WRITE        ACCESS:    2585595 HIT:    2585564 MISS:         31 MSHR_MERGE:         21
cpu0->cpu0_L1D TRANSLATION  ACCESS:      43769 HIT:      41027 MISS:       2742 MSHR_MERGE:          0
cpu0->cpu0_L1D PREFETCH REQUESTED:    1312058 ISSUED:    1284526 USEFUL:    1166967 USELESS:         19 LATE:     416076
cpu0->cpu0_L1D AVERAGE MISS LATENCY: 217.3 cycles
cpu0->cpu0_ITLB TOTAL        ACCESS:    3119894 HIT:    3119894 MISS:          0 MSHR_MERGE:          0
cpu0->cpu0_ITLB LOAD         ACCESS:    3119894 HIT:    3119894 MISS:          0 MSHR_MERGE:          0
cpu0->cpu0_ITLB RFO          ACCESS:          0 HIT:          0 MISS:          0 MSHR_MERGE:          0
cpu0->cpu0_ITLB PREFETCH     ACCESS:          0 HIT:          0 MISS:          0 MSHR_MERGE:          0
cpu0->cpu0_ITLB WRITE        ACCESS:          0 HIT:          0 MISS:          0 MSHR_MERGE:          0
cpu0->cpu0_ITLB TRANSLATION  ACCESS:          0 HIT:          0 MISS:          0 MSHR_MERGE:          0
cpu0->cpu0_ITLB PREFETCH REQUESTED:          0 ISSUED:          0 USEFUL:          0 USELESS:          0 LATE:          0
cpu0->cpu0_ITLB AVERAGE MISS LATENCY: - cycles
cpu0->cpu0_DTLB TOTAL        ACCESS:   12859619 HIT:   12725637 MISS:     133982 MSHR_MERGE:     112098
cpu0->cpu0_DTLB LOAD         ACCESS:   12859619 HIT:   12725637 MISS:     133982 MSHR_MERGE:     112098
cpu0->cpu0_DTLB RFO          ACCESS:          0 HIT:          0 MISS:          0 MSHR_MERGE:          0
cpu0->cpu0_DTLB PREFETCH     ACCESS:          0 HIT:          0 MISS:          0 MSHR_MERGE:          0
cpu0->cpu0_DTLB WRITE        ACCESS:          0 HIT:          0 MISS:          0 MSHR_MERGE:          0
cpu0->cpu0_DTLB TRANSLATION  ACCESS:          0 HIT:          0 MISS:          0 MSHR_MERGE:          0
cpu0->cpu0_DTLB PREFETCH REQUESTED:          0 ISSUED:          0 USEFUL:          0 USELESS:          0 LATE:          0
cpu0->cpu0_DTLB AVERAGE MISS LATENCY: 63.49 cycles
cpu0->LLC TOTAL        ACCESS:    2216397 HIT:     131273 MISS:    2085124 MSHR_MERGE:          0
cpu0->LLC LOAD         ACCESS:      82580 HIT:         23 MISS:      82557 MSHR_MERGE:          0
cpu0->LLC RFO          ACCESS:         10 HIT:          0 MISS:         10 MSHR_MERGE:          0
cpu0->LLC PREFETCH     ACCESS:    1317616 HIT:        119 MISS:    1317497 MSHR_MERGE:          0
cpu0->LLC WRITE        ACCESS:     813449 HIT:     131130 MISS:     682319 MSHR_MERGE:          0
cpu0->LLC TRANSLATION  ACCESS:       2742 HIT:          1 MISS:       2741 MSHR_MERGE:          0
cpu0->LLC PREFETCH REQUESTED:          0 ISSUED:          0 USEFUL:          0 USELESS:          0 LATE:          0
cpu0->LLC AVERAGE MISS LATENCY: 45.94 cycles

DRAM Statistics

Channel 0 RQ ROW_BUFFER_HIT:     279201
  ROW_BUFFER_MISS:    1123596
  AVG DBUS CONGESTED CYCLE: 6.066
Channel 0 WQ ROW_BUFFER_HIT:     106929
  ROW_BUFFER_MISS:     687516
  FULL:          0
Channel 0 REFRESHES ISSUED:       4412

[ROI Statistics]
[System Configuration]
num_cpus 1
cpu_freq 4000
fetch_width 6
decode_width 6
dispatch_width 6
execute_width 6
lq_width 2
sq_width 2
retire_width 6
scheduler_size 160
branch_mispredict_penalty 1
rob_size 352
lq_size 240
sq_size 112
ifetch_buffer_size 64
decode_buffer_size 32
dispatch_buffer_size 32
register_file_size 288
decode_latency 1
dispatch_latency 1
schedule_latency 0
execute_latency 0
page_size 4096
block_size 64
core_0_itlb_set 16
core_0_itlb_way 4
core_0_itlb_rq_size 16
core_0_itlb_wq_size 16
core_0_itlb_pq_size 0
core_0_itlb_mshr_size 8
core_0_itlb_hit_latency 1
core_0_itlb_fill_latency 1
core_0_itlb_max_tag_check 2
core_0_itlb_max_fill 2
core_0_dtlb_set 16
core_0_dtlb_way 4
core_0_dtlb_rq_size 16
core_0_dtlb_wq_size 16
core_0_dtlb_pq_size 0
core_0_dtlb_mshr_size 8
core_0_dtlb_hit_latency 1
core_0_dtlb_fill_latency 1
core_0_dtlb_max_tag_check 2
core_0_dtlb_max_fill 2
core_0_stlb_set 128
core_0_stlb_way 12
core_0_stlb_rq_size 32
core_0_stlb_wq_size 32
core_0_stlb_pq_size 0
core_0_stlb_mshr_size 16
core_0_stlb_hit_latency 4
core_0_stlb_fill_latency 4
core_0_stlb_max_tag_check 1
core_0_stlb_max_fill 1
core_0_l1i_set 64
core_0_l1i_way 8
core_0_l1i_rq_size 64
core_0_l1i_wq_size 64
core_0_l1i_pq_size 32
core_0_l1i_mshr_size 8
core_0_l1i_hit_latency 2
core_0_l1i_fill_latency 2
core_0_l1i_max_tag_check 2
core_0_l1i_max_fill 2
core_0_l1d_set 64
core_0_l1d_way 12
core_0_l1d_rq_size 64
core_0_l1d_wq_size 64
core_0_l1d_pq_size 8
core_0_l1d_mshr_size 16
core_0_l1d_hit_latency 2
core_0_l1d_fill_latency 3
core_0_l1d_max_tag_check 2
core_0_l1d_max_fill 2
core_0_l2c_set 1024
core_0_l2c_way 8
core_0_l2c_rq_size 32
core_0_l2c_wq_size 32
core_0_l2c_pq_size 16
core_0_l2c_mshr_size 32
core_0_l2c_hit_latency 5
core_0_l2c_fill_latency 5
core_0_l2c_max_tag_check 1
core_0_l2c_max_fill 1
llc_set 2048
llc_way 16
llc_rq_size 32
llc_wq_size 32
llc_pq_size 32
llc_mshr_size 64
llc_hit_latency 10
llc_fill_latency 10
llc_max_tag_check 1
llc_max_fill 1
dram_channels 1
dram_ranks 1
dram_bankgroups 8
dram_banks 4
dram_rows 16384
dram_columns 1024
dram_channel_width 8
dram_rq_size 64
dram_wq_size 64
dram_size 4294967296
core_0_itlb_prefetcher no
core_0_dtlb_prefetcher no
core_0_stlb_prefetcher no
core_0_l1i_prefetcher next_line
core_0_l1d_prefetcher berti
core_0_l2c_prefetcher pythia
llc_prefetcher no
llc_replacement drrip

Core_0_instructions 50000004
Core_0_cycles 52940080
Core_0_IPC 0.944464
Core_0_branch_prediction_accuracy 95.0846
Core_0_branch_MPKI 8.9499
Core_0_average_ROB_occupancy_at_mispredict 15.9276

Core_0_ITLB_total_access 3119894
Core_0_ITLB_total_hit 3119894
Core_0_ITLB_total_miss 0
Core_0_ITLB_total_MPKI 0
Core_0_ITLB_total_miss_rate 0
Core_0_ITLB_demand_access 3119894
Core_0_ITLB_demand_hit 3119894
Core_0_ITLB_demand_miss 0
Core_0_ITLB_demand_MPKI 0
Core_0_ITLB_demand_miss_rate 0
Core_0_ITLB_load_access 3119894
Core_0_ITLB_load_hit 3119894
Core_0_ITLB_load_miss 0
Core_0_ITLB_load_MPKI 0
Core_0_ITLB_load_miss_rate 0
Core_0_ITLB_rfo_access 0
Core_0_ITLB_rfo_hit 0
Core_0_ITLB_rfo_miss 0
Core_0_ITLB_rfo_MPKI 0
Core_0_ITLB_rfo_miss_rate 0
Core_0_ITLB_prefetch_access 0
Core_0_ITLB_prefetch_hit 0
Core_0_ITLB_prefetch_miss 0
Core_0_ITLB_prefetch_MPKI 0
Core_0_ITLB_prefetch_miss_rate 0
Core_0_ITLB_writeback_access 0
Core_0_ITLB_writeback_hit 0
Core_0_ITLB_writeback_miss 0
Core_0_ITLB_writeback_MPKI 0
Core_0_ITLB_writeback_miss_rate 0
Core_0_ITLB_prefetch_requested 0
Core_0_ITLB_prefetch_issued 0
Core_0_ITLB_prefetch_useful 0
Core_0_ITLB_prefetch_useless 0
Core_0_ITLB_prefetch_late 0
Core_0_ITLB_prefetch_accuracy 0
Core_0_ITLB_prefetch_coverage 0

Core_0_DTLB_total_access 12859619
Core_0_DTLB_total_hit 12725637
Core_0_DTLB_total_miss 133982
Core_0_DTLB_total_MPKI 2.67964
Core_0_DTLB_total_miss_rate 0.0104188
Core_0_DTLB_demand_access 12859619
Core_0_DTLB_demand_hit 12725637
Core_0_DTLB_demand_miss 133982
Core_0_DTLB_demand_MPKI 2.67964
Core_0_DTLB_demand_miss_rate 0.0104188
Core_0_DTLB_load_access 12859619
Core_0_DTLB_load_hit 12725637
Core_0_DTLB_load_miss 133982
Core_0_DTLB_load_MPKI 2.67964
Core_0_DTLB_load_miss_rate 0.0104188
Core_0_DTLB_rfo_access 0
Core_0_DTLB_rfo_hit 0
Core_0_DTLB_rfo_miss 0
Core_0_DTLB_rfo_MPKI 0
Core_0_DTLB_rfo_miss_rate 0
Core_0_DTLB_prefetch_access 0
Core_0_DTLB_prefetch_hit 0
Core_0_DTLB_prefetch_miss 0
Core_0_DTLB_prefetch_MPKI 0
Core_0_DTLB_prefetch_miss_rate 0
Core_0_DTLB_writeback_access 0
Core_0_DTLB_writeback_hit 0
Core_0_DTLB_writeback_miss 0
Core_0_DTLB_writeback_MPKI 0
Core_0_DTLB_writeback_miss_rate 0
Core_0_DTLB_prefetch_requested 0
Core_0_DTLB_prefetch_issued 0
Core_0_DTLB_prefetch_useful 0
Core_0_DTLB_prefetch_useless 0
Core_0_DTLB_prefetch_late 0
Core_0_DTLB_prefetch_accuracy 0
Core_0_DTLB_prefetch_coverage 0

Core_0_STLB_total_access 21884
Core_0_STLB_total_hit 0
Core_0_STLB_total_miss 21884
Core_0_STLB_total_MPKI 0.43768
Core_0_STLB_total_miss_rate 1
Core_0_STLB_demand_access 21884
Core_0_STLB_demand_hit 0
Core_0_STLB_demand_miss 21884
Core_0_STLB_demand_MPKI 0.43768
Core_0_STLB_demand_miss_rate 1
Core_0_STLB_load_access 21884
Core_0_STLB_load_hit 0
Core_0_STLB_load_miss 21884
Core_0_STLB_load_MPKI 0.43768
Core_0_STLB_load_miss_rate 1
Core_0_STLB_rfo_access 0
Core_0_STLB_rfo_hit 0
Core_0_STLB_rfo_miss 0
Core_0_STLB_rfo_MPKI 0
Core_0_STLB_rfo_miss_rate 0
Core_0_STLB_prefetch_access 0
Core_0_STLB_prefetch_hit 0
Core_0_STLB_prefetch_miss 0
Core_0_STLB_prefetch_MPKI 0
Core_0_STLB_prefetch_miss_rate 0
Core_0_STLB_writeback_access 0
Core_0_STLB_writeback_hit 0
Core_0_STLB_writeback_miss 0
Core_0_STLB_writeback_MPKI 0
Core_0_STLB_writeback_miss_rate 0
Core_0_STLB_prefetch_requested 0
Core_0_STLB_prefetch_issued 0
Core_0_STLB_prefetch_useful 0
Core_0_STLB_prefetch_useless 0
Core_0_STLB_prefetch_late 0
Core_0_STLB_prefetch_accuracy 0
Core_0_STLB_prefetch_coverage 0

Core_0_L1I_total_access 3398693
Core_0_L1I_total_hit 3398681
Core_0_L1I_total_miss 12
Core_0_L1I_total_MPKI 0.00024
Core_0_L1I_total_miss_rate 3.53077e-06
Core_0_L1I_demand_access 3398693
Core_0_L1I_demand_hit 3398681
Core_0_L1I_demand_miss 12
Core_0_L1I_demand_MPKI 0.00024
Core_0_L1I_demand_miss_rate 3.53077e-06
Core_0_L1I_load_access 3398693
Core_0_L1I_load_hit 3398681
Core_0_L1I_load_miss 12
Core_0_L1I_load_MPKI 0.00024
Core_0_L1I_load_miss_rate 3.53077e-06
Core_0_L1I_rfo_access 0
Core_0_L1I_rfo_hit 0
Core_0_L1I_rfo_miss 0
Core_0_L1I_rfo_MPKI 0
Core_0_L1I_rfo_miss_rate 0
Core_0_L1I_prefetch_access 0
Core_0_L1I_prefetch_hit 0
Core_0_L1I_prefetch_miss 0
Core_0_L1I_prefetch_MPKI 0
Core_0_L1I_prefetch_miss_rate 0
Core_0_L1I_writeback_access 0
Core_0_L1I_writeback_hit 0
Core_0_L1I_writeback_miss 0
Core_0_L1I_writeback_MPKI 0
Core_0_L1I_writeback_miss_rate 0
Core_0_L1I_prefetch_requested 0
Core_0_L1I_prefetch_issued 0
Core_0_L1I_prefetch_useful 0
Core_0_L1I_prefetch_useless 0
Core_0_L1I_prefetch_late 0
Core_0_L1I_prefetch_accuracy 0
Core_0_L1I_prefetch_coverage 0

Core_0_L1D_total_access 14382820
Core_0_L1D_total_hit 11407731
Core_0_L1D_total_miss 2975089
Core_0_L1D_total_MPKI 59.5018
Core_0_L1D_total_miss_rate 0.20685
Core_0_L1D_demand_access 10512691
Core_0_L1D_demand_hit 8782661
Core_0_L1D_demand_miss 1730030
Core_0_L1D_demand_MPKI 34.6006
Core_0_L1D_demand_miss_rate 0.164566
Core_0_L1D_load_access 10512691
Core_0_L1D_load_hit 8782661
Core_0_L1D_load_miss 1730030
Core_0_L1D_load_MPKI 34.6006
Core_0_L1D_load_miss_rate 0.164566
Core_0_L1D_rfo_access 0
Core_0_L1D_rfo_hit 0
Core_0_L1D_rfo_miss 0
Core_0_L1D_rfo_MPKI 0
Core_0_L1D_rfo_miss_rate 0
Core_0_L1D_prefetch_access 1284534
Core_0_L1D_prefetch_hit 39506
Core_0_L1D_prefetch_miss 1245028
Core_0_L1D_prefetch_MPKI 24.9006
Core_0_L1D_prefetch_miss_rate 0.969245
Core_0_L1D_writeback_access 2585595
Core_0_L1D_writeback_hit 2585564
Core_0_L1D_writeback_miss 31
Core_0_L1D_writeback_MPKI 0.00062
Core_0_L1D_writeback_miss_rate 1.19895e-05
Core_0_L1D_prefetch_requested 1312058
Core_0_L1D_prefetch_issued 1284526
Core_0_L1D_prefetch_useful 1166967
Core_0_L1D_prefetch_useless 19
Core_0_L1D_prefetch_late 416076
Core_0_L1D_prefetch_accuracy 0.908481
Core_0_L1D_prefetch_coverage 0.40282

Core_0_L2C_total_access 8376322
Core_0_L2C_total_hit 1910701
Core_0_L2C_total_miss 6465621
Core_0_L2C_total_MPKI 129.312
Core_0_L2C_total_miss_rate 0.771893
Core_0_L2C_demand_access 233196
Core_0_L2C_demand_hit 61196
Core_0_L2C_demand_miss 172000
Core_0_L2C_demand_MPKI 3.44
Core_0_L2C_demand_miss_rate 0.737577
Core_0_L2C_load_access 233186
Core_0_L2C_load_hit 61196
Core_0_L2C_load_miss 171990
Core_0_L2C_load_MPKI 3.4398
Core_0_L2C_load_miss_rate 0.737566
Core_0_L2C_rfo_access 10
Core_0_L2C_rfo_hit 0
Core_0_L2C_rfo_miss 10
Core_0_L2C_rfo_MPKI 0.0002
Core_0_L2C_rfo_miss_rate 1
Core_0_L2C_prefetch_access 7328897
Core_0_L2C_prefetch_hit 1035276
Core_0_L2C_prefetch_miss 6293621
Core_0_L2C_prefetch_MPKI 125.872
Core_0_L2C_prefetch_miss_rate 0.858741
Core_0_L2C_writeback_access 814229
Core_0_L2C_writeback_hit 814229
Core_0_L2C_writeback_miss 0
Core_0_L2C_writeback_MPKI 0
Core_0_L2C_writeback_miss_rate 0
Core_0_L2C_prefetch_requested 7200142
Core_0_L2C_prefetch_issued 6161907
Core_0_L2C_prefetch_useful 734288
Core_0_L2C_prefetch_useless 371178
Core_0_L2C_prefetch_late 89410
Core_0_L2C_prefetch_accuracy 0.119166
Core_0_L2C_prefetch_coverage 0.810215

Core_0_LLC_total_access 2213655
Core_0_LLC_total_hit 131272
Core_0_LLC_total_miss 2082383
Core_0_LLC_total_MPKI 41.6477
Core_0_LLC_total_miss_rate 0.940699
Core_0_LLC_demand_access 82590
Core_0_LLC_demand_hit 23
Core_0_LLC_demand_miss 82567
Core_0_LLC_demand_MPKI 1.65134
Core_0_LLC_demand_miss_rate 0.999722
Core_0_LLC_load_access 82580
Core_0_LLC_load_hit 23
Core_0_LLC_load_miss 82557
Core_0_LLC_load_MPKI 1.65114
Core_0_LLC_load_miss_rate 0.999721
Core_0_LLC_rfo_access 10
Core_0_LLC_rfo_hit 0
Core_0_LLC_rfo_miss 10
Core_0_LLC_rfo_MPKI 0.0002
Core_0_LLC_rfo_miss_rate 1
Core_0_LLC_prefetch_access 1317616
Core_0_LLC_prefetch_hit 119
Core_0_LLC_prefetch_miss 1317497
Core_0_LLC_prefetch_MPKI 26.3499
Core_0_LLC_prefetch_miss_rate 0.99991
Core_0_LLC_writeback_access 813449
Core_0_LLC_writeback_hit 131130
Core_0_LLC_writeback_miss 682319
Core_0_LLC_writeback_MPKI 13.6464
Core_0_LLC_writeback_miss_rate 0.838798
Core_0_LLC_prefetch_requested 0
Core_0_LLC_prefetch_issued 0
Core_0_LLC_prefetch_useful 0
Core_0_LLC_prefetch_useless 0
Core_0_LLC_prefetch_late 0
Core_0_LLC_prefetch_accuracy 0
Core_0_LLC_prefetch_coverage 0

[DRAM Statistics]
Channel_0_RQ_row_buffer_hit 279201
Channel_0_RQ_row_buffer_miss 1123596
Channel_0_WQ_row_buffer_hit 106929
Channel_0_WQ_row_buffer_miss 687516
Channel_0_WQ_full 0
Channel_0_dbus_congested 7018099
DRAM_total_RQ_row_buffer_hit 279201
DRAM_total_RQ_row_buffer_miss 1123596
DRAM_total_WQ_row_buffer_hit 106929
DRAM_total_WQ_row_buffer_miss 687516
DRAM_total_WQ_full 0
DRAM_total_dbus_congested 7018099
DRAM_avg_congested_cycle 6.06588

======STLB miss causes ========
Core_0_STLB_miss_cause_breakdown
Core_0_STLB_cause_Demand_Data_miss 21883
Core_0_STLB_cause_Demand_Data_miss_rate 0.999954
Core_0_STLB_cause_Demand_Instruction_miss 0
Core_0_STLB_cause_Demand_Instruction_miss_rate 0
Core_0_STLB_cause_L1D_Prefetch_miss 1
Core_0_STLB_cause_L1D_Prefetch_miss_rate 4.56955e-05
Core_0_STLB_cause_L1I_Prefetch_miss 0
Core_0_STLB_cause_L1I_Prefetch_miss_rate 0
Core_0_STLB_cause_Other_miss 0
Core_0_STLB_cause_Other_miss_rate 0
Core_0_STLB_Demand_miss 21883
Core_0_STLB_Demand_miss_rate 0.999954
Core_0_STLB_L1D_Prefetch_miss 1
Core_0_STLB_L1D_Prefetch_miss_rate 4.56955e-05
Core_0_STLB_Other_miss 0
Core_0_STLB_Other_miss_rate 0
