[VMEM] WARNING: physical memory size is smaller than virtual memory size.

*** ChampSim Multicore Out-of-Order Simulator ***
Warmup Instructions: 20000000
Simulation Instructions: 50000000
Number of CPUs: 1
Page size: 4096
Core 0: /data0/tzh/champsim_traces/SPEC06/473.astar-153B.champsimtrace.xz
 L1D Berti prefetcher
Off-chip DRAM Size: 4 GiB Channels: 1 Width: 64-bit Data Rate: 3205 MT/s
Warmup halting CPU 0 at instruction 20000002 cycle 4274741 for remainder of phase
Warmup finished CPU 0 instructions: 20000002 cycles: 4274741 cumulative IPC: 4.679 (Simulation time: 00 hr 00 min 49 sec)
Warmup complete CPU 0 instructions: 20000002 cycles: 4274741 cumulative IPC: 4.679 (Simulation time: 00 hr 00 min 49 sec)
Simulation finished CPU 0 instructions: 50000004 cycles: 27807071 cumulative IPC: 1.798 (Simulation time: 00 hr 04 min 13 sec)
Simulation complete CPU 0 instructions: 50000004 cycles: 27807071 cumulative IPC: 1.798 (Simulation time: 00 hr 04 min 13 sec)

ChampSim completed all CPUs

=== Simulation ===
CPU 0 runs /data0/tzh/champsim_traces/SPEC06/473.astar-153B.champsimtrace.xz

Region of Interest Statistics

CPU 0 cumulative IPC: 1.798 instructions: 50000004 cycles: 27807071
CPU 0 Branch Prediction Accuracy: 90.44% MPKI: 12.48 Average ROB Occupancy at Mispredict: 67.1
Branch type MPKI
BRANCH_DIRECT_JUMP: 0
BRANCH_INDIRECT: 0
BRANCH_CONDITIONAL: 12.48
BRANCH_DIRECT_CALL: 0
BRANCH_INDIRECT_CALL: 0
BRANCH_RETURN: 0

cpu0->cpu0_STLB TOTAL        ACCESS:     140831 HIT:     137140 MISS:       3691 MSHR_MERGE:          0
cpu0->cpu0_STLB LOAD         ACCESS:     140831 HIT:     137140 MISS:       3691 MSHR_MERGE:          0
cpu0->cpu0_STLB RFO          ACCESS:          0 HIT:          0 MISS:          0 MSHR_MERGE:          0
cpu0->cpu0_STLB PREFETCH     ACCESS:          0 HIT:          0 MISS:          0 MSHR_MERGE:          0
cpu0->cpu0_STLB WRITE        ACCESS:          0 HIT:          0 MISS:          0 MSHR_MERGE:          0
cpu0->cpu0_STLB TRANSLATION  ACCESS:          0 HIT:          0 MISS:          0 MSHR_MERGE:          0
cpu0->cpu0_STLB PREFETCH REQUESTED:          0 ISSUED:          0 USEFUL:          0 USELESS:          0 LATE:          0
cpu0->cpu0_STLB AVERAGE MISS LATENCY: 55.15 cycles
cpu0->cpu0_L2C TOTAL        ACCESS:     513659 HIT:     307224 MISS:     206435 MSHR_MERGE:       8416
cpu0->cpu0_L2C LOAD         ACCESS:      97727 HIT:      39715 MISS:      58012 MSHR_MERGE:        750
cpu0->cpu0_L2C RFO          ACCESS:      16771 HIT:       1071 MISS:      15700 MSHR_MERGE:          0
cpu0->cpu0_L2C PREFETCH     ACCESS:     311868 HIT:     181939 MISS:     129929 MSHR_MERGE:       7666
cpu0->cpu0_L2C WRITE        ACCESS:      84365 HIT:      84206 MISS:        159 MSHR_MERGE:          0
cpu0->cpu0_L2C TRANSLATION  ACCESS:       2928 HIT:        293 MISS:       2635 MSHR_MERGE:          0
cpu0->cpu0_L2C PREFETCH REQUESTED:     253393 ISSUED:     253393 USEFUL:      48086 USELESS:      60729 LATE:        750
cpu0->cpu0_L2C AVERAGE MISS LATENCY: 54.63 cycles
cpu0->cpu0_L1I TOTAL        ACCESS:       8743 HIT:       8743 MISS:          0 MSHR_MERGE:          0
cpu0->cpu0_L1I LOAD         ACCESS:       8743 HIT:       8743 MISS:          0 MSHR_MERGE:          0
cpu0->cpu0_L1I RFO          ACCESS:          0 HIT:          0 MISS:          0 MSHR_MERGE:          0
cpu0->cpu0_L1I PREFETCH     ACCESS:          0 HIT:          0 MISS:          0 MSHR_MERGE:          0
cpu0->cpu0_L1I WRITE        ACCESS:          0 HIT:          0 MISS:          0 MSHR_MERGE:          0
cpu0->cpu0_L1I TRANSLATION  ACCESS:          0 HIT:          0 MISS:          0 MSHR_MERGE:          0
cpu0->cpu0_L1I PREFETCH REQUESTED:          0 ISSUED:          0 USEFUL:          0 USELESS:          0 LATE:          0
cpu0->cpu0_L1I AVERAGE MISS LATENCY: - cycles
cpu0->cpu0_L1D TOTAL        ACCESS:   16116065 HIT:   15837482 MISS:     278583 MSHR_MERGE:     102677
cpu0->cpu0_L1D LOAD         ACCESS:    9465555 HIT:    9281181 MISS:     184374 MSHR_MERGE:      86642
cpu0->cpu0_L1D RFO          ACCESS:          0 HIT:          0 MISS:          0 MSHR_MERGE:          0
cpu0->cpu0_L1D PREFETCH     ACCESS:     103141 HIT:      44063 MISS:      59078 MSHR_MERGE:        603
cpu0->cpu0_L1D WRITE        ACCESS:    6539987 HIT:    6507785 MISS:      32202 MSHR_MERGE:      15431
cpu0->cpu0_L1D TRANSLATION  ACCESS:       7382 HIT:       4453 MISS:       2929 MSHR_MERGE:          1
cpu0->cpu0_L1D PREFETCH REQUESTED:     103133 ISSUED:     103133 USEFUL:      44111 USELESS:      14364 LATE:        607
cpu0->cpu0_L1D AVERAGE MISS LATENCY: 44.41 cycles
cpu0->cpu0_ITLB TOTAL        ACCESS:       6814 HIT:       6814 MISS:          0 MSHR_MERGE:          0
cpu0->cpu0_ITLB LOAD         ACCESS:       6814 HIT:       6814 MISS:          0 MSHR_MERGE:          0
cpu0->cpu0_ITLB RFO          ACCESS:          0 HIT:          0 MISS:          0 MSHR_MERGE:          0
cpu0->cpu0_ITLB PREFETCH     ACCESS:          0 HIT:          0 MISS:          0 MSHR_MERGE:          0
cpu0->cpu0_ITLB WRITE        ACCESS:          0 HIT:          0 MISS:          0 MSHR_MERGE:          0
cpu0->cpu0_ITLB TRANSLATION  ACCESS:          0 HIT:          0 MISS:          0 MSHR_MERGE:          0
cpu0->cpu0_ITLB PREFETCH REQUESTED:          0 ISSUED:          0 USEFUL:          0 USELESS:          0 LATE:          0
cpu0->cpu0_ITLB AVERAGE MISS LATENCY: - cycles
cpu0->cpu0_DTLB TOTAL        ACCESS:   15156006 HIT:   15002056 MISS:     153950 MSHR_MERGE:      13119
cpu0->cpu0_DTLB LOAD         ACCESS:   15156006 HIT:   15002056 MISS:     153950 MSHR_MERGE:      13119
cpu0->cpu0_DTLB RFO          ACCESS:          0 HIT:          0 MISS:          0 MSHR_MERGE:          0
cpu0->cpu0_DTLB PREFETCH     ACCESS:          0 HIT:          0 MISS:          0 MSHR_MERGE:          0
cpu0->cpu0_DTLB WRITE        ACCESS:          0 HIT:          0 MISS:          0 MSHR_MERGE:          0
cpu0->cpu0_DTLB TRANSLATION  ACCESS:          0 HIT:          0 MISS:          0 MSHR_MERGE:          0
cpu0->cpu0_DTLB PREFETCH REQUESTED:          0 ISSUED:          0 USEFUL:          0 USELESS:          0 LATE:          0
cpu0->cpu0_DTLB AVERAGE MISS LATENCY: 6.472 cycles
cpu0->LLC TOTAL        ACCESS:     272996 HIT:     214794 MISS:      58202 MSHR_MERGE:          0
cpu0->LLC LOAD         ACCESS:      57262 HIT:      46079 MISS:      11183 MSHR_MERGE:          0
cpu0->LLC RFO          ACCESS:      15700 HIT:       8515 MISS:       7185 MSHR_MERGE:          0
cpu0->LLC PREFETCH     ACCESS:     122263 HIT:      91262 MISS:      31001 MSHR_MERGE:          0
cpu0->LLC WRITE        ACCESS:      75136 HIT:      66602 MISS:       8534 MSHR_MERGE:          0
cpu0->LLC TRANSLATION  ACCESS:       2635 HIT:       2336 MISS:        299 MSHR_MERGE:          0
cpu0->LLC PREFETCH REQUESTED:          0 ISSUED:          0 USEFUL:          0 USELESS:          0 LATE:          0
cpu0->LLC AVERAGE MISS LATENCY: 112.2 cycles

DRAM Statistics

Channel 0 RQ ROW_BUFFER_HIT:       1630
  ROW_BUFFER_MISS:      48036
  AVG DBUS CONGESTED CYCLE: 13.91
Channel 0 WQ ROW_BUFFER_HIT:       1027
  ROW_BUFFER_MISS:      10199
  FULL:          0
Channel 0 REFRESHES ISSUED:       2317

[ROI Statistics]
[System Configuration]
num_cpus 1
cpu_freq 4000
fetch_width 6
decode_width 6
dispatch_width 6
execute_width 6
lq_width 2
sq_width 2
retire_width 6
scheduler_size 160
branch_mispredict_penalty 1
rob_size 352
lq_size 240
sq_size 112
ifetch_buffer_size 64
decode_buffer_size 32
dispatch_buffer_size 32
register_file_size 288
decode_latency 1
dispatch_latency 1
schedule_latency 0
execute_latency 0
page_size 4096
block_size 64
core_0_itlb_set 16
core_0_itlb_way 4
core_0_itlb_rq_size 16
core_0_itlb_wq_size 16
core_0_itlb_pq_size 0
core_0_itlb_mshr_size 8
core_0_itlb_hit_latency 1
core_0_itlb_fill_latency 1
core_0_itlb_max_tag_check 2
core_0_itlb_max_fill 2
core_0_dtlb_set 16
core_0_dtlb_way 4
core_0_dtlb_rq_size 16
core_0_dtlb_wq_size 16
core_0_dtlb_pq_size 0
core_0_dtlb_mshr_size 8
core_0_dtlb_hit_latency 1
core_0_dtlb_fill_latency 1
core_0_dtlb_max_tag_check 2
core_0_dtlb_max_fill 2
core_0_stlb_set 128
core_0_stlb_way 12
core_0_stlb_rq_size 32
core_0_stlb_wq_size 32
core_0_stlb_pq_size 0
core_0_stlb_mshr_size 16
core_0_stlb_hit_latency 4
core_0_stlb_fill_latency 4
core_0_stlb_max_tag_check 1
core_0_stlb_max_fill 1
core_0_l1i_set 64
core_0_l1i_way 8
core_0_l1i_rq_size 64
core_0_l1i_wq_size 64
core_0_l1i_pq_size 32
core_0_l1i_mshr_size 8
core_0_l1i_hit_latency 2
core_0_l1i_fill_latency 2
core_0_l1i_max_tag_check 2
core_0_l1i_max_fill 2
core_0_l1d_set 64
core_0_l1d_way 12
core_0_l1d_rq_size 64
core_0_l1d_wq_size 64
core_0_l1d_pq_size 8
core_0_l1d_mshr_size 16
core_0_l1d_hit_latency 2
core_0_l1d_fill_latency 3
core_0_l1d_max_tag_check 2
core_0_l1d_max_fill 2
core_0_l2c_set 1024
core_0_l2c_way 8
core_0_l2c_rq_size 32
core_0_l2c_wq_size 32
core_0_l2c_pq_size 16
core_0_l2c_mshr_size 32
core_0_l2c_hit_latency 5
core_0_l2c_fill_latency 5
core_0_l2c_max_tag_check 1
core_0_l2c_max_fill 1
llc_set 2048
llc_way 16
llc_rq_size 32
llc_wq_size 32
llc_pq_size 32
llc_mshr_size 64
llc_hit_latency 10
llc_fill_latency 10
llc_max_tag_check 1
llc_max_fill 1
dram_channels 1
dram_ranks 1
dram_bankgroups 8
dram_banks 4
dram_rows 16384
dram_columns 1024
dram_channel_width 8
dram_rq_size 64
dram_wq_size 64
dram_size 4294967296
core_0_itlb_prefetcher no
core_0_dtlb_prefetcher no
core_0_stlb_prefetcher no
core_0_l1i_prefetcher next_line
core_0_l1d_prefetcher berti
core_0_l2c_prefetcher pythia
llc_prefetcher no
llc_replacement drrip

Core_0_instructions 50000004
Core_0_cycles 27807071
Core_0_IPC 1.7981
Core_0_branch_prediction_accuracy 90.4365
Core_0_branch_MPKI 12.4841
Core_0_average_ROB_occupancy_at_mispredict 67.0996

Core_0_ITLB_total_access 6814
Core_0_ITLB_total_hit 6814
Core_0_ITLB_total_miss 0
Core_0_ITLB_total_MPKI 0
Core_0_ITLB_total_miss_rate 0
Core_0_ITLB_demand_access 6814
Core_0_ITLB_demand_hit 6814
Core_0_ITLB_demand_miss 0
Core_0_ITLB_demand_MPKI 0
Core_0_ITLB_demand_miss_rate 0
Core_0_ITLB_load_access 6814
Core_0_ITLB_load_hit 6814
Core_0_ITLB_load_miss 0
Core_0_ITLB_load_MPKI 0
Core_0_ITLB_load_miss_rate 0
Core_0_ITLB_rfo_access 0
Core_0_ITLB_rfo_hit 0
Core_0_ITLB_rfo_miss 0
Core_0_ITLB_rfo_MPKI 0
Core_0_ITLB_rfo_miss_rate 0
Core_0_ITLB_prefetch_access 0
Core_0_ITLB_prefetch_hit 0
Core_0_ITLB_prefetch_miss 0
Core_0_ITLB_prefetch_MPKI 0
Core_0_ITLB_prefetch_miss_rate 0
Core_0_ITLB_writeback_access 0
Core_0_ITLB_writeback_hit 0
Core_0_ITLB_writeback_miss 0
Core_0_ITLB_writeback_MPKI 0
Core_0_ITLB_writeback_miss_rate 0
Core_0_ITLB_prefetch_requested 0
Core_0_ITLB_prefetch_issued 0
Core_0_ITLB_prefetch_useful 0
Core_0_ITLB_prefetch_useless 0
Core_0_ITLB_prefetch_late 0
Core_0_ITLB_prefetch_accuracy 0
Core_0_ITLB_prefetch_coverage 0

Core_0_DTLB_total_access 15156006
Core_0_DTLB_total_hit 15002056
Core_0_DTLB_total_miss 153950
Core_0_DTLB_total_MPKI 3.079
Core_0_DTLB_total_miss_rate 0.0101577
Core_0_DTLB_demand_access 15156006
Core_0_DTLB_demand_hit 15002056
Core_0_DTLB_demand_miss 153950
Core_0_DTLB_demand_MPKI 3.079
Core_0_DTLB_demand_miss_rate 0.0101577
Core_0_DTLB_load_access 15156006
Core_0_DTLB_load_hit 15002056
Core_0_DTLB_load_miss 153950
Core_0_DTLB_load_MPKI 3.079
Core_0_DTLB_load_miss_rate 0.0101577
Core_0_DTLB_rfo_access 0
Core_0_DTLB_rfo_hit 0
Core_0_DTLB_rfo_miss 0
Core_0_DTLB_rfo_MPKI 0
Core_0_DTLB_rfo_miss_rate 0
Core_0_DTLB_prefetch_access 0
Core_0_DTLB_prefetch_hit 0
Core_0_DTLB_prefetch_miss 0
Core_0_DTLB_prefetch_MPKI 0
Core_0_DTLB_prefetch_miss_rate 0
Core_0_DTLB_writeback_access 0
Core_0_DTLB_writeback_hit 0
Core_0_DTLB_writeback_miss 0
Core_0_DTLB_writeback_MPKI 0
Core_0_DTLB_writeback_miss_rate 0
Core_0_DTLB_prefetch_requested 0
Core_0_DTLB_prefetch_issued 0
Core_0_DTLB_prefetch_useful 0
Core_0_DTLB_prefetch_useless 0
Core_0_DTLB_prefetch_late 0
Core_0_DTLB_prefetch_accuracy 0
Core_0_DTLB_prefetch_coverage 0

Core_0_STLB_total_access 140831
Core_0_STLB_total_hit 137140
Core_0_STLB_total_miss 3691
Core_0_STLB_total_MPKI 0.07382
Core_0_STLB_total_miss_rate 0.0262087
Core_0_STLB_demand_access 140831
Core_0_STLB_demand_hit 137140
Core_0_STLB_demand_miss 3691
Core_0_STLB_demand_MPKI 0.07382
Core_0_STLB_demand_miss_rate 0.0262087
Core_0_STLB_load_access 140831
Core_0_STLB_load_hit 137140
Core_0_STLB_load_miss 3691
Core_0_STLB_load_MPKI 0.07382
Core_0_STLB_load_miss_rate 0.0262087
Core_0_STLB_rfo_access 0
Core_0_STLB_rfo_hit 0
Core_0_STLB_rfo_miss 0
Core_0_STLB_rfo_MPKI 0
Core_0_STLB_rfo_miss_rate 0
Core_0_STLB_prefetch_access 0
Core_0_STLB_prefetch_hit 0
Core_0_STLB_prefetch_miss 0
Core_0_STLB_prefetch_MPKI 0
Core_0_STLB_prefetch_miss_rate 0
Core_0_STLB_writeback_access 0
Core_0_STLB_writeback_hit 0
Core_0_STLB_writeback_miss 0
Core_0_STLB_writeback_MPKI 0
Core_0_STLB_writeback_miss_rate 0
Core_0_STLB_prefetch_requested 0
Core_0_STLB_prefetch_issued 0
Core_0_STLB_prefetch_useful 0
Core_0_STLB_prefetch_useless 0
Core_0_STLB_prefetch_late 0
Core_0_STLB_prefetch_accuracy 0
Core_0_STLB_prefetch_coverage 0

Core_0_L1I_total_access 8743
Core_0_L1I_total_hit 8743
Core_0_L1I_total_miss 0
Core_0_L1I_total_MPKI 0
Core_0_L1I_total_miss_rate 0
Core_0_L1I_demand_access 8743
Core_0_L1I_demand_hit 8743
Core_0_L1I_demand_miss 0
Core_0_L1I_demand_MPKI 0
Core_0_L1I_demand_miss_rate 0
Core_0_L1I_load_access 8743
Core_0_L1I_load_hit 8743
Core_0_L1I_load_miss 0
Core_0_L1I_load_MPKI 0
Core_0_L1I_load_miss_rate 0
Core_0_L1I_rfo_access 0
Core_0_L1I_rfo_hit 0
Core_0_L1I_rfo_miss 0
Core_0_L1I_rfo_MPKI 0
Core_0_L1I_rfo_miss_rate 0
Core_0_L1I_prefetch_access 0
Core_0_L1I_prefetch_hit 0
Core_0_L1I_prefetch_miss 0
Core_0_L1I_prefetch_MPKI 0
Core_0_L1I_prefetch_miss_rate 0
Core_0_L1I_writeback_access 0
Core_0_L1I_writeback_hit 0
Core_0_L1I_writeback_miss 0
Core_0_L1I_writeback_MPKI 0
Core_0_L1I_writeback_miss_rate 0
Core_0_L1I_prefetch_requested 0
Core_0_L1I_prefetch_issued 0
Core_0_L1I_prefetch_useful 0
Core_0_L1I_prefetch_useless 0
Core_0_L1I_prefetch_late 0
Core_0_L1I_prefetch_accuracy 0
Core_0_L1I_prefetch_coverage 0

Core_0_L1D_total_access 16108683
Core_0_L1D_total_hit 15833029
Core_0_L1D_total_miss 275654
Core_0_L1D_total_MPKI 5.51308
Core_0_L1D_total_miss_rate 0.0171121
Core_0_L1D_demand_access 9465555
Core_0_L1D_demand_hit 9281181
Core_0_L1D_demand_miss 184374
Core_0_L1D_demand_MPKI 3.68748
Core_0_L1D_demand_miss_rate 0.0194784
Core_0_L1D_load_access 9465555
Core_0_L1D_load_hit 9281181
Core_0_L1D_load_miss 184374
Core_0_L1D_load_MPKI 3.68748
Core_0_L1D_load_miss_rate 0.0194784
Core_0_L1D_rfo_access 0
Core_0_L1D_rfo_hit 0
Core_0_L1D_rfo_miss 0
Core_0_L1D_rfo_MPKI 0
Core_0_L1D_rfo_miss_rate 0
Core_0_L1D_prefetch_access 103141
Core_0_L1D_prefetch_hit 44063
Core_0_L1D_prefetch_miss 59078
Core_0_L1D_prefetch_MPKI 1.18156
Core_0_L1D_prefetch_miss_rate 0.572789
Core_0_L1D_writeback_access 6539987
Core_0_L1D_writeback_hit 6507785
Core_0_L1D_writeback_miss 32202
Core_0_L1D_writeback_MPKI 0.64404
Core_0_L1D_writeback_miss_rate 0.00492386
Core_0_L1D_prefetch_requested 103133
Core_0_L1D_prefetch_issued 103133
Core_0_L1D_prefetch_useful 44111
Core_0_L1D_prefetch_useless 14364
Core_0_L1D_prefetch_late 607
Core_0_L1D_prefetch_accuracy 0.42771
Core_0_L1D_prefetch_coverage 0.193059

Core_0_L2C_total_access 510731
Core_0_L2C_total_hit 306931
Core_0_L2C_total_miss 203800
Core_0_L2C_total_MPKI 4.076
Core_0_L2C_total_miss_rate 0.399036
Core_0_L2C_demand_access 114498
Core_0_L2C_demand_hit 40786
Core_0_L2C_demand_miss 73712
Core_0_L2C_demand_MPKI 1.47424
Core_0_L2C_demand_miss_rate 0.643784
Core_0_L2C_load_access 97727
Core_0_L2C_load_hit 39715
Core_0_L2C_load_miss 58012
Core_0_L2C_load_MPKI 1.16024
Core_0_L2C_load_miss_rate 0.593613
Core_0_L2C_rfo_access 16771
Core_0_L2C_rfo_hit 1071
Core_0_L2C_rfo_miss 15700
Core_0_L2C_rfo_MPKI 0.314
Core_0_L2C_rfo_miss_rate 0.93614
Core_0_L2C_prefetch_access 311868
Core_0_L2C_prefetch_hit 181939
Core_0_L2C_prefetch_miss 129929
Core_0_L2C_prefetch_MPKI 2.59858
Core_0_L2C_prefetch_miss_rate 0.416615
Core_0_L2C_writeback_access 84365
Core_0_L2C_writeback_hit 84206
Core_0_L2C_writeback_miss 159
Core_0_L2C_writeback_MPKI 0.00318
Core_0_L2C_writeback_miss_rate 0.00188467
Core_0_L2C_prefetch_requested 253393
Core_0_L2C_prefetch_issued 253393
Core_0_L2C_prefetch_useful 48086
Core_0_L2C_prefetch_useless 60729
Core_0_L2C_prefetch_late 750
Core_0_L2C_prefetch_accuracy 0.189768
Core_0_L2C_prefetch_coverage 0.394801

Core_0_LLC_total_access 270361
Core_0_LLC_total_hit 212458
Core_0_LLC_total_miss 57903
Core_0_LLC_total_MPKI 1.15806
Core_0_LLC_total_miss_rate 0.214169
Core_0_LLC_demand_access 72962
Core_0_LLC_demand_hit 54594
Core_0_LLC_demand_miss 18368
Core_0_LLC_demand_MPKI 0.36736
Core_0_LLC_demand_miss_rate 0.251747
Core_0_LLC_load_access 57262
Core_0_LLC_load_hit 46079
Core_0_LLC_load_miss 11183
Core_0_LLC_load_MPKI 0.22366
Core_0_LLC_load_miss_rate 0.195295
Core_0_LLC_rfo_access 15700
Core_0_LLC_rfo_hit 8515
Core_0_LLC_rfo_miss 7185
Core_0_LLC_rfo_MPKI 0.1437
Core_0_LLC_rfo_miss_rate 0.457643
Core_0_LLC_prefetch_access 122263
Core_0_LLC_prefetch_hit 91262
Core_0_LLC_prefetch_miss 31001
Core_0_LLC_prefetch_MPKI 0.62002
Core_0_LLC_prefetch_miss_rate 0.25356
Core_0_LLC_writeback_access 75136
Core_0_LLC_writeback_hit 66602
Core_0_LLC_writeback_miss 8534
Core_0_LLC_writeback_MPKI 0.17068
Core_0_LLC_writeback_miss_rate 0.113581
Core_0_LLC_prefetch_requested 0
Core_0_LLC_prefetch_issued 0
Core_0_LLC_prefetch_useful 0
Core_0_LLC_prefetch_useless 0
Core_0_LLC_prefetch_late 0
Core_0_LLC_prefetch_accuracy 0
Core_0_LLC_prefetch_coverage 0

[DRAM Statistics]
Channel_0_RQ_row_buffer_hit 1630
Channel_0_RQ_row_buffer_miss 48036
Channel_0_WQ_row_buffer_hit 1027
Channel_0_WQ_row_buffer_miss 10199
Channel_0_WQ_full 0
Channel_0_dbus_congested 82259
DRAM_total_RQ_row_buffer_hit 1630
DRAM_total_RQ_row_buffer_miss 48036
DRAM_total_WQ_row_buffer_hit 1027
DRAM_total_WQ_row_buffer_miss 10199
DRAM_total_WQ_full 0
DRAM_total_dbus_congested 82259
DRAM_avg_congested_cycle 13.9085

======STLB miss causes ========
Core_0_STLB_miss_cause_breakdown
Core_0_STLB_cause_Demand_Data_miss 3380
Core_0_STLB_cause_Demand_Data_miss_rate 0.0240004
Core_0_STLB_cause_Demand_Instruction_miss 0
Core_0_STLB_cause_Demand_Instruction_miss_rate 0
Core_0_STLB_cause_L1D_Prefetch_miss 311
Core_0_STLB_cause_L1D_Prefetch_miss_rate 0.00220832
Core_0_STLB_cause_L1I_Prefetch_miss 0
Core_0_STLB_cause_L1I_Prefetch_miss_rate 0
Core_0_STLB_cause_Other_miss 0
Core_0_STLB_cause_Other_miss_rate 0
Core_0_STLB_Demand_miss 3380
Core_0_STLB_Demand_miss_rate 0.0240004
Core_0_STLB_L1D_Prefetch_miss 311
Core_0_STLB_L1D_Prefetch_miss_rate 0.00220832
Core_0_STLB_Other_miss 0
Core_0_STLB_Other_miss_rate 0
