[VMEM] WARNING: physical memory size is smaller than virtual memory size.

*** ChampSim Multicore Out-of-Order Simulator ***
Warmup Instructions: 20000000
Simulation Instructions: 50000000
Number of CPUs: 1
Page size: 4096
Core 0: /data0/tzh/champsim_traces/SPEC06/483.xalancbmk-127B.champsimtrace.xz
 L1D Berti prefetcher
Off-chip DRAM Size: 4 GiB Channels: 1 Width: 64-bit Data Rate: 3205 MT/s
Warmup halting CPU 0 at instruction 20000003 cycle 5744708 for remainder of phase
Warmup finished CPU 0 instructions: 20000003 cycles: 5744708 cumulative IPC: 3.481 (Simulation time: 00 hr 01 min 01 sec)
Warmup complete CPU 0 instructions: 20000003 cycles: 5744708 cumulative IPC: 3.481 (Simulation time: 00 hr 01 min 01 sec)
Simulation finished CPU 0 instructions: 50000003 cycles: 113036274 cumulative IPC: 0.4423 (Simulation time: 00 hr 11 min 14 sec)
Simulation complete CPU 0 instructions: 50000003 cycles: 113036274 cumulative IPC: 0.4423 (Simulation time: 00 hr 11 min 14 sec)

ChampSim completed all CPUs

=== Simulation ===
CPU 0 runs /data0/tzh/champsim_traces/SPEC06/483.xalancbmk-127B.champsimtrace.xz

Region of Interest Statistics

CPU 0 cumulative IPC: 0.4423 instructions: 50000003 cycles: 113036274
CPU 0 Branch Prediction Accuracy: 96.02% MPKI: 11.42 Average ROB Occupancy at Mispredict: 57.35
Branch type MPKI
BRANCH_DIRECT_JUMP: 3.996
BRANCH_INDIRECT: 0.00504
BRANCH_CONDITIONAL: 7.337
BRANCH_DIRECT_CALL: 0.0006
BRANCH_INDIRECT_CALL: 0.02282
BRANCH_RETURN: 0.05944

cpu0->cpu0_STLB TOTAL        ACCESS:     212229 HIT:      24976 MISS:     187253 MSHR_MERGE:          0
cpu0->cpu0_STLB LOAD         ACCESS:     212229 HIT:      24976 MISS:     187253 MSHR_MERGE:          0
cpu0->cpu0_STLB RFO          ACCESS:          0 HIT:          0 MISS:          0 MSHR_MERGE:          0
cpu0->cpu0_STLB PREFETCH     ACCESS:          0 HIT:          0 MISS:          0 MSHR_MERGE:          0
cpu0->cpu0_STLB WRITE        ACCESS:          0 HIT:          0 MISS:          0 MSHR_MERGE:          0
cpu0->cpu0_STLB TRANSLATION  ACCESS:          0 HIT:          0 MISS:          0 MSHR_MERGE:          0
cpu0->cpu0_STLB PREFETCH REQUESTED:          0 ISSUED:          0 USEFUL:          0 USELESS:          0 LATE:          0
cpu0->cpu0_STLB AVERAGE MISS LATENCY: 95.76 cycles
cpu0->cpu0_L2C TOTAL        ACCESS:    7660343 HIT:    2695674 MISS:    4964669 MSHR_MERGE:    1870445
cpu0->cpu0_L2C LOAD         ACCESS:    1061864 HIT:     332055 MISS:     729809 MSHR_MERGE:     125032
cpu0->cpu0_L2C RFO          ACCESS:       8334 HIT:       2683 MISS:       5651 MSHR_MERGE:         38
cpu0->cpu0_L2C PREFETCH     ACCESS:    6500370 HIT:    2336221 MISS:    4164149 MSHR_MERGE:    1745375
cpu0->cpu0_L2C WRITE        ACCESS:      18754 HIT:      18583 MISS:        171 MSHR_MERGE:          0
cpu0->cpu0_L2C TRANSLATION  ACCESS:      71021 HIT:       6132 MISS:      64889 MSHR_MERGE:          0
cpu0->cpu0_L2C PREFETCH REQUESTED:    6143890 ISSUED:    5578155 USEFUL:     683537 USELESS:    1190663 LATE:     125070
cpu0->cpu0_L2C AVERAGE MISS LATENCY: 184.3 cycles
cpu0->cpu0_L1I TOTAL        ACCESS:     130521 HIT:     117273 MISS:      13248 MSHR_MERGE:       3261
cpu0->cpu0_L1I LOAD         ACCESS:     130521 HIT:     117273 MISS:      13248 MSHR_MERGE:       3261
cpu0->cpu0_L1I RFO          ACCESS:          0 HIT:          0 MISS:          0 MSHR_MERGE:          0
cpu0->cpu0_L1I PREFETCH     ACCESS:          0 HIT:          0 MISS:          0 MSHR_MERGE:          0
cpu0->cpu0_L1I WRITE        ACCESS:          0 HIT:          0 MISS:          0 MSHR_MERGE:          0
cpu0->cpu0_L1I TRANSLATION  ACCESS:          0 HIT:          0 MISS:          0 MSHR_MERGE:          0
cpu0->cpu0_L1I PREFETCH REQUESTED:          0 ISSUED:          0 USEFUL:          0 USELESS:          0 LATE:          0
cpu0->cpu0_L1I AVERAGE MISS LATENCY: 198.4 cycles
cpu0->cpu0_L1D TOTAL        ACCESS:   15486291 HIT:   12216570 MISS:    3269721 MSHR_MERGE:    1216275
cpu0->cpu0_L1D LOAD         ACCESS:   12386195 HIT:   10228317 MISS:    2157878 MSHR_MERGE:    1106001
cpu0->cpu0_L1D RFO          ACCESS:          0 HIT:          0 MISS:          0 MSHR_MERGE:          0
cpu0->cpu0_L1D PREFETCH     ACCESS:    1098289 HIT:     124716 MISS:     973573 MSHR_MERGE:      51359
cpu0->cpu0_L1D WRITE        ACCESS:    1626495 HIT:    1562708 MISS:      63787 MSHR_MERGE:      55453
cpu0->cpu0_L1D TRANSLATION  ACCESS:     375312 HIT:     300829 MISS:      74483 MSHR_MERGE:       3462
cpu0->cpu0_L1D PREFETCH REQUESTED:    1099211 ISSUED:    1098281 USEFUL:     338856 USELESS:     583271 LATE:      66050
cpu0->cpu0_L1D AVERAGE MISS LATENCY: 134.4 cycles
cpu0->cpu0_ITLB TOTAL        ACCESS:     120663 HIT:     113995 MISS:       6668 MSHR_MERGE:       3650
cpu0->cpu0_ITLB LOAD         ACCESS:     120663 HIT:     113995 MISS:       6668 MSHR_MERGE:       3650
cpu0->cpu0_ITLB RFO          ACCESS:          0 HIT:          0 MISS:          0 MSHR_MERGE:          0
cpu0->cpu0_ITLB PREFETCH     ACCESS:          0 HIT:          0 MISS:          0 MSHR_MERGE:          0
cpu0->cpu0_ITLB WRITE        ACCESS:          0 HIT:          0 MISS:          0 MSHR_MERGE:          0
cpu0->cpu0_ITLB TRANSLATION  ACCESS:          0 HIT:          0 MISS:          0 MSHR_MERGE:          0
cpu0->cpu0_ITLB PREFETCH REQUESTED:          0 ISSUED:          0 USEFUL:          0 USELESS:          0 LATE:          0
cpu0->cpu0_ITLB AVERAGE MISS LATENCY: 82.05 cycles
cpu0->cpu0_DTLB TOTAL        ACCESS:   14427597 HIT:   13992015 MISS:     435582 MSHR_MERGE:     226371
cpu0->cpu0_DTLB LOAD         ACCESS:   14427597 HIT:   13992015 MISS:     435582 MSHR_MERGE:     226371
cpu0->cpu0_DTLB RFO          ACCESS:          0 HIT:          0 MISS:          0 MSHR_MERGE:          0
cpu0->cpu0_DTLB PREFETCH     ACCESS:          0 HIT:          0 MISS:          0 MSHR_MERGE:          0
cpu0->cpu0_DTLB WRITE        ACCESS:          0 HIT:          0 MISS:          0 MSHR_MERGE:          0
cpu0->cpu0_DTLB TRANSLATION  ACCESS:          0 HIT:          0 MISS:          0 MSHR_MERGE:          0
cpu0->cpu0_DTLB PREFETCH REQUESTED:          0 ISSUED:          0 USEFUL:          0 USELESS:          0 LATE:          0
cpu0->cpu0_DTLB AVERAGE MISS LATENCY: 90.5 cycles
cpu0->LLC TOTAL        ACCESS:    3105384 HIT:     303352 MISS:    2802032 MSHR_MERGE:          0
cpu0->LLC LOAD         ACCESS:     604777 HIT:      64789 MISS:     539988 MSHR_MERGE:          0
cpu0->LLC RFO          ACCESS:       5613 HIT:       1047 MISS:       4566 MSHR_MERGE:          0
cpu0->LLC PREFETCH     ACCESS:    2418774 HIT:     219158 MISS:    2199616 MSHR_MERGE:          0
cpu0->LLC WRITE        ACCESS:      11331 HIT:       5553 MISS:       5778 MSHR_MERGE:          0
cpu0->LLC TRANSLATION  ACCESS:      64889 HIT:      12805 MISS:      52084 MSHR_MERGE:          0
cpu0->LLC PREFETCH REQUESTED:          0 ISSUED:          0 USEFUL:          0 USELESS:          0 LATE:          0
cpu0->LLC AVERAGE MISS LATENCY: 207 cycles

DRAM Statistics

Channel 0 RQ ROW_BUFFER_HIT:     245676
  ROW_BUFFER_MISS:    2550572
  AVG DBUS CONGESTED CYCLE: 4.186
Channel 0 WQ ROW_BUFFER_HIT:       3637
  ROW_BUFFER_MISS:       3595
  FULL:          0
Channel 0 REFRESHES ISSUED:       9420

[ROI Statistics]
[System Configuration]
num_cpus 1
cpu_freq 4000
fetch_width 6
decode_width 6
dispatch_width 6
execute_width 6
lq_width 2
sq_width 2
retire_width 6
scheduler_size 160
branch_mispredict_penalty 1
rob_size 352
lq_size 240
sq_size 112
ifetch_buffer_size 64
decode_buffer_size 32
dispatch_buffer_size 32
register_file_size 288
decode_latency 1
dispatch_latency 1
schedule_latency 0
execute_latency 0
page_size 4096
block_size 64
core_0_itlb_set 16
core_0_itlb_way 4
core_0_itlb_rq_size 16
core_0_itlb_wq_size 16
core_0_itlb_pq_size 0
core_0_itlb_mshr_size 8
core_0_itlb_hit_latency 1
core_0_itlb_fill_latency 1
core_0_itlb_max_tag_check 2
core_0_itlb_max_fill 2
core_0_dtlb_set 16
core_0_dtlb_way 4
core_0_dtlb_rq_size 16
core_0_dtlb_wq_size 16
core_0_dtlb_pq_size 0
core_0_dtlb_mshr_size 8
core_0_dtlb_hit_latency 1
core_0_dtlb_fill_latency 1
core_0_dtlb_max_tag_check 2
core_0_dtlb_max_fill 2
core_0_stlb_set 128
core_0_stlb_way 12
core_0_stlb_rq_size 32
core_0_stlb_wq_size 32
core_0_stlb_pq_size 0
core_0_stlb_mshr_size 16
core_0_stlb_hit_latency 4
core_0_stlb_fill_latency 4
core_0_stlb_max_tag_check 1
core_0_stlb_max_fill 1
core_0_l1i_set 64
core_0_l1i_way 8
core_0_l1i_rq_size 64
core_0_l1i_wq_size 64
core_0_l1i_pq_size 32
core_0_l1i_mshr_size 8
core_0_l1i_hit_latency 2
core_0_l1i_fill_latency 2
core_0_l1i_max_tag_check 2
core_0_l1i_max_fill 2
core_0_l1d_set 64
core_0_l1d_way 12
core_0_l1d_rq_size 64
core_0_l1d_wq_size 64
core_0_l1d_pq_size 8
core_0_l1d_mshr_size 16
core_0_l1d_hit_latency 2
core_0_l1d_fill_latency 3
core_0_l1d_max_tag_check 2
core_0_l1d_max_fill 2
core_0_l2c_set 1024
core_0_l2c_way 8
core_0_l2c_rq_size 32
core_0_l2c_wq_size 32
core_0_l2c_pq_size 16
core_0_l2c_mshr_size 32
core_0_l2c_hit_latency 5
core_0_l2c_fill_latency 5
core_0_l2c_max_tag_check 1
core_0_l2c_max_fill 1
llc_set 2048
llc_way 16
llc_rq_size 32
llc_wq_size 32
llc_pq_size 32
llc_mshr_size 64
llc_hit_latency 10
llc_fill_latency 10
llc_max_tag_check 1
llc_max_fill 1
dram_channels 1
dram_ranks 1
dram_bankgroups 8
dram_banks 4
dram_rows 16384
dram_columns 1024
dram_channel_width 8
dram_rq_size 64
dram_wq_size 64
dram_size 4294967296
core_0_itlb_prefetcher no
core_0_dtlb_prefetcher no
core_0_stlb_prefetcher no
core_0_l1i_prefetcher next_line
core_0_l1d_prefetcher berti
core_0_l2c_prefetcher pythia
llc_prefetcher no
llc_replacement drrip

Core_0_instructions 50000003
Core_0_cycles 113036274
Core_0_IPC 0.442336
Core_0_branch_prediction_accuracy 96.0189
Core_0_branch_MPKI 11.4206
Core_0_average_ROB_occupancy_at_mispredict 57.353

Core_0_ITLB_total_access 120663
Core_0_ITLB_total_hit 113995
Core_0_ITLB_total_miss 6668
Core_0_ITLB_total_MPKI 0.13336
Core_0_ITLB_total_miss_rate 0.0552613
Core_0_ITLB_demand_access 120663
Core_0_ITLB_demand_hit 113995
Core_0_ITLB_demand_miss 6668
Core_0_ITLB_demand_MPKI 0.13336
Core_0_ITLB_demand_miss_rate 0.0552613
Core_0_ITLB_load_access 120663
Core_0_ITLB_load_hit 113995
Core_0_ITLB_load_miss 6668
Core_0_ITLB_load_MPKI 0.13336
Core_0_ITLB_load_miss_rate 0.0552613
Core_0_ITLB_rfo_access 0
Core_0_ITLB_rfo_hit 0
Core_0_ITLB_rfo_miss 0
Core_0_ITLB_rfo_MPKI 0
Core_0_ITLB_rfo_miss_rate 0
Core_0_ITLB_prefetch_access 0
Core_0_ITLB_prefetch_hit 0
Core_0_ITLB_prefetch_miss 0
Core_0_ITLB_prefetch_MPKI 0
Core_0_ITLB_prefetch_miss_rate 0
Core_0_ITLB_writeback_access 0
Core_0_ITLB_writeback_hit 0
Core_0_ITLB_writeback_miss 0
Core_0_ITLB_writeback_MPKI 0
Core_0_ITLB_writeback_miss_rate 0
Core_0_ITLB_prefetch_requested 0
Core_0_ITLB_prefetch_issued 0
Core_0_ITLB_prefetch_useful 0
Core_0_ITLB_prefetch_useless 0
Core_0_ITLB_prefetch_late 0
Core_0_ITLB_prefetch_accuracy 0
Core_0_ITLB_prefetch_coverage 0

Core_0_DTLB_total_access 14427597
Core_0_DTLB_total_hit 13992015
Core_0_DTLB_total_miss 435582
Core_0_DTLB_total_MPKI 8.71164
Core_0_DTLB_total_miss_rate 0.0301909
Core_0_DTLB_demand_access 14427597
Core_0_DTLB_demand_hit 13992015
Core_0_DTLB_demand_miss 435582
Core_0_DTLB_demand_MPKI 8.71164
Core_0_DTLB_demand_miss_rate 0.0301909
Core_0_DTLB_load_access 14427597
Core_0_DTLB_load_hit 13992015
Core_0_DTLB_load_miss 435582
Core_0_DTLB_load_MPKI 8.71164
Core_0_DTLB_load_miss_rate 0.0301909
Core_0_DTLB_rfo_access 0
Core_0_DTLB_rfo_hit 0
Core_0_DTLB_rfo_miss 0
Core_0_DTLB_rfo_MPKI 0
Core_0_DTLB_rfo_miss_rate 0
Core_0_DTLB_prefetch_access 0
Core_0_DTLB_prefetch_hit 0
Core_0_DTLB_prefetch_miss 0
Core_0_DTLB_prefetch_MPKI 0
Core_0_DTLB_prefetch_miss_rate 0
Core_0_DTLB_writeback_access 0
Core_0_DTLB_writeback_hit 0
Core_0_DTLB_writeback_miss 0
Core_0_DTLB_writeback_MPKI 0
Core_0_DTLB_writeback_miss_rate 0
Core_0_DTLB_prefetch_requested 0
Core_0_DTLB_prefetch_issued 0
Core_0_DTLB_prefetch_useful 0
Core_0_DTLB_prefetch_useless 0
Core_0_DTLB_prefetch_late 0
Core_0_DTLB_prefetch_accuracy 0
Core_0_DTLB_prefetch_coverage 0

Core_0_STLB_total_access 212229
Core_0_STLB_total_hit 24976
Core_0_STLB_total_miss 187253
Core_0_STLB_total_MPKI 3.74506
Core_0_STLB_total_miss_rate 0.882316
Core_0_STLB_demand_access 212229
Core_0_STLB_demand_hit 24976
Core_0_STLB_demand_miss 187253
Core_0_STLB_demand_MPKI 3.74506
Core_0_STLB_demand_miss_rate 0.882316
Core_0_STLB_load_access 212229
Core_0_STLB_load_hit 24976
Core_0_STLB_load_miss 187253
Core_0_STLB_load_MPKI 3.74506
Core_0_STLB_load_miss_rate 0.882316
Core_0_STLB_rfo_access 0
Core_0_STLB_rfo_hit 0
Core_0_STLB_rfo_miss 0
Core_0_STLB_rfo_MPKI 0
Core_0_STLB_rfo_miss_rate 0
Core_0_STLB_prefetch_access 0
Core_0_STLB_prefetch_hit 0
Core_0_STLB_prefetch_miss 0
Core_0_STLB_prefetch_MPKI 0
Core_0_STLB_prefetch_miss_rate 0
Core_0_STLB_writeback_access 0
Core_0_STLB_writeback_hit 0
Core_0_STLB_writeback_miss 0
Core_0_STLB_writeback_MPKI 0
Core_0_STLB_writeback_miss_rate 0
Core_0_STLB_prefetch_requested 0
Core_0_STLB_prefetch_issued 0
Core_0_STLB_prefetch_useful 0
Core_0_STLB_prefetch_useless 0
Core_0_STLB_prefetch_late 0
Core_0_STLB_prefetch_accuracy 0
Core_0_STLB_prefetch_coverage 0

Core_0_L1I_total_access 130521
Core_0_L1I_total_hit 117273
Core_0_L1I_total_miss 13248
Core_0_L1I_total_MPKI 0.26496
Core_0_L1I_total_miss_rate 0.101501
Core_0_L1I_demand_access 130521
Core_0_L1I_demand_hit 117273
Core_0_L1I_demand_miss 13248
Core_0_L1I_demand_MPKI 0.26496
Core_0_L1I_demand_miss_rate 0.101501
Core_0_L1I_load_access 130521
Core_0_L1I_load_hit 117273
Core_0_L1I_load_miss 13248
Core_0_L1I_load_MPKI 0.26496
Core_0_L1I_load_miss_rate 0.101501
Core_0_L1I_rfo_access 0
Core_0_L1I_rfo_hit 0
Core_0_L1I_rfo_miss 0
Core_0_L1I_rfo_MPKI 0
Core_0_L1I_rfo_miss_rate 0
Core_0_L1I_prefetch_access 0
Core_0_L1I_prefetch_hit 0
Core_0_L1I_prefetch_miss 0
Core_0_L1I_prefetch_MPKI 0
Core_0_L1I_prefetch_miss_rate 0
Core_0_L1I_writeback_access 0
Core_0_L1I_writeback_hit 0
Core_0_L1I_writeback_miss 0
Core_0_L1I_writeback_MPKI 0
Core_0_L1I_writeback_miss_rate 0
Core_0_L1I_prefetch_requested 0
Core_0_L1I_prefetch_issued 0
Core_0_L1I_prefetch_useful 0
Core_0_L1I_prefetch_useless 0
Core_0_L1I_prefetch_late 0
Core_0_L1I_prefetch_accuracy 0
Core_0_L1I_prefetch_coverage 0

Core_0_L1D_total_access 15110979
Core_0_L1D_total_hit 11915741
Core_0_L1D_total_miss 3195238
Core_0_L1D_total_MPKI 63.9048
Core_0_L1D_total_miss_rate 0.211451
Core_0_L1D_demand_access 12386195
Core_0_L1D_demand_hit 10228317
Core_0_L1D_demand_miss 2157878
Core_0_L1D_demand_MPKI 43.1576
Core_0_L1D_demand_miss_rate 0.174216
Core_0_L1D_load_access 12386195
Core_0_L1D_load_hit 10228317
Core_0_L1D_load_miss 2157878
Core_0_L1D_load_MPKI 43.1576
Core_0_L1D_load_miss_rate 0.174216
Core_0_L1D_rfo_access 0
Core_0_L1D_rfo_hit 0
Core_0_L1D_rfo_miss 0
Core_0_L1D_rfo_MPKI 0
Core_0_L1D_rfo_miss_rate 0
Core_0_L1D_prefetch_access 1098289
Core_0_L1D_prefetch_hit 124716
Core_0_L1D_prefetch_miss 973573
Core_0_L1D_prefetch_MPKI 19.4715
Core_0_L1D_prefetch_miss_rate 0.886445
Core_0_L1D_writeback_access 1626495
Core_0_L1D_writeback_hit 1562708
Core_0_L1D_writeback_miss 63787
Core_0_L1D_writeback_MPKI 1.27574
Core_0_L1D_writeback_miss_rate 0.0392175
Core_0_L1D_prefetch_requested 1099211
Core_0_L1D_prefetch_issued 1098281
Core_0_L1D_prefetch_useful 338856
Core_0_L1D_prefetch_useless 583271
Core_0_L1D_prefetch_late 66050
Core_0_L1D_prefetch_accuracy 0.308533
Core_0_L1D_prefetch_coverage 0.13572

Core_0_L2C_total_access 7589322
Core_0_L2C_total_hit 2689542
Core_0_L2C_total_miss 4899780
Core_0_L2C_total_MPKI 97.9956
Core_0_L2C_total_miss_rate 0.645615
Core_0_L2C_demand_access 1070198
Core_0_L2C_demand_hit 334738
Core_0_L2C_demand_miss 735460
Core_0_L2C_demand_MPKI 14.7092
Core_0_L2C_demand_miss_rate 0.687219
Core_0_L2C_load_access 1061864
Core_0_L2C_load_hit 332055
Core_0_L2C_load_miss 729809
Core_0_L2C_load_MPKI 14.5962
Core_0_L2C_load_miss_rate 0.68729
Core_0_L2C_rfo_access 8334
Core_0_L2C_rfo_hit 2683
Core_0_L2C_rfo_miss 5651
Core_0_L2C_rfo_MPKI 0.11302
Core_0_L2C_rfo_miss_rate 0.678066
Core_0_L2C_prefetch_access 6500370
Core_0_L2C_prefetch_hit 2336221
Core_0_L2C_prefetch_miss 4164149
Core_0_L2C_prefetch_MPKI 83.283
Core_0_L2C_prefetch_miss_rate 0.640602
Core_0_L2C_writeback_access 18754
Core_0_L2C_writeback_hit 18583
Core_0_L2C_writeback_miss 171
Core_0_L2C_writeback_MPKI 0.00342
Core_0_L2C_writeback_miss_rate 0.00911805
Core_0_L2C_prefetch_requested 6143890
Core_0_L2C_prefetch_issued 5578155
Core_0_L2C_prefetch_useful 683537
Core_0_L2C_prefetch_useless 1190663
Core_0_L2C_prefetch_late 125070
Core_0_L2C_prefetch_accuracy 0.122538
Core_0_L2C_prefetch_coverage 0.481704

Core_0_LLC_total_access 3040495
Core_0_LLC_total_hit 290547
Core_0_LLC_total_miss 2749948
Core_0_LLC_total_MPKI 54.999
Core_0_LLC_total_miss_rate 0.904441
Core_0_LLC_demand_access 610390
Core_0_LLC_demand_hit 65836
Core_0_LLC_demand_miss 544554
Core_0_LLC_demand_MPKI 10.8911
Core_0_LLC_demand_miss_rate 0.892141
Core_0_LLC_load_access 604777
Core_0_LLC_load_hit 64789
Core_0_LLC_load_miss 539988
Core_0_LLC_load_MPKI 10.7998
Core_0_LLC_load_miss_rate 0.892871
Core_0_LLC_rfo_access 5613
Core_0_LLC_rfo_hit 1047
Core_0_LLC_rfo_miss 4566
Core_0_LLC_rfo_MPKI 0.09132
Core_0_LLC_rfo_miss_rate 0.813469
Core_0_LLC_prefetch_access 2418774
Core_0_LLC_prefetch_hit 219158
Core_0_LLC_prefetch_miss 2199616
Core_0_LLC_prefetch_MPKI 43.9923
Core_0_LLC_prefetch_miss_rate 0.909393
Core_0_LLC_writeback_access 11331
Core_0_LLC_writeback_hit 5553
Core_0_LLC_writeback_miss 5778
Core_0_LLC_writeback_MPKI 0.11556
Core_0_LLC_writeback_miss_rate 0.509929
Core_0_LLC_prefetch_requested 0
Core_0_LLC_prefetch_issued 0
Core_0_LLC_prefetch_useful 0
Core_0_LLC_prefetch_useless 0
Core_0_LLC_prefetch_late 0
Core_0_LLC_prefetch_accuracy 0
Core_0_LLC_prefetch_coverage 0

[DRAM Statistics]
Channel_0_RQ_row_buffer_hit 245676
Channel_0_RQ_row_buffer_miss 2550572
Channel_0_WQ_row_buffer_hit 3637
Channel_0_WQ_row_buffer_miss 3595
Channel_0_WQ_full 0
Channel_0_dbus_congested 6167509
DRAM_total_RQ_row_buffer_hit 245676
DRAM_total_RQ_row_buffer_miss 2550572
DRAM_total_WQ_row_buffer_hit 3637
DRAM_total_WQ_row_buffer_miss 3595
DRAM_total_WQ_full 0
DRAM_total_dbus_congested 6167509
DRAM_avg_congested_cycle 4.18602

======STLB miss causes ========
Core_0_STLB_miss_cause_breakdown
Core_0_STLB_cause_Demand_Data_miss 158555
Core_0_STLB_cause_Demand_Data_miss_rate 0.747094
Core_0_STLB_cause_Demand_Instruction_miss 2498
Core_0_STLB_cause_Demand_Instruction_miss_rate 0.0117703
Core_0_STLB_cause_L1D_Prefetch_miss 26200
Core_0_STLB_cause_L1D_Prefetch_miss_rate 0.123452
Core_0_STLB_cause_L1I_Prefetch_miss 0
Core_0_STLB_cause_L1I_Prefetch_miss_rate 0
Core_0_STLB_cause_Other_miss 0
Core_0_STLB_cause_Other_miss_rate 0
Core_0_STLB_Demand_miss 161053
Core_0_STLB_Demand_miss_rate 0.758864
Core_0_STLB_L1D_Prefetch_miss 26200
Core_0_STLB_L1D_Prefetch_miss_rate 0.123452
Core_0_STLB_Other_miss 0
Core_0_STLB_Other_miss_rate 0
