[VMEM] WARNING: physical memory size is smaller than virtual memory size.

*** ChampSim Multicore Out-of-Order Simulator ***
Warmup Instructions: 20000000
Simulation Instructions: 50000000
Number of CPUs: 1
Page size: 4096
Core 0: /data0/tzh/champsim_traces/SPEC17/605.mcf_s-484B.champsimtrace.xz
 L1D Berti prefetcher
Off-chip DRAM Size: 4 GiB Channels: 1 Width: 64-bit Data Rate: 3205 MT/s
Warmup halting CPU 0 at instruction 20000001 cycle 8463212 for remainder of phase
Warmup finished CPU 0 instructions: 20000001 cycles: 8463212 cumulative IPC: 2.363 (Simulation time: 00 hr 01 min 53 sec)
Warmup complete CPU 0 instructions: 20000001 cycles: 8463212 cumulative IPC: 2.363 (Simulation time: 00 hr 01 min 53 sec)
Simulation finished CPU 0 instructions: 50000003 cycles: 64181375 cumulative IPC: 0.779 (Simulation time: 00 hr 10 min 45 sec)
Simulation complete CPU 0 instructions: 50000003 cycles: 64181375 cumulative IPC: 0.779 (Simulation time: 00 hr 10 min 45 sec)

ChampSim completed all CPUs

=== Simulation ===
CPU 0 runs /data0/tzh/champsim_traces/SPEC17/605.mcf_s-484B.champsimtrace.xz

Region of Interest Statistics

CPU 0 cumulative IPC: 0.779 instructions: 50000003 cycles: 64181375
CPU 0 Branch Prediction Accuracy: 98.59% MPKI: 1.397 Average ROB Occupancy at Mispredict: 272.7
Branch type MPKI
BRANCH_DIRECT_JUMP: 0
BRANCH_INDIRECT: 0
BRANCH_CONDITIONAL: 1.397
BRANCH_DIRECT_CALL: 0
BRANCH_INDIRECT_CALL: 0
BRANCH_RETURN: 0

cpu0->cpu0_STLB TOTAL        ACCESS:     116764 HIT:      79494 MISS:      37270 MSHR_MERGE:          0
cpu0->cpu0_STLB LOAD         ACCESS:     116764 HIT:      79494 MISS:      37270 MSHR_MERGE:          0
cpu0->cpu0_STLB RFO          ACCESS:          0 HIT:          0 MISS:          0 MSHR_MERGE:          0
cpu0->cpu0_STLB PREFETCH     ACCESS:          0 HIT:          0 MISS:          0 MSHR_MERGE:          0
cpu0->cpu0_STLB WRITE        ACCESS:          0 HIT:          0 MISS:          0 MSHR_MERGE:          0
cpu0->cpu0_STLB TRANSLATION  ACCESS:          0 HIT:          0 MISS:          0 MSHR_MERGE:          0
cpu0->cpu0_STLB PREFETCH REQUESTED:          0 ISSUED:          0 USEFUL:          0 USELESS:          0 LATE:          0
cpu0->cpu0_STLB AVERAGE MISS LATENCY: 121.1 cycles
cpu0->cpu0_L2C TOTAL        ACCESS:    5320078 HIT:    2586312 MISS:    2733766 MSHR_MERGE:     720142
cpu0->cpu0_L2C LOAD         ACCESS:     526030 HIT:     248796 MISS:     277234 MSHR_MERGE:      64421
cpu0->cpu0_L2C RFO          ACCESS:     116444 HIT:       9046 MISS:     107398 MSHR_MERGE:       1086
cpu0->cpu0_L2C PREFETCH     ACCESS:    4343291 HIT:    2000677 MISS:    2342614 MSHR_MERGE:     654635
cpu0->cpu0_L2C WRITE        ACCESS:     326247 HIT:     325184 MISS:       1063 MSHR_MERGE:          0
cpu0->cpu0_L2C TRANSLATION  ACCESS:       8066 HIT:       2609 MISS:       5457 MSHR_MERGE:          0
cpu0->cpu0_L2C PREFETCH REQUESTED:    4053400 ISSUED:    3404197 USEFUL:     788466 USELESS:     599751 LATE:      65507
cpu0->cpu0_L2C AVERAGE MISS LATENCY: 275 cycles
cpu0->cpu0_L1I TOTAL        ACCESS:    7546335 HIT:    7546335 MISS:          0 MSHR_MERGE:          0
cpu0->cpu0_L1I LOAD         ACCESS:    7546335 HIT:    7546335 MISS:          0 MSHR_MERGE:          0
cpu0->cpu0_L1I RFO          ACCESS:          0 HIT:          0 MISS:          0 MSHR_MERGE:          0
cpu0->cpu0_L1I PREFETCH     ACCESS:          0 HIT:          0 MISS:          0 MSHR_MERGE:          0
cpu0->cpu0_L1I WRITE        ACCESS:          0 HIT:          0 MISS:          0 MSHR_MERGE:          0
cpu0->cpu0_L1I TRANSLATION  ACCESS:          0 HIT:          0 MISS:          0 MSHR_MERGE:          0
cpu0->cpu0_L1I PREFETCH REQUESTED:          0 ISSUED:          0 USEFUL:          0 USELESS:          0 LATE:          0
cpu0->cpu0_L1I AVERAGE MISS LATENCY: - cycles
cpu0->cpu0_L1D TOTAL        ACCESS:   26857106 HIT:   24600284 MISS:    2256822 MSHR_MERGE:     667186
cpu0->cpu0_L1D LOAD         ACCESS:   11805233 HIT:   11072518 MISS:     732715 MSHR_MERGE:     206684
cpu0->cpu0_L1D RFO          ACCESS:          0 HIT:          0 MISS:          0 MSHR_MERGE:          0
cpu0->cpu0_L1D PREFETCH     ACCESS:    1163712 HIT:     183692 MISS:     980020 MSHR_MERGE:      40936
cpu0->cpu0_L1D WRITE        ACCESS:   13813560 HIT:   13277551 MISS:     536009 MSHR_MERGE:     419554
cpu0->cpu0_L1D TRANSLATION  ACCESS:      74601 HIT:      66523 MISS:       8078 MSHR_MERGE:         12
cpu0->cpu0_L1D PREFETCH REQUESTED:    1173702 ISSUED:    1163705 USEFUL:     734441 USELESS:     204618 LATE:     146498
cpu0->cpu0_L1D AVERAGE MISS LATENCY: 182.7 cycles
cpu0->cpu0_ITLB TOTAL        ACCESS:    6432190 HIT:    6432190 MISS:          0 MSHR_MERGE:          0
cpu0->cpu0_ITLB LOAD         ACCESS:    6432190 HIT:    6432190 MISS:          0 MSHR_MERGE:          0
cpu0->cpu0_ITLB RFO          ACCESS:          0 HIT:          0 MISS:          0 MSHR_MERGE:          0
cpu0->cpu0_ITLB PREFETCH     ACCESS:          0 HIT:          0 MISS:          0 MSHR_MERGE:          0
cpu0->cpu0_ITLB WRITE        ACCESS:          0 HIT:          0 MISS:          0 MSHR_MERGE:          0
cpu0->cpu0_ITLB TRANSLATION  ACCESS:          0 HIT:          0 MISS:          0 MSHR_MERGE:          0
cpu0->cpu0_ITLB PREFETCH REQUESTED:          0 ISSUED:          0 USEFUL:          0 USELESS:          0 LATE:          0
cpu0->cpu0_ITLB AVERAGE MISS LATENCY: - cycles
cpu0->cpu0_DTLB TOTAL        ACCESS:   24444094 HIT:   24267636 MISS:     176458 MSHR_MERGE:      59694
cpu0->cpu0_DTLB LOAD         ACCESS:   24444094 HIT:   24267636 MISS:     176458 MSHR_MERGE:      59694
cpu0->cpu0_DTLB RFO          ACCESS:          0 HIT:          0 MISS:          0 MSHR_MERGE:          0
cpu0->cpu0_DTLB PREFETCH     ACCESS:          0 HIT:          0 MISS:          0 MSHR_MERGE:          0
cpu0->cpu0_DTLB WRITE        ACCESS:          0 HIT:          0 MISS:          0 MSHR_MERGE:          0
cpu0->cpu0_DTLB TRANSLATION  ACCESS:          0 HIT:          0 MISS:          0 MSHR_MERGE:          0
cpu0->cpu0_DTLB PREFETCH REQUESTED:          0 ISSUED:          0 USEFUL:          0 USELESS:          0 LATE:          0
cpu0->cpu0_DTLB AVERAGE MISS LATENCY: 43.97 cycles
cpu0->LLC TOTAL        ACCESS:    2315396 HIT:     144414 MISS:    2170982 MSHR_MERGE:          0
cpu0->LLC LOAD         ACCESS:     212813 HIT:      12998 MISS:     199815 MSHR_MERGE:          0
cpu0->LLC RFO          ACCESS:     106312 HIT:         42 MISS:     106270 MSHR_MERGE:          0
cpu0->LLC PREFETCH     ACCESS:    1687979 HIT:      81488 MISS:    1606491 MSHR_MERGE:          0
cpu0->LLC WRITE        ACCESS:     302835 HIT:      49492 MISS:     253343 MSHR_MERGE:          0
cpu0->LLC TRANSLATION  ACCESS:       5457 HIT:        394 MISS:       5063 MSHR_MERGE:          0
cpu0->LLC PREFETCH REQUESTED:          0 ISSUED:          0 USEFUL:          0 USELESS:          0 LATE:          0
cpu0->LLC AVERAGE MISS LATENCY: 165.1 cycles

DRAM Statistics

Channel 0 RQ ROW_BUFFER_HIT:     227560
  ROW_BUFFER_MISS:    1690070
  AVG DBUS CONGESTED CYCLE: 5.866
Channel 0 WQ ROW_BUFFER_HIT:      56973
  ROW_BUFFER_MISS:     253943
  FULL:          0
Channel 0 REFRESHES ISSUED:       5348

[ROI Statistics]
[System Configuration]
num_cpus 1
cpu_freq 4000
fetch_width 6
decode_width 6
dispatch_width 6
execute_width 6
lq_width 2
sq_width 2
retire_width 6
scheduler_size 160
branch_mispredict_penalty 1
rob_size 352
lq_size 240
sq_size 112
ifetch_buffer_size 64
decode_buffer_size 32
dispatch_buffer_size 32
register_file_size 288
decode_latency 1
dispatch_latency 1
schedule_latency 0
execute_latency 0
page_size 4096
block_size 64
core_0_itlb_set 16
core_0_itlb_way 4
core_0_itlb_rq_size 16
core_0_itlb_wq_size 16
core_0_itlb_pq_size 0
core_0_itlb_mshr_size 8
core_0_itlb_hit_latency 1
core_0_itlb_fill_latency 1
core_0_itlb_max_tag_check 2
core_0_itlb_max_fill 2
core_0_dtlb_set 16
core_0_dtlb_way 4
core_0_dtlb_rq_size 16
core_0_dtlb_wq_size 16
core_0_dtlb_pq_size 0
core_0_dtlb_mshr_size 8
core_0_dtlb_hit_latency 1
core_0_dtlb_fill_latency 1
core_0_dtlb_max_tag_check 2
core_0_dtlb_max_fill 2
core_0_stlb_set 128
core_0_stlb_way 12
core_0_stlb_rq_size 32
core_0_stlb_wq_size 32
core_0_stlb_pq_size 0
core_0_stlb_mshr_size 16
core_0_stlb_hit_latency 4
core_0_stlb_fill_latency 4
core_0_stlb_max_tag_check 1
core_0_stlb_max_fill 1
core_0_l1i_set 64
core_0_l1i_way 8
core_0_l1i_rq_size 64
core_0_l1i_wq_size 64
core_0_l1i_pq_size 32
core_0_l1i_mshr_size 8
core_0_l1i_hit_latency 2
core_0_l1i_fill_latency 2
core_0_l1i_max_tag_check 2
core_0_l1i_max_fill 2
core_0_l1d_set 64
core_0_l1d_way 12
core_0_l1d_rq_size 64
core_0_l1d_wq_size 64
core_0_l1d_pq_size 8
core_0_l1d_mshr_size 16
core_0_l1d_hit_latency 2
core_0_l1d_fill_latency 3
core_0_l1d_max_tag_check 2
core_0_l1d_max_fill 2
core_0_l2c_set 1024
core_0_l2c_way 8
core_0_l2c_rq_size 32
core_0_l2c_wq_size 32
core_0_l2c_pq_size 16
core_0_l2c_mshr_size 32
core_0_l2c_hit_latency 5
core_0_l2c_fill_latency 5
core_0_l2c_max_tag_check 1
core_0_l2c_max_fill 1
llc_set 2048
llc_way 16
llc_rq_size 32
llc_wq_size 32
llc_pq_size 32
llc_mshr_size 64
llc_hit_latency 10
llc_fill_latency 10
llc_max_tag_check 1
llc_max_fill 1
dram_channels 1
dram_ranks 1
dram_bankgroups 8
dram_banks 4
dram_rows 16384
dram_columns 1024
dram_channel_width 8
dram_rq_size 64
dram_wq_size 64
dram_size 4294967296
core_0_itlb_prefetcher no
core_0_dtlb_prefetcher no
core_0_stlb_prefetcher no
core_0_l1i_prefetcher next_line
core_0_l1d_prefetcher berti
core_0_l2c_prefetcher pythia
llc_prefetcher no
llc_replacement drrip

Core_0_instructions 50000003
Core_0_cycles 64181375
Core_0_IPC 0.779042
Core_0_branch_prediction_accuracy 98.5928
Core_0_branch_MPKI 1.39706
Core_0_average_ROB_occupancy_at_mispredict 272.701

Core_0_ITLB_total_access 6432190
Core_0_ITLB_total_hit 6432190
Core_0_ITLB_total_miss 0
Core_0_ITLB_total_MPKI 0
Core_0_ITLB_total_miss_rate 0
Core_0_ITLB_demand_access 6432190
Core_0_ITLB_demand_hit 6432190
Core_0_ITLB_demand_miss 0
Core_0_ITLB_demand_MPKI 0
Core_0_ITLB_demand_miss_rate 0
Core_0_ITLB_load_access 6432190
Core_0_ITLB_load_hit 6432190
Core_0_ITLB_load_miss 0
Core_0_ITLB_load_MPKI 0
Core_0_ITLB_load_miss_rate 0
Core_0_ITLB_rfo_access 0
Core_0_ITLB_rfo_hit 0
Core_0_ITLB_rfo_miss 0
Core_0_ITLB_rfo_MPKI 0
Core_0_ITLB_rfo_miss_rate 0
Core_0_ITLB_prefetch_access 0
Core_0_ITLB_prefetch_hit 0
Core_0_ITLB_prefetch_miss 0
Core_0_ITLB_prefetch_MPKI 0
Core_0_ITLB_prefetch_miss_rate 0
Core_0_ITLB_writeback_access 0
Core_0_ITLB_writeback_hit 0
Core_0_ITLB_writeback_miss 0
Core_0_ITLB_writeback_MPKI 0
Core_0_ITLB_writeback_miss_rate 0
Core_0_ITLB_prefetch_requested 0
Core_0_ITLB_prefetch_issued 0
Core_0_ITLB_prefetch_useful 0
Core_0_ITLB_prefetch_useless 0
Core_0_ITLB_prefetch_late 0
Core_0_ITLB_prefetch_accuracy 0
Core_0_ITLB_prefetch_coverage 0

Core_0_DTLB_total_access 24444094
Core_0_DTLB_total_hit 24267636
Core_0_DTLB_total_miss 176458
Core_0_DTLB_total_MPKI 3.52916
Core_0_DTLB_total_miss_rate 0.00721884
Core_0_DTLB_demand_access 24444094
Core_0_DTLB_demand_hit 24267636
Core_0_DTLB_demand_miss 176458
Core_0_DTLB_demand_MPKI 3.52916
Core_0_DTLB_demand_miss_rate 0.00721884
Core_0_DTLB_load_access 24444094
Core_0_DTLB_load_hit 24267636
Core_0_DTLB_load_miss 176458
Core_0_DTLB_load_MPKI 3.52916
Core_0_DTLB_load_miss_rate 0.00721884
Core_0_DTLB_rfo_access 0
Core_0_DTLB_rfo_hit 0
Core_0_DTLB_rfo_miss 0
Core_0_DTLB_rfo_MPKI 0
Core_0_DTLB_rfo_miss_rate 0
Core_0_DTLB_prefetch_access 0
Core_0_DTLB_prefetch_hit 0
Core_0_DTLB_prefetch_miss 0
Core_0_DTLB_prefetch_MPKI 0
Core_0_DTLB_prefetch_miss_rate 0
Core_0_DTLB_writeback_access 0
Core_0_DTLB_writeback_hit 0
Core_0_DTLB_writeback_miss 0
Core_0_DTLB_writeback_MPKI 0
Core_0_DTLB_writeback_miss_rate 0
Core_0_DTLB_prefetch_requested 0
Core_0_DTLB_prefetch_issued 0
Core_0_DTLB_prefetch_useful 0
Core_0_DTLB_prefetch_useless 0
Core_0_DTLB_prefetch_late 0
Core_0_DTLB_prefetch_accuracy 0
Core_0_DTLB_prefetch_coverage 0

Core_0_STLB_total_access 116764
Core_0_STLB_total_hit 79494
Core_0_STLB_total_miss 37270
Core_0_STLB_total_MPKI 0.7454
Core_0_STLB_total_miss_rate 0.319191
Core_0_STLB_demand_access 116764
Core_0_STLB_demand_hit 79494
Core_0_STLB_demand_miss 37270
Core_0_STLB_demand_MPKI 0.7454
Core_0_STLB_demand_miss_rate 0.319191
Core_0_STLB_load_access 116764
Core_0_STLB_load_hit 79494
Core_0_STLB_load_miss 37270
Core_0_STLB_load_MPKI 0.7454
Core_0_STLB_load_miss_rate 0.319191
Core_0_STLB_rfo_access 0
Core_0_STLB_rfo_hit 0
Core_0_STLB_rfo_miss 0
Core_0_STLB_rfo_MPKI 0
Core_0_STLB_rfo_miss_rate 0
Core_0_STLB_prefetch_access 0
Core_0_STLB_prefetch_hit 0
Core_0_STLB_prefetch_miss 0
Core_0_STLB_prefetch_MPKI 0
Core_0_STLB_prefetch_miss_rate 0
Core_0_STLB_writeback_access 0
Core_0_STLB_writeback_hit 0
Core_0_STLB_writeback_miss 0
Core_0_STLB_writeback_MPKI 0
Core_0_STLB_writeback_miss_rate 0
Core_0_STLB_prefetch_requested 0
Core_0_STLB_prefetch_issued 0
Core_0_STLB_prefetch_useful 0
Core_0_STLB_prefetch_useless 0
Core_0_STLB_prefetch_late 0
Core_0_STLB_prefetch_accuracy 0
Core_0_STLB_prefetch_coverage 0

Core_0_L1I_total_access 7546335
Core_0_L1I_total_hit 7546335
Core_0_L1I_total_miss 0
Core_0_L1I_total_MPKI 0
Core_0_L1I_total_miss_rate 0
Core_0_L1I_demand_access 7546335
Core_0_L1I_demand_hit 7546335
Core_0_L1I_demand_miss 0
Core_0_L1I_demand_MPKI 0
Core_0_L1I_demand_miss_rate 0
Core_0_L1I_load_access 7546335
Core_0_L1I_load_hit 7546335
Core_0_L1I_load_miss 0
Core_0_L1I_load_MPKI 0
Core_0_L1I_load_miss_rate 0
Core_0_L1I_rfo_access 0
Core_0_L1I_rfo_hit 0
Core_0_L1I_rfo_miss 0
Core_0_L1I_rfo_MPKI 0
Core_0_L1I_rfo_miss_rate 0
Core_0_L1I_prefetch_access 0
Core_0_L1I_prefetch_hit 0
Core_0_L1I_prefetch_miss 0
Core_0_L1I_prefetch_MPKI 0
Core_0_L1I_prefetch_miss_rate 0
Core_0_L1I_writeback_access 0
Core_0_L1I_writeback_hit 0
Core_0_L1I_writeback_miss 0
Core_0_L1I_writeback_MPKI 0
Core_0_L1I_writeback_miss_rate 0
Core_0_L1I_prefetch_requested 0
Core_0_L1I_prefetch_issued 0
Core_0_L1I_prefetch_useful 0
Core_0_L1I_prefetch_useless 0
Core_0_L1I_prefetch_late 0
Core_0_L1I_prefetch_accuracy 0
Core_0_L1I_prefetch_coverage 0

Core_0_L1D_total_access 26782505
Core_0_L1D_total_hit 24533761
Core_0_L1D_total_miss 2248744
Core_0_L1D_total_MPKI 44.9749
Core_0_L1D_total_miss_rate 0.0839632
Core_0_L1D_demand_access 11805233
Core_0_L1D_demand_hit 11072518
Core_0_L1D_demand_miss 732715
Core_0_L1D_demand_MPKI 14.6543
Core_0_L1D_demand_miss_rate 0.062067
Core_0_L1D_load_access 11805233
Core_0_L1D_load_hit 11072518
Core_0_L1D_load_miss 732715
Core_0_L1D_load_MPKI 14.6543
Core_0_L1D_load_miss_rate 0.062067
Core_0_L1D_rfo_access 0
Core_0_L1D_rfo_hit 0
Core_0_L1D_rfo_miss 0
Core_0_L1D_rfo_MPKI 0
Core_0_L1D_rfo_miss_rate 0
Core_0_L1D_prefetch_access 1163712
Core_0_L1D_prefetch_hit 183692
Core_0_L1D_prefetch_miss 980020
Core_0_L1D_prefetch_MPKI 19.6004
Core_0_L1D_prefetch_miss_rate 0.84215
Core_0_L1D_writeback_access 13813560
Core_0_L1D_writeback_hit 13277551
Core_0_L1D_writeback_miss 536009
Core_0_L1D_writeback_MPKI 10.7202
Core_0_L1D_writeback_miss_rate 0.0388031
Core_0_L1D_prefetch_requested 1173702
Core_0_L1D_prefetch_issued 1163705
Core_0_L1D_prefetch_useful 734441
Core_0_L1D_prefetch_useless 204618
Core_0_L1D_prefetch_late 146498
Core_0_L1D_prefetch_accuracy 0.631123
Core_0_L1D_prefetch_coverage 0.500588

Core_0_L2C_total_access 5312012
Core_0_L2C_total_hit 2583703
Core_0_L2C_total_miss 2728309
Core_0_L2C_total_MPKI 54.5662
Core_0_L2C_total_miss_rate 0.513611
Core_0_L2C_demand_access 642474
Core_0_L2C_demand_hit 257842
Core_0_L2C_demand_miss 384632
Core_0_L2C_demand_MPKI 7.69264
Core_0_L2C_demand_miss_rate 0.598673
Core_0_L2C_load_access 526030
Core_0_L2C_load_hit 248796
Core_0_L2C_load_miss 277234
Core_0_L2C_load_MPKI 5.54468
Core_0_L2C_load_miss_rate 0.527031
Core_0_L2C_rfo_access 116444
Core_0_L2C_rfo_hit 9046
Core_0_L2C_rfo_miss 107398
Core_0_L2C_rfo_MPKI 2.14796
Core_0_L2C_rfo_miss_rate 0.922315
Core_0_L2C_prefetch_access 4343291
Core_0_L2C_prefetch_hit 2000677
Core_0_L2C_prefetch_miss 2342614
Core_0_L2C_prefetch_MPKI 46.8523
Core_0_L2C_prefetch_miss_rate 0.539364
Core_0_L2C_writeback_access 326247
Core_0_L2C_writeback_hit 325184
Core_0_L2C_writeback_miss 1063
Core_0_L2C_writeback_MPKI 0.02126
Core_0_L2C_writeback_miss_rate 0.00325827
Core_0_L2C_prefetch_requested 4053400
Core_0_L2C_prefetch_issued 3404197
Core_0_L2C_prefetch_useful 788466
Core_0_L2C_prefetch_useless 599751
Core_0_L2C_prefetch_late 65507
Core_0_L2C_prefetch_accuracy 0.231616
Core_0_L2C_prefetch_coverage 0.672123

Core_0_LLC_total_access 2309939
Core_0_LLC_total_hit 144020
Core_0_LLC_total_miss 2165919
Core_0_LLC_total_MPKI 43.3184
Core_0_LLC_total_miss_rate 0.937652
Core_0_LLC_demand_access 319125
Core_0_LLC_demand_hit 13040
Core_0_LLC_demand_miss 306085
Core_0_LLC_demand_MPKI 6.1217
Core_0_LLC_demand_miss_rate 0.959138
Core_0_LLC_load_access 212813
Core_0_LLC_load_hit 12998
Core_0_LLC_load_miss 199815
Core_0_LLC_load_MPKI 3.9963
Core_0_LLC_load_miss_rate 0.938923
Core_0_LLC_rfo_access 106312
Core_0_LLC_rfo_hit 42
Core_0_LLC_rfo_miss 106270
Core_0_LLC_rfo_MPKI 2.1254
Core_0_LLC_rfo_miss_rate 0.999605
Core_0_LLC_prefetch_access 1687979
Core_0_LLC_prefetch_hit 81488
Core_0_LLC_prefetch_miss 1606491
Core_0_LLC_prefetch_MPKI 32.1298
Core_0_LLC_prefetch_miss_rate 0.951725
Core_0_LLC_writeback_access 302835
Core_0_LLC_writeback_hit 49492
Core_0_LLC_writeback_miss 253343
Core_0_LLC_writeback_MPKI 5.06686
Core_0_LLC_writeback_miss_rate 0.836571
Core_0_LLC_prefetch_requested 0
Core_0_LLC_prefetch_issued 0
Core_0_LLC_prefetch_useful 0
Core_0_LLC_prefetch_useless 0
Core_0_LLC_prefetch_late 0
Core_0_LLC_prefetch_accuracy 0
Core_0_LLC_prefetch_coverage 0

[DRAM Statistics]
Channel_0_RQ_row_buffer_hit 227560
Channel_0_RQ_row_buffer_miss 1690070
Channel_0_WQ_row_buffer_hit 56973
Channel_0_WQ_row_buffer_miss 253943
Channel_0_WQ_full 0
Channel_0_dbus_congested 6255843
DRAM_total_RQ_row_buffer_hit 227560
DRAM_total_RQ_row_buffer_miss 1690070
DRAM_total_WQ_row_buffer_hit 56973
DRAM_total_WQ_row_buffer_miss 253943
DRAM_total_WQ_full 0
DRAM_total_dbus_congested 6255843
DRAM_avg_congested_cycle 5.86552

======STLB miss causes ========
Core_0_STLB_miss_cause_breakdown
Core_0_STLB_cause_Demand_Data_miss 23060
Core_0_STLB_cause_Demand_Data_miss_rate 0.197492
Core_0_STLB_cause_Demand_Instruction_miss 0
Core_0_STLB_cause_Demand_Instruction_miss_rate 0
Core_0_STLB_cause_L1D_Prefetch_miss 14210
Core_0_STLB_cause_L1D_Prefetch_miss_rate 0.121698
Core_0_STLB_cause_L1I_Prefetch_miss 0
Core_0_STLB_cause_L1I_Prefetch_miss_rate 0
Core_0_STLB_cause_Other_miss 0
Core_0_STLB_cause_Other_miss_rate 0
Core_0_STLB_Demand_miss 23060
Core_0_STLB_Demand_miss_rate 0.197492
Core_0_STLB_L1D_Prefetch_miss 14210
Core_0_STLB_L1D_Prefetch_miss_rate 0.121698
Core_0_STLB_Other_miss 0
Core_0_STLB_Other_miss_rate 0
