[VMEM] WARNING: physical memory size is smaller than virtual memory size.

*** ChampSim Multicore Out-of-Order Simulator ***
Warmup Instructions: 20000000
Simulation Instructions: 50000000
Number of CPUs: 1
Page size: 4096
Core 0: /data0/tzh/champsim_traces/Ligra/ligra_BC.com-lj.ungraph.gcc_6.3.0_O3.drop_15500M.length_250M.champsimtrace.xz
 L1D Berti prefetcher
Off-chip DRAM Size: 4 GiB Channels: 1 Width: 64-bit Data Rate: 3205 MT/s
Warmup halting CPU 0 at instruction 20000005 cycle 6518386 for remainder of phase
Warmup finished CPU 0 instructions: 20000005 cycles: 6518386 cumulative IPC: 3.068 (Simulation time: 00 hr 01 min 03 sec)
Warmup complete CPU 0 instructions: 20000005 cycles: 6518386 cumulative IPC: 3.068 (Simulation time: 00 hr 01 min 03 sec)
Simulation finished CPU 0 instructions: 50000005 cycles: 61683248 cumulative IPC: 0.8106 (Simulation time: 00 hr 09 min 11 sec)
Simulation complete CPU 0 instructions: 50000005 cycles: 61683248 cumulative IPC: 0.8106 (Simulation time: 00 hr 09 min 11 sec)

ChampSim completed all CPUs

=== Simulation ===
CPU 0 runs /data0/tzh/champsim_traces/Ligra/ligra_BC.com-lj.ungraph.gcc_6.3.0_O3.drop_15500M.length_250M.champsimtrace.xz

Region of Interest Statistics

CPU 0 cumulative IPC: 0.8106 instructions: 50000005 cycles: 61683248
CPU 0 Branch Prediction Accuracy: 99.92% MPKI: 0.1099 Average ROB Occupancy at Mispredict: 154.5
Branch type MPKI
BRANCH_DIRECT_JUMP: 4e-05
BRANCH_INDIRECT: 0
BRANCH_CONDITIONAL: 0.1098
BRANCH_DIRECT_CALL: 4e-05
BRANCH_INDIRECT_CALL: 0
BRANCH_RETURN: 4e-05

cpu0->cpu0_STLB TOTAL        ACCESS:      23899 HIT:          0 MISS:      23899 MSHR_MERGE:          0
cpu0->cpu0_STLB LOAD         ACCESS:      23899 HIT:          0 MISS:      23899 MSHR_MERGE:          0
cpu0->cpu0_STLB RFO          ACCESS:          0 HIT:          0 MISS:          0 MSHR_MERGE:          0
cpu0->cpu0_STLB PREFETCH     ACCESS:          0 HIT:          0 MISS:          0 MSHR_MERGE:          0
cpu0->cpu0_STLB WRITE        ACCESS:          0 HIT:          0 MISS:          0 MSHR_MERGE:          0
cpu0->cpu0_STLB TRANSLATION  ACCESS:          0 HIT:          0 MISS:          0 MSHR_MERGE:          0
cpu0->cpu0_STLB PREFETCH REQUESTED:          0 ISSUED:          0 USEFUL:          0 USELESS:          0 LATE:          0
cpu0->cpu0_STLB AVERAGE MISS LATENCY: 295.1 cycles
cpu0->cpu0_L2C TOTAL        ACCESS:    3891318 HIT:    1897184 MISS:    1994134 MSHR_MERGE:     463111
cpu0->cpu0_L2C LOAD         ACCESS:       9558 HIT:       3962 MISS:       5596 MSHR_MERGE:       2056
cpu0->cpu0_L2C RFO          ACCESS:    1326404 HIT:          1 MISS:    1326403 MSHR_MERGE:          0
cpu0->cpu0_L2C PREFETCH     ACCESS:    1225715 HIT:     566638 MISS:     659077 MSHR_MERGE:     461055
cpu0->cpu0_L2C WRITE        ACCESS:    1326555 HIT:    1326555 MISS:          0 MSHR_MERGE:          0
cpu0->cpu0_L2C TRANSLATION  ACCESS:       3086 HIT:         28 MISS:       3058 MSHR_MERGE:          0
cpu0->cpu0_L2C PREFETCH REQUESTED:    1035939 ISSUED:    1033735 USEFUL:     155048 USELESS:      39320 LATE:       2056
cpu0->cpu0_L2C AVERAGE MISS LATENCY: 673.3 cycles
cpu0->cpu0_L1I TOTAL        ACCESS:    6813816 HIT:    6813806 MISS:         10 MSHR_MERGE:          1
cpu0->cpu0_L1I LOAD         ACCESS:    6813816 HIT:    6813806 MISS:         10 MSHR_MERGE:          1
cpu0->cpu0_L1I RFO          ACCESS:          0 HIT:          0 MISS:          0 MSHR_MERGE:          0
cpu0->cpu0_L1I PREFETCH     ACCESS:          0 HIT:          0 MISS:          0 MSHR_MERGE:          0
cpu0->cpu0_L1I WRITE        ACCESS:          0 HIT:          0 MISS:          0 MSHR_MERGE:          0
cpu0->cpu0_L1I TRANSLATION  ACCESS:          0 HIT:          0 MISS:          0 MSHR_MERGE:          0
cpu0->cpu0_L1I PREFETCH REQUESTED:          0 ISSUED:          0 USEFUL:          0 USELESS:          0 LATE:          0
cpu0->cpu0_L1I AVERAGE MISS LATENCY: 333.4 cycles
cpu0->cpu0_L1D TOTAL        ACCESS:    9492687 HIT:    1816669 MISS:    7676018 MSHR_MERGE:    6144999
cpu0->cpu0_L1D LOAD         ACCESS:    1867308 HIT:    1764445 MISS:     102863 MSHR_MERGE:      93314
cpu0->cpu0_L1D RFO          ACCESS:          0 HIT:          0 MISS:          0 MSHR_MERGE:          0
cpu0->cpu0_L1D PREFETCH     ACCESS:     198514 HIT:       3130 MISS:     195384 MSHR_MERGE:       3404
cpu0->cpu0_L1D WRITE        ACCESS:    7379012 HIT:       4327 MISS:    7374685 MSHR_MERGE:    6048281
cpu0->cpu0_L1D TRANSLATION  ACCESS:      47853 HIT:      44767 MISS:       3086 MSHR_MERGE:          0
cpu0->cpu0_L1D PREFETCH REQUESTED:     199361 ISSUED:     198511 USEFUL:     191936 USELESS:         41 LATE:       9899
cpu0->cpu0_L1D AVERAGE MISS LATENCY: 679.2 cycles
cpu0->cpu0_ITLB TOTAL        ACCESS:    6718727 HIT:    6718727 MISS:          0 MSHR_MERGE:          0
cpu0->cpu0_ITLB LOAD         ACCESS:    6718727 HIT:    6718727 MISS:          0 MSHR_MERGE:          0
cpu0->cpu0_ITLB RFO          ACCESS:          0 HIT:          0 MISS:          0 MSHR_MERGE:          0
cpu0->cpu0_ITLB PREFETCH     ACCESS:          0 HIT:          0 MISS:          0 MSHR_MERGE:          0
cpu0->cpu0_ITLB WRITE        ACCESS:          0 HIT:          0 MISS:          0 MSHR_MERGE:          0
cpu0->cpu0_ITLB TRANSLATION  ACCESS:          0 HIT:          0 MISS:          0 MSHR_MERGE:          0
cpu0->cpu0_ITLB PREFETCH REQUESTED:          0 ISSUED:          0 USEFUL:          0 USELESS:          0 LATE:          0
cpu0->cpu0_ITLB AVERAGE MISS LATENCY: - cycles
cpu0->cpu0_DTLB TOTAL        ACCESS:    8304083 HIT:    7961179 MISS:     342904 MSHR_MERGE:     319005
cpu0->cpu0_DTLB LOAD         ACCESS:    8304083 HIT:    7961179 MISS:     342904 MSHR_MERGE:     319005
cpu0->cpu0_DTLB RFO          ACCESS:          0 HIT:          0 MISS:          0 MSHR_MERGE:          0
cpu0->cpu0_DTLB PREFETCH     ACCESS:          0 HIT:          0 MISS:          0 MSHR_MERGE:          0
cpu0->cpu0_DTLB WRITE        ACCESS:          0 HIT:          0 MISS:          0 MSHR_MERGE:          0
cpu0->cpu0_DTLB TRANSLATION  ACCESS:          0 HIT:          0 MISS:          0 MSHR_MERGE:          0
cpu0->cpu0_DTLB PREFETCH REQUESTED:          0 ISSUED:          0 USEFUL:          0 USELESS:          0 LATE:          0
cpu0->cpu0_DTLB AVERAGE MISS LATENCY: 301.1 cycles
cpu0->LLC TOTAL        ACCESS:    2859334 HIT:    1167300 MISS:    1692034 MSHR_MERGE:          0
cpu0->LLC LOAD         ACCESS:       3540 HIT:          0 MISS:       3540 MSHR_MERGE:          0
cpu0->LLC RFO          ACCESS:    1326402 HIT:          0 MISS:    1326402 MSHR_MERGE:          0
cpu0->LLC PREFETCH     ACCESS:     198022 HIT:          0 MISS:     198022 MSHR_MERGE:          0
cpu0->LLC WRITE        ACCESS:    1328312 HIT:    1167295 MISS:     161017 MSHR_MERGE:          0
cpu0->LLC TRANSLATION  ACCESS:       3058 HIT:          5 MISS:       3053 MSHR_MERGE:          0
cpu0->LLC PREFETCH REQUESTED:          0 ISSUED:          0 USEFUL:          0 USELESS:          0 LATE:          0
cpu0->LLC AVERAGE MISS LATENCY: 587.3 cycles

DRAM Statistics

Channel 0 RQ ROW_BUFFER_HIT:     114139
  ROW_BUFFER_MISS:    1416861
  AVG DBUS CONGESTED CYCLE: 6.906
Channel 0 WQ ROW_BUFFER_HIT:     125335
  ROW_BUFFER_MISS:    1206582
  FULL:          0
Channel 0 REFRESHES ISSUED:       5140

[ROI Statistics]
[System Configuration]
num_cpus 1
cpu_freq 4000
fetch_width 6
decode_width 6
dispatch_width 6
execute_width 6
lq_width 2
sq_width 2
retire_width 6
scheduler_size 160
branch_mispredict_penalty 1
rob_size 352
lq_size 240
sq_size 112
ifetch_buffer_size 64
decode_buffer_size 32
dispatch_buffer_size 32
register_file_size 288
decode_latency 1
dispatch_latency 1
schedule_latency 0
execute_latency 0
page_size 4096
block_size 64
core_0_itlb_set 16
core_0_itlb_way 4
core_0_itlb_rq_size 16
core_0_itlb_wq_size 16
core_0_itlb_pq_size 0
core_0_itlb_mshr_size 8
core_0_itlb_hit_latency 1
core_0_itlb_fill_latency 1
core_0_itlb_max_tag_check 2
core_0_itlb_max_fill 2
core_0_dtlb_set 16
core_0_dtlb_way 4
core_0_dtlb_rq_size 16
core_0_dtlb_wq_size 16
core_0_dtlb_pq_size 0
core_0_dtlb_mshr_size 8
core_0_dtlb_hit_latency 1
core_0_dtlb_fill_latency 1
core_0_dtlb_max_tag_check 2
core_0_dtlb_max_fill 2
core_0_stlb_set 128
core_0_stlb_way 12
core_0_stlb_rq_size 32
core_0_stlb_wq_size 32
core_0_stlb_pq_size 0
core_0_stlb_mshr_size 16
core_0_stlb_hit_latency 4
core_0_stlb_fill_latency 4
core_0_stlb_max_tag_check 1
core_0_stlb_max_fill 1
core_0_l1i_set 64
core_0_l1i_way 8
core_0_l1i_rq_size 64
core_0_l1i_wq_size 64
core_0_l1i_pq_size 32
core_0_l1i_mshr_size 8
core_0_l1i_hit_latency 2
core_0_l1i_fill_latency 2
core_0_l1i_max_tag_check 2
core_0_l1i_max_fill 2
core_0_l1d_set 64
core_0_l1d_way 12
core_0_l1d_rq_size 64
core_0_l1d_wq_size 64
core_0_l1d_pq_size 8
core_0_l1d_mshr_size 16
core_0_l1d_hit_latency 2
core_0_l1d_fill_latency 3
core_0_l1d_max_tag_check 2
core_0_l1d_max_fill 2
core_0_l2c_set 1024
core_0_l2c_way 8
core_0_l2c_rq_size 32
core_0_l2c_wq_size 32
core_0_l2c_pq_size 16
core_0_l2c_mshr_size 32
core_0_l2c_hit_latency 5
core_0_l2c_fill_latency 5
core_0_l2c_max_tag_check 1
core_0_l2c_max_fill 1
llc_set 2048
llc_way 16
llc_rq_size 32
llc_wq_size 32
llc_pq_size 32
llc_mshr_size 64
llc_hit_latency 10
llc_fill_latency 10
llc_max_tag_check 1
llc_max_fill 1
dram_channels 1
dram_ranks 1
dram_bankgroups 8
dram_banks 4
dram_rows 16384
dram_columns 1024
dram_channel_width 8
dram_rq_size 64
dram_wq_size 64
dram_size 4294967296
core_0_itlb_prefetcher no
core_0_dtlb_prefetcher no
core_0_stlb_prefetcher no
core_0_l1i_prefetcher next_line
core_0_l1d_prefetcher berti
core_0_l2c_prefetcher pythia
llc_prefetcher no
llc_replacement drrip

Core_0_instructions 50000005
Core_0_cycles 61683248
Core_0_IPC 0.810593
Core_0_branch_prediction_accuracy 99.9204
Core_0_branch_MPKI 0.10994
Core_0_average_ROB_occupancy_at_mispredict 154.458

Core_0_ITLB_total_access 6718727
Core_0_ITLB_total_hit 6718727
Core_0_ITLB_total_miss 0
Core_0_ITLB_total_MPKI 0
Core_0_ITLB_total_miss_rate 0
Core_0_ITLB_demand_access 6718727
Core_0_ITLB_demand_hit 6718727
Core_0_ITLB_demand_miss 0
Core_0_ITLB_demand_MPKI 0
Core_0_ITLB_demand_miss_rate 0
Core_0_ITLB_load_access 6718727
Core_0_ITLB_load_hit 6718727
Core_0_ITLB_load_miss 0
Core_0_ITLB_load_MPKI 0
Core_0_ITLB_load_miss_rate 0
Core_0_ITLB_rfo_access 0
Core_0_ITLB_rfo_hit 0
Core_0_ITLB_rfo_miss 0
Core_0_ITLB_rfo_MPKI 0
Core_0_ITLB_rfo_miss_rate 0
Core_0_ITLB_prefetch_access 0
Core_0_ITLB_prefetch_hit 0
Core_0_ITLB_prefetch_miss 0
Core_0_ITLB_prefetch_MPKI 0
Core_0_ITLB_prefetch_miss_rate 0
Core_0_ITLB_writeback_access 0
Core_0_ITLB_writeback_hit 0
Core_0_ITLB_writeback_miss 0
Core_0_ITLB_writeback_MPKI 0
Core_0_ITLB_writeback_miss_rate 0
Core_0_ITLB_prefetch_requested 0
Core_0_ITLB_prefetch_issued 0
Core_0_ITLB_prefetch_useful 0
Core_0_ITLB_prefetch_useless 0
Core_0_ITLB_prefetch_late 0
Core_0_ITLB_prefetch_accuracy 0
Core_0_ITLB_prefetch_coverage 0

Core_0_DTLB_total_access 8304083
Core_0_DTLB_total_hit 7961179
Core_0_DTLB_total_miss 342904
Core_0_DTLB_total_MPKI 6.85808
Core_0_DTLB_total_miss_rate 0.0412934
Core_0_DTLB_demand_access 8304083
Core_0_DTLB_demand_hit 7961179
Core_0_DTLB_demand_miss 342904
Core_0_DTLB_demand_MPKI 6.85808
Core_0_DTLB_demand_miss_rate 0.0412934
Core_0_DTLB_load_access 8304083
Core_0_DTLB_load_hit 7961179
Core_0_DTLB_load_miss 342904
Core_0_DTLB_load_MPKI 6.85808
Core_0_DTLB_load_miss_rate 0.0412934
Core_0_DTLB_rfo_access 0
Core_0_DTLB_rfo_hit 0
Core_0_DTLB_rfo_miss 0
Core_0_DTLB_rfo_MPKI 0
Core_0_DTLB_rfo_miss_rate 0
Core_0_DTLB_prefetch_access 0
Core_0_DTLB_prefetch_hit 0
Core_0_DTLB_prefetch_miss 0
Core_0_DTLB_prefetch_MPKI 0
Core_0_DTLB_prefetch_miss_rate 0
Core_0_DTLB_writeback_access 0
Core_0_DTLB_writeback_hit 0
Core_0_DTLB_writeback_miss 0
Core_0_DTLB_writeback_MPKI 0
Core_0_DTLB_writeback_miss_rate 0
Core_0_DTLB_prefetch_requested 0
Core_0_DTLB_prefetch_issued 0
Core_0_DTLB_prefetch_useful 0
Core_0_DTLB_prefetch_useless 0
Core_0_DTLB_prefetch_late 0
Core_0_DTLB_prefetch_accuracy 0
Core_0_DTLB_prefetch_coverage 0

Core_0_STLB_total_access 23899
Core_0_STLB_total_hit 0
Core_0_STLB_total_miss 23899
Core_0_STLB_total_MPKI 0.47798
Core_0_STLB_total_miss_rate 1
Core_0_STLB_demand_access 23899
Core_0_STLB_demand_hit 0
Core_0_STLB_demand_miss 23899
Core_0_STLB_demand_MPKI 0.47798
Core_0_STLB_demand_miss_rate 1
Core_0_STLB_load_access 23899
Core_0_STLB_load_hit 0
Core_0_STLB_load_miss 23899
Core_0_STLB_load_MPKI 0.47798
Core_0_STLB_load_miss_rate 1
Core_0_STLB_rfo_access 0
Core_0_STLB_rfo_hit 0
Core_0_STLB_rfo_miss 0
Core_0_STLB_rfo_MPKI 0
Core_0_STLB_rfo_miss_rate 0
Core_0_STLB_prefetch_access 0
Core_0_STLB_prefetch_hit 0
Core_0_STLB_prefetch_miss 0
Core_0_STLB_prefetch_MPKI 0
Core_0_STLB_prefetch_miss_rate 0
Core_0_STLB_writeback_access 0
Core_0_STLB_writeback_hit 0
Core_0_STLB_writeback_miss 0
Core_0_STLB_writeback_MPKI 0
Core_0_STLB_writeback_miss_rate 0
Core_0_STLB_prefetch_requested 0
Core_0_STLB_prefetch_issued 0
Core_0_STLB_prefetch_useful 0
Core_0_STLB_prefetch_useless 0
Core_0_STLB_prefetch_late 0
Core_0_STLB_prefetch_accuracy 0
Core_0_STLB_prefetch_coverage 0

Core_0_L1I_total_access 6813816
Core_0_L1I_total_hit 6813806
Core_0_L1I_total_miss 10
Core_0_L1I_total_MPKI 0.0002
Core_0_L1I_total_miss_rate 1.46761e-06
Core_0_L1I_demand_access 6813816
Core_0_L1I_demand_hit 6813806
Core_0_L1I_demand_miss 10
Core_0_L1I_demand_MPKI 0.0002
Core_0_L1I_demand_miss_rate 1.46761e-06
Core_0_L1I_load_access 6813816
Core_0_L1I_load_hit 6813806
Core_0_L1I_load_miss 10
Core_0_L1I_load_MPKI 0.0002
Core_0_L1I_load_miss_rate 1.46761e-06
Core_0_L1I_rfo_access 0
Core_0_L1I_rfo_hit 0
Core_0_L1I_rfo_miss 0
Core_0_L1I_rfo_MPKI 0
Core_0_L1I_rfo_miss_rate 0
Core_0_L1I_prefetch_access 0
Core_0_L1I_prefetch_hit 0
Core_0_L1I_prefetch_miss 0
Core_0_L1I_prefetch_MPKI 0
Core_0_L1I_prefetch_miss_rate 0
Core_0_L1I_writeback_access 0
Core_0_L1I_writeback_hit 0
Core_0_L1I_writeback_miss 0
Core_0_L1I_writeback_MPKI 0
Core_0_L1I_writeback_miss_rate 0
Core_0_L1I_prefetch_requested 0
Core_0_L1I_prefetch_issued 0
Core_0_L1I_prefetch_useful 0
Core_0_L1I_prefetch_useless 0
Core_0_L1I_prefetch_late 0
Core_0_L1I_prefetch_accuracy 0
Core_0_L1I_prefetch_coverage 0

Core_0_L1D_total_access 9444834
Core_0_L1D_total_hit 1771902
Core_0_L1D_total_miss 7672932
Core_0_L1D_total_MPKI 153.459
Core_0_L1D_total_miss_rate 0.812395
Core_0_L1D_demand_access 1867308
Core_0_L1D_demand_hit 1764445
Core_0_L1D_demand_miss 102863
Core_0_L1D_demand_MPKI 2.05726
Core_0_L1D_demand_miss_rate 0.0550863
Core_0_L1D_load_access 1867308
Core_0_L1D_load_hit 1764445
Core_0_L1D_load_miss 102863
Core_0_L1D_load_MPKI 2.05726
Core_0_L1D_load_miss_rate 0.0550863
Core_0_L1D_rfo_access 0
Core_0_L1D_rfo_hit 0
Core_0_L1D_rfo_miss 0
Core_0_L1D_rfo_MPKI 0
Core_0_L1D_rfo_miss_rate 0
Core_0_L1D_prefetch_access 198514
Core_0_L1D_prefetch_hit 3130
Core_0_L1D_prefetch_miss 195384
Core_0_L1D_prefetch_MPKI 3.90768
Core_0_L1D_prefetch_miss_rate 0.984233
Core_0_L1D_writeback_access 7379012
Core_0_L1D_writeback_hit 4327
Core_0_L1D_writeback_miss 7374685
Core_0_L1D_writeback_MPKI 147.494
Core_0_L1D_writeback_miss_rate 0.999414
Core_0_L1D_prefetch_requested 199361
Core_0_L1D_prefetch_issued 198511
Core_0_L1D_prefetch_useful 191936
Core_0_L1D_prefetch_useless 41
Core_0_L1D_prefetch_late 9899
Core_0_L1D_prefetch_accuracy 0.966878
Core_0_L1D_prefetch_coverage 0.651074

Core_0_L2C_total_access 3888232
Core_0_L2C_total_hit 1897156
Core_0_L2C_total_miss 1991076
Core_0_L2C_total_MPKI 39.8215
Core_0_L2C_total_miss_rate 0.512077
Core_0_L2C_demand_access 1335962
Core_0_L2C_demand_hit 3963
Core_0_L2C_demand_miss 1331999
Core_0_L2C_demand_MPKI 26.64
Core_0_L2C_demand_miss_rate 0.997034
Core_0_L2C_load_access 9558
Core_0_L2C_load_hit 3962
Core_0_L2C_load_miss 5596
Core_0_L2C_load_MPKI 0.11192
Core_0_L2C_load_miss_rate 0.585478
Core_0_L2C_rfo_access 1326404
Core_0_L2C_rfo_hit 1
Core_0_L2C_rfo_miss 1326403
Core_0_L2C_rfo_MPKI 26.5281
Core_0_L2C_rfo_miss_rate 0.999999
Core_0_L2C_prefetch_access 1225715
Core_0_L2C_prefetch_hit 566638
Core_0_L2C_prefetch_miss 659077
Core_0_L2C_prefetch_MPKI 13.1815
Core_0_L2C_prefetch_miss_rate 0.537708
Core_0_L2C_writeback_access 1326555
Core_0_L2C_writeback_hit 1326555
Core_0_L2C_writeback_miss 0
Core_0_L2C_writeback_MPKI 0
Core_0_L2C_writeback_miss_rate 0
Core_0_L2C_prefetch_requested 1035939
Core_0_L2C_prefetch_issued 1033735
Core_0_L2C_prefetch_useful 155048
Core_0_L2C_prefetch_useless 39320
Core_0_L2C_prefetch_late 2056
Core_0_L2C_prefetch_accuracy 0.149988
Core_0_L2C_prefetch_coverage 0.104266

Core_0_LLC_total_access 2856276
Core_0_LLC_total_hit 1167295
Core_0_LLC_total_miss 1688981
Core_0_LLC_total_MPKI 33.7796
Core_0_LLC_total_miss_rate 0.591323
Core_0_LLC_demand_access 1329942
Core_0_LLC_demand_hit 0
Core_0_LLC_demand_miss 1329942
Core_0_LLC_demand_MPKI 26.5988
Core_0_LLC_demand_miss_rate 1
Core_0_LLC_load_access 3540
Core_0_LLC_load_hit 0
Core_0_LLC_load_miss 3540
Core_0_LLC_load_MPKI 0.0708
Core_0_LLC_load_miss_rate 1
Core_0_LLC_rfo_access 1326402
Core_0_LLC_rfo_hit 0
Core_0_LLC_rfo_miss 1326402
Core_0_LLC_rfo_MPKI 26.528
Core_0_LLC_rfo_miss_rate 1
Core_0_LLC_prefetch_access 198022
Core_0_LLC_prefetch_hit 0
Core_0_LLC_prefetch_miss 198022
Core_0_LLC_prefetch_MPKI 3.96044
Core_0_LLC_prefetch_miss_rate 1
Core_0_LLC_writeback_access 1328312
Core_0_LLC_writeback_hit 1167295
Core_0_LLC_writeback_miss 161017
Core_0_LLC_writeback_MPKI 3.22034
Core_0_LLC_writeback_miss_rate 0.121219
Core_0_LLC_prefetch_requested 0
Core_0_LLC_prefetch_issued 0
Core_0_LLC_prefetch_useful 0
Core_0_LLC_prefetch_useless 0
Core_0_LLC_prefetch_late 0
Core_0_LLC_prefetch_accuracy 0
Core_0_LLC_prefetch_coverage 0

[DRAM Statistics]
Channel_0_RQ_row_buffer_hit 114139
Channel_0_RQ_row_buffer_miss 1416861
Channel_0_WQ_row_buffer_hit 125335
Channel_0_WQ_row_buffer_miss 1206582
Channel_0_WQ_full 0
Channel_0_dbus_congested 11098626
DRAM_total_RQ_row_buffer_hit 114139
DRAM_total_RQ_row_buffer_miss 1416861
DRAM_total_WQ_row_buffer_hit 125335
DRAM_total_WQ_row_buffer_miss 1206582
DRAM_total_WQ_full 0
DRAM_total_dbus_congested 11098626
DRAM_avg_congested_cycle 6.90593

======STLB miss causes ========
Core_0_STLB_miss_cause_breakdown
Core_0_STLB_cause_Demand_Data_miss 23871
Core_0_STLB_cause_Demand_Data_miss_rate 0.998828
Core_0_STLB_cause_Demand_Instruction_miss 0
Core_0_STLB_cause_Demand_Instruction_miss_rate 0
Core_0_STLB_cause_L1D_Prefetch_miss 28
Core_0_STLB_cause_L1D_Prefetch_miss_rate 0.0011716
Core_0_STLB_cause_L1I_Prefetch_miss 0
Core_0_STLB_cause_L1I_Prefetch_miss_rate 0
Core_0_STLB_cause_Other_miss 0
Core_0_STLB_cause_Other_miss_rate 0
Core_0_STLB_Demand_miss 23871
Core_0_STLB_Demand_miss_rate 0.998828
Core_0_STLB_L1D_Prefetch_miss 28
Core_0_STLB_L1D_Prefetch_miss_rate 0.0011716
Core_0_STLB_Other_miss 0
Core_0_STLB_Other_miss_rate 0
