[VMEM] WARNING: physical memory size is smaller than virtual memory size.

*** ChampSim Multicore Out-of-Order Simulator ***
Warmup Instructions: 20000000
Simulation Instructions: 50000000
Number of CPUs: 1
Page size: 4096
Core 0: /data0/tzh/champsim_traces/Ligra/ligra_Triangle.com-lj.ungraph.gcc_6.3.0_O3.drop_24000M.length_250M.champsimtrace.xz
 L1D Berti prefetcher
Off-chip DRAM Size: 4 GiB Channels: 1 Width: 64-bit Data Rate: 3205 MT/s
Warmup halting CPU 0 at instruction 20000004 cycle 5142447 for remainder of phase
Warmup finished CPU 0 instructions: 20000004 cycles: 5142447 cumulative IPC: 3.889 (Simulation time: 00 hr 00 min 42 sec)
Warmup complete CPU 0 instructions: 20000004 cycles: 5142447 cumulative IPC: 3.889 (Simulation time: 00 hr 00 min 42 sec)
Simulation finished CPU 0 instructions: 50000001 cycles: 23771516 cumulative IPC: 2.103 (Simulation time: 00 hr 03 min 14 sec)
Simulation complete CPU 0 instructions: 50000001 cycles: 23771516 cumulative IPC: 2.103 (Simulation time: 00 hr 03 min 14 sec)

ChampSim completed all CPUs

=== Simulation ===
CPU 0 runs /data0/tzh/champsim_traces/Ligra/ligra_Triangle.com-lj.ungraph.gcc_6.3.0_O3.drop_24000M.length_250M.champsimtrace.xz

Region of Interest Statistics

CPU 0 cumulative IPC: 2.103 instructions: 50000001 cycles: 23771516
CPU 0 Branch Prediction Accuracy: 96.07% MPKI: 11.24 Average ROB Occupancy at Mispredict: 28.72
Branch type MPKI
BRANCH_DIRECT_JUMP: 0
BRANCH_INDIRECT: 0
BRANCH_CONDITIONAL: 8.618
BRANCH_DIRECT_CALL: 0
BRANCH_INDIRECT_CALL: 0
BRANCH_RETURN: 2.625

cpu0->cpu0_STLB TOTAL        ACCESS:       2565 HIT:         16 MISS:       2549 MSHR_MERGE:          0
cpu0->cpu0_STLB LOAD         ACCESS:       2565 HIT:         16 MISS:       2549 MSHR_MERGE:          0
cpu0->cpu0_STLB RFO          ACCESS:          0 HIT:          0 MISS:          0 MSHR_MERGE:          0
cpu0->cpu0_STLB PREFETCH     ACCESS:          0 HIT:          0 MISS:          0 MSHR_MERGE:          0
cpu0->cpu0_STLB WRITE        ACCESS:          0 HIT:          0 MISS:          0 MSHR_MERGE:          0
cpu0->cpu0_STLB TRANSLATION  ACCESS:          0 HIT:          0 MISS:          0 MSHR_MERGE:          0
cpu0->cpu0_STLB PREFETCH REQUESTED:          0 ISSUED:          0 USEFUL:          0 USELESS:          0 LATE:          0
cpu0->cpu0_STLB AVERAGE MISS LATENCY: 238.5 cycles
cpu0->cpu0_L2C TOTAL        ACCESS:     966647 HIT:     666662 MISS:     299985 MSHR_MERGE:     136564
cpu0->cpu0_L2C LOAD         ACCESS:      21605 HIT:      14531 MISS:       7074 MSHR_MERGE:        481
cpu0->cpu0_L2C RFO          ACCESS:      12152 HIT:        104 MISS:      12048 MSHR_MERGE:          0
cpu0->cpu0_L2C PREFETCH     ACCESS:     806832 HIT:     526305 MISS:     280527 MSHR_MERGE:     136083
cpu0->cpu0_L2C WRITE        ACCESS:     125618 HIT:     125616 MISS:          2 MSHR_MERGE:          0
cpu0->cpu0_L2C TRANSLATION  ACCESS:        440 HIT:        106 MISS:        334 MSHR_MERGE:          0
cpu0->cpu0_L2C PREFETCH REQUESTED:     681637 ISSUED:     677237 USEFUL:     134967 USELESS:        873 LATE:        481
cpu0->cpu0_L2C AVERAGE MISS LATENCY: 209.6 cycles
cpu0->cpu0_L1I TOTAL        ACCESS:     373126 HIT:     373126 MISS:          0 MSHR_MERGE:          0
cpu0->cpu0_L1I LOAD         ACCESS:     373126 HIT:     373126 MISS:          0 MSHR_MERGE:          0
cpu0->cpu0_L1I RFO          ACCESS:          0 HIT:          0 MISS:          0 MSHR_MERGE:          0
cpu0->cpu0_L1I PREFETCH     ACCESS:          0 HIT:          0 MISS:          0 MSHR_MERGE:          0
cpu0->cpu0_L1I WRITE        ACCESS:          0 HIT:          0 MISS:          0 MSHR_MERGE:          0
cpu0->cpu0_L1I TRANSLATION  ACCESS:          0 HIT:          0 MISS:          0 MSHR_MERGE:          0
cpu0->cpu0_L1I PREFETCH REQUESTED:          0 ISSUED:          0 USEFUL:          0 USELESS:          0 LATE:          0
cpu0->cpu0_L1I AVERAGE MISS LATENCY: - cycles
cpu0->cpu0_L1D TOTAL        ACCESS:   11582493 HIT:   11296164 MISS:     286329 MSHR_MERGE:     122537
cpu0->cpu0_L1D LOAD         ACCESS:    7403973 HIT:    7290523 MISS:     113450 MSHR_MERGE:      91845
cpu0->cpu0_L1D RFO          ACCESS:          0 HIT:          0 MISS:          0 MSHR_MERGE:          0
cpu0->cpu0_L1D PREFETCH     ACCESS:     134020 HIT:       3958 MISS:     130062 MSHR_MERGE:        467
cpu0->cpu0_L1D WRITE        ACCESS:    4039401 HIT:    3997024 MISS:      42377 MSHR_MERGE:      30225
cpu0->cpu0_L1D TRANSLATION  ACCESS:       5099 HIT:       4659 MISS:        440 MSHR_MERGE:          0
cpu0->cpu0_L1D PREFETCH REQUESTED:     134020 ISSUED:     134020 USEFUL:     129431 USELESS:        158 LATE:        655
cpu0->cpu0_L1D AVERAGE MISS LATENCY: 127.3 cycles
cpu0->cpu0_ITLB TOTAL        ACCESS:     373125 HIT:     373125 MISS:          0 MSHR_MERGE:          0
cpu0->cpu0_ITLB LOAD         ACCESS:     373125 HIT:     373125 MISS:          0 MSHR_MERGE:          0
cpu0->cpu0_ITLB RFO          ACCESS:          0 HIT:          0 MISS:          0 MSHR_MERGE:          0
cpu0->cpu0_ITLB PREFETCH     ACCESS:          0 HIT:          0 MISS:          0 MSHR_MERGE:          0
cpu0->cpu0_ITLB WRITE        ACCESS:          0 HIT:          0 MISS:          0 MSHR_MERGE:          0
cpu0->cpu0_ITLB TRANSLATION  ACCESS:          0 HIT:          0 MISS:          0 MSHR_MERGE:          0
cpu0->cpu0_ITLB PREFETCH REQUESTED:          0 ISSUED:          0 USEFUL:          0 USELESS:          0 LATE:          0
cpu0->cpu0_ITLB AVERAGE MISS LATENCY: - cycles
cpu0->cpu0_DTLB TOTAL        ACCESS:   10297168 HIT:   10283692 MISS:      13476 MSHR_MERGE:      10911
cpu0->cpu0_DTLB LOAD         ACCESS:   10297168 HIT:   10283692 MISS:      13476 MSHR_MERGE:      10911
cpu0->cpu0_DTLB RFO          ACCESS:          0 HIT:          0 MISS:          0 MSHR_MERGE:          0
cpu0->cpu0_DTLB PREFETCH     ACCESS:          0 HIT:          0 MISS:          0 MSHR_MERGE:          0
cpu0->cpu0_DTLB WRITE        ACCESS:          0 HIT:          0 MISS:          0 MSHR_MERGE:          0
cpu0->cpu0_DTLB TRANSLATION  ACCESS:          0 HIT:          0 MISS:          0 MSHR_MERGE:          0
cpu0->cpu0_DTLB PREFETCH REQUESTED:          0 ISSUED:          0 USEFUL:          0 USELESS:          0 LATE:          0
cpu0->cpu0_DTLB AVERAGE MISS LATENCY: 243 cycles
cpu0->LLC TOTAL        ACCESS:     288300 HIT:     109757 MISS:     178543 MSHR_MERGE:          0
cpu0->LLC LOAD         ACCESS:       6593 HIT:          0 MISS:       6593 MSHR_MERGE:          0
cpu0->LLC RFO          ACCESS:      12048 HIT:          8 MISS:      12040 MSHR_MERGE:          0
cpu0->LLC PREFETCH     ACCESS:     144444 HIT:         16 MISS:     144428 MSHR_MERGE:          0
cpu0->LLC WRITE        ACCESS:     124881 HIT:     109723 MISS:      15158 MSHR_MERGE:          0
cpu0->LLC TRANSLATION  ACCESS:        334 HIT:         10 MISS:        324 MSHR_MERGE:          0
cpu0->LLC PREFETCH REQUESTED:          0 ISSUED:          0 USEFUL:          0 USELESS:          0 LATE:          0
cpu0->LLC AVERAGE MISS LATENCY: 112.9 cycles

DRAM Statistics

Channel 0 RQ ROW_BUFFER_HIT:       6673
  ROW_BUFFER_MISS:     156712
  AVG DBUS CONGESTED CYCLE: 10.57
Channel 0 WQ ROW_BUFFER_HIT:      25514
  ROW_BUFFER_MISS:      97830
  FULL:          0
Channel 0 REFRESHES ISSUED:       1981

[ROI Statistics]
[System Configuration]
num_cpus 1
cpu_freq 4000
fetch_width 6
decode_width 6
dispatch_width 6
execute_width 6
lq_width 2
sq_width 2
retire_width 6
scheduler_size 160
branch_mispredict_penalty 1
rob_size 352
lq_size 240
sq_size 112
ifetch_buffer_size 64
decode_buffer_size 32
dispatch_buffer_size 32
register_file_size 288
decode_latency 1
dispatch_latency 1
schedule_latency 0
execute_latency 0
page_size 4096
block_size 64
core_0_itlb_set 16
core_0_itlb_way 4
core_0_itlb_rq_size 16
core_0_itlb_wq_size 16
core_0_itlb_pq_size 0
core_0_itlb_mshr_size 8
core_0_itlb_hit_latency 1
core_0_itlb_fill_latency 1
core_0_itlb_max_tag_check 2
core_0_itlb_max_fill 2
core_0_dtlb_set 16
core_0_dtlb_way 4
core_0_dtlb_rq_size 16
core_0_dtlb_wq_size 16
core_0_dtlb_pq_size 0
core_0_dtlb_mshr_size 8
core_0_dtlb_hit_latency 1
core_0_dtlb_fill_latency 1
core_0_dtlb_max_tag_check 2
core_0_dtlb_max_fill 2
core_0_stlb_set 128
core_0_stlb_way 12
core_0_stlb_rq_size 32
core_0_stlb_wq_size 32
core_0_stlb_pq_size 0
core_0_stlb_mshr_size 16
core_0_stlb_hit_latency 4
core_0_stlb_fill_latency 4
core_0_stlb_max_tag_check 1
core_0_stlb_max_fill 1
core_0_l1i_set 64
core_0_l1i_way 8
core_0_l1i_rq_size 64
core_0_l1i_wq_size 64
core_0_l1i_pq_size 32
core_0_l1i_mshr_size 8
core_0_l1i_hit_latency 2
core_0_l1i_fill_latency 2
core_0_l1i_max_tag_check 2
core_0_l1i_max_fill 2
core_0_l1d_set 64
core_0_l1d_way 12
core_0_l1d_rq_size 64
core_0_l1d_wq_size 64
core_0_l1d_pq_size 8
core_0_l1d_mshr_size 16
core_0_l1d_hit_latency 2
core_0_l1d_fill_latency 3
core_0_l1d_max_tag_check 2
core_0_l1d_max_fill 2
core_0_l2c_set 1024
core_0_l2c_way 8
core_0_l2c_rq_size 32
core_0_l2c_wq_size 32
core_0_l2c_pq_size 16
core_0_l2c_mshr_size 32
core_0_l2c_hit_latency 5
core_0_l2c_fill_latency 5
core_0_l2c_max_tag_check 1
core_0_l2c_max_fill 1
llc_set 2048
llc_way 16
llc_rq_size 32
llc_wq_size 32
llc_pq_size 32
llc_mshr_size 64
llc_hit_latency 10
llc_fill_latency 10
llc_max_tag_check 1
llc_max_fill 1
dram_channels 1
dram_ranks 1
dram_bankgroups 8
dram_banks 4
dram_rows 16384
dram_columns 1024
dram_channel_width 8
dram_rq_size 64
dram_wq_size 64
dram_size 4294967296
core_0_itlb_prefetcher no
core_0_dtlb_prefetcher no
core_0_stlb_prefetcher no
core_0_l1i_prefetcher next_line
core_0_l1d_prefetcher berti
core_0_l2c_prefetcher pythia
llc_prefetcher no
llc_replacement drrip

Core_0_instructions 50000001
Core_0_cycles 23771516
Core_0_IPC 2.10336
Core_0_branch_prediction_accuracy 96.0655
Core_0_branch_MPKI 11.2426
Core_0_average_ROB_occupancy_at_mispredict 28.7214

Core_0_ITLB_total_access 373125
Core_0_ITLB_total_hit 373125
Core_0_ITLB_total_miss 0
Core_0_ITLB_total_MPKI 0
Core_0_ITLB_total_miss_rate 0
Core_0_ITLB_demand_access 373125
Core_0_ITLB_demand_hit 373125
Core_0_ITLB_demand_miss 0
Core_0_ITLB_demand_MPKI 0
Core_0_ITLB_demand_miss_rate 0
Core_0_ITLB_load_access 373125
Core_0_ITLB_load_hit 373125
Core_0_ITLB_load_miss 0
Core_0_ITLB_load_MPKI 0
Core_0_ITLB_load_miss_rate 0
Core_0_ITLB_rfo_access 0
Core_0_ITLB_rfo_hit 0
Core_0_ITLB_rfo_miss 0
Core_0_ITLB_rfo_MPKI 0
Core_0_ITLB_rfo_miss_rate 0
Core_0_ITLB_prefetch_access 0
Core_0_ITLB_prefetch_hit 0
Core_0_ITLB_prefetch_miss 0
Core_0_ITLB_prefetch_MPKI 0
Core_0_ITLB_prefetch_miss_rate 0
Core_0_ITLB_writeback_access 0
Core_0_ITLB_writeback_hit 0
Core_0_ITLB_writeback_miss 0
Core_0_ITLB_writeback_MPKI 0
Core_0_ITLB_writeback_miss_rate 0
Core_0_ITLB_prefetch_requested 0
Core_0_ITLB_prefetch_issued 0
Core_0_ITLB_prefetch_useful 0
Core_0_ITLB_prefetch_useless 0
Core_0_ITLB_prefetch_late 0
Core_0_ITLB_prefetch_accuracy 0
Core_0_ITLB_prefetch_coverage 0

Core_0_DTLB_total_access 10297168
Core_0_DTLB_total_hit 10283692
Core_0_DTLB_total_miss 13476
Core_0_DTLB_total_MPKI 0.26952
Core_0_DTLB_total_miss_rate 0.00130871
Core_0_DTLB_demand_access 10297168
Core_0_DTLB_demand_hit 10283692
Core_0_DTLB_demand_miss 13476
Core_0_DTLB_demand_MPKI 0.26952
Core_0_DTLB_demand_miss_rate 0.00130871
Core_0_DTLB_load_access 10297168
Core_0_DTLB_load_hit 10283692
Core_0_DTLB_load_miss 13476
Core_0_DTLB_load_MPKI 0.26952
Core_0_DTLB_load_miss_rate 0.00130871
Core_0_DTLB_rfo_access 0
Core_0_DTLB_rfo_hit 0
Core_0_DTLB_rfo_miss 0
Core_0_DTLB_rfo_MPKI 0
Core_0_DTLB_rfo_miss_rate 0
Core_0_DTLB_prefetch_access 0
Core_0_DTLB_prefetch_hit 0
Core_0_DTLB_prefetch_miss 0
Core_0_DTLB_prefetch_MPKI 0
Core_0_DTLB_prefetch_miss_rate 0
Core_0_DTLB_writeback_access 0
Core_0_DTLB_writeback_hit 0
Core_0_DTLB_writeback_miss 0
Core_0_DTLB_writeback_MPKI 0
Core_0_DTLB_writeback_miss_rate 0
Core_0_DTLB_prefetch_requested 0
Core_0_DTLB_prefetch_issued 0
Core_0_DTLB_prefetch_useful 0
Core_0_DTLB_prefetch_useless 0
Core_0_DTLB_prefetch_late 0
Core_0_DTLB_prefetch_accuracy 0
Core_0_DTLB_prefetch_coverage 0

Core_0_STLB_total_access 2565
Core_0_STLB_total_hit 16
Core_0_STLB_total_miss 2549
Core_0_STLB_total_MPKI 0.05098
Core_0_STLB_total_miss_rate 0.993762
Core_0_STLB_demand_access 2565
Core_0_STLB_demand_hit 16
Core_0_STLB_demand_miss 2549
Core_0_STLB_demand_MPKI 0.05098
Core_0_STLB_demand_miss_rate 0.993762
Core_0_STLB_load_access 2565
Core_0_STLB_load_hit 16
Core_0_STLB_load_miss 2549
Core_0_STLB_load_MPKI 0.05098
Core_0_STLB_load_miss_rate 0.993762
Core_0_STLB_rfo_access 0
Core_0_STLB_rfo_hit 0
Core_0_STLB_rfo_miss 0
Core_0_STLB_rfo_MPKI 0
Core_0_STLB_rfo_miss_rate 0
Core_0_STLB_prefetch_access 0
Core_0_STLB_prefetch_hit 0
Core_0_STLB_prefetch_miss 0
Core_0_STLB_prefetch_MPKI 0
Core_0_STLB_prefetch_miss_rate 0
Core_0_STLB_writeback_access 0
Core_0_STLB_writeback_hit 0
Core_0_STLB_writeback_miss 0
Core_0_STLB_writeback_MPKI 0
Core_0_STLB_writeback_miss_rate 0
Core_0_STLB_prefetch_requested 0
Core_0_STLB_prefetch_issued 0
Core_0_STLB_prefetch_useful 0
Core_0_STLB_prefetch_useless 0
Core_0_STLB_prefetch_late 0
Core_0_STLB_prefetch_accuracy 0
Core_0_STLB_prefetch_coverage 0

Core_0_L1I_total_access 373126
Core_0_L1I_total_hit 373126
Core_0_L1I_total_miss 0
Core_0_L1I_total_MPKI 0
Core_0_L1I_total_miss_rate 0
Core_0_L1I_demand_access 373126
Core_0_L1I_demand_hit 373126
Core_0_L1I_demand_miss 0
Core_0_L1I_demand_MPKI 0
Core_0_L1I_demand_miss_rate 0
Core_0_L1I_load_access 373126
Core_0_L1I_load_hit 373126
Core_0_L1I_load_miss 0
Core_0_L1I_load_MPKI 0
Core_0_L1I_load_miss_rate 0
Core_0_L1I_rfo_access 0
Core_0_L1I_rfo_hit 0
Core_0_L1I_rfo_miss 0
Core_0_L1I_rfo_MPKI 0
Core_0_L1I_rfo_miss_rate 0
Core_0_L1I_prefetch_access 0
Core_0_L1I_prefetch_hit 0
Core_0_L1I_prefetch_miss 0
Core_0_L1I_prefetch_MPKI 0
Core_0_L1I_prefetch_miss_rate 0
Core_0_L1I_writeback_access 0
Core_0_L1I_writeback_hit 0
Core_0_L1I_writeback_miss 0
Core_0_L1I_writeback_MPKI 0
Core_0_L1I_writeback_miss_rate 0
Core_0_L1I_prefetch_requested 0
Core_0_L1I_prefetch_issued 0
Core_0_L1I_prefetch_useful 0
Core_0_L1I_prefetch_useless 0
Core_0_L1I_prefetch_late 0
Core_0_L1I_prefetch_accuracy 0
Core_0_L1I_prefetch_coverage 0

Core_0_L1D_total_access 11577394
Core_0_L1D_total_hit 11291505
Core_0_L1D_total_miss 285889
Core_0_L1D_total_MPKI 5.71778
Core_0_L1D_total_miss_rate 0.0246937
Core_0_L1D_demand_access 7403973
Core_0_L1D_demand_hit 7290523
Core_0_L1D_demand_miss 113450
Core_0_L1D_demand_MPKI 2.269
Core_0_L1D_demand_miss_rate 0.0153229
Core_0_L1D_load_access 7403973
Core_0_L1D_load_hit 7290523
Core_0_L1D_load_miss 113450
Core_0_L1D_load_MPKI 2.269
Core_0_L1D_load_miss_rate 0.0153229
Core_0_L1D_rfo_access 0
Core_0_L1D_rfo_hit 0
Core_0_L1D_rfo_miss 0
Core_0_L1D_rfo_MPKI 0
Core_0_L1D_rfo_miss_rate 0
Core_0_L1D_prefetch_access 134020
Core_0_L1D_prefetch_hit 3958
Core_0_L1D_prefetch_miss 130062
Core_0_L1D_prefetch_MPKI 2.60124
Core_0_L1D_prefetch_miss_rate 0.970467
Core_0_L1D_writeback_access 4039401
Core_0_L1D_writeback_hit 3997024
Core_0_L1D_writeback_miss 42377
Core_0_L1D_writeback_MPKI 0.84754
Core_0_L1D_writeback_miss_rate 0.0104909
Core_0_L1D_prefetch_requested 134020
Core_0_L1D_prefetch_issued 134020
Core_0_L1D_prefetch_useful 129431
Core_0_L1D_prefetch_useless 158
Core_0_L1D_prefetch_late 655
Core_0_L1D_prefetch_accuracy 0.965759
Core_0_L1D_prefetch_coverage 0.532899

Core_0_L2C_total_access 966207
Core_0_L2C_total_hit 666556
Core_0_L2C_total_miss 299651
Core_0_L2C_total_MPKI 5.99302
Core_0_L2C_total_miss_rate 0.310131
Core_0_L2C_demand_access 33757
Core_0_L2C_demand_hit 14635
Core_0_L2C_demand_miss 19122
Core_0_L2C_demand_MPKI 0.38244
Core_0_L2C_demand_miss_rate 0.56646
Core_0_L2C_load_access 21605
Core_0_L2C_load_hit 14531
Core_0_L2C_load_miss 7074
Core_0_L2C_load_MPKI 0.14148
Core_0_L2C_load_miss_rate 0.327424
Core_0_L2C_rfo_access 12152
Core_0_L2C_rfo_hit 104
Core_0_L2C_rfo_miss 12048
Core_0_L2C_rfo_MPKI 0.24096
Core_0_L2C_rfo_miss_rate 0.991442
Core_0_L2C_prefetch_access 806832
Core_0_L2C_prefetch_hit 526305
Core_0_L2C_prefetch_miss 280527
Core_0_L2C_prefetch_MPKI 5.61054
Core_0_L2C_prefetch_miss_rate 0.347689
Core_0_L2C_writeback_access 125618
Core_0_L2C_writeback_hit 125616
Core_0_L2C_writeback_miss 2
Core_0_L2C_writeback_MPKI 4e-05
Core_0_L2C_writeback_miss_rate 1.59213e-05
Core_0_L2C_prefetch_requested 681637
Core_0_L2C_prefetch_issued 677237
Core_0_L2C_prefetch_useful 134967
Core_0_L2C_prefetch_useless 873
Core_0_L2C_prefetch_late 481
Core_0_L2C_prefetch_accuracy 0.199291
Core_0_L2C_prefetch_coverage 0.875903

Core_0_LLC_total_access 287966
Core_0_LLC_total_hit 109747
Core_0_LLC_total_miss 178219
Core_0_LLC_total_MPKI 3.56438
Core_0_LLC_total_miss_rate 0.618889
Core_0_LLC_demand_access 18641
Core_0_LLC_demand_hit 8
Core_0_LLC_demand_miss 18633
Core_0_LLC_demand_MPKI 0.37266
Core_0_LLC_demand_miss_rate 0.999571
Core_0_LLC_load_access 6593
Core_0_LLC_load_hit 0
Core_0_LLC_load_miss 6593
Core_0_LLC_load_MPKI 0.13186
Core_0_LLC_load_miss_rate 1
Core_0_LLC_rfo_access 12048
Core_0_LLC_rfo_hit 8
Core_0_LLC_rfo_miss 12040
Core_0_LLC_rfo_MPKI 0.2408
Core_0_LLC_rfo_miss_rate 0.999336
Core_0_LLC_prefetch_access 144444
Core_0_LLC_prefetch_hit 16
Core_0_LLC_prefetch_miss 144428
Core_0_LLC_prefetch_MPKI 2.88856
Core_0_LLC_prefetch_miss_rate 0.999889
Core_0_LLC_writeback_access 124881
Core_0_LLC_writeback_hit 109723
Core_0_LLC_writeback_miss 15158
Core_0_LLC_writeback_MPKI 0.30316
Core_0_LLC_writeback_miss_rate 0.12138
Core_0_LLC_prefetch_requested 0
Core_0_LLC_prefetch_issued 0
Core_0_LLC_prefetch_useful 0
Core_0_LLC_prefetch_useless 0
Core_0_LLC_prefetch_late 0
Core_0_LLC_prefetch_accuracy 0
Core_0_LLC_prefetch_coverage 0

[DRAM Statistics]
Channel_0_RQ_row_buffer_hit 6673
Channel_0_RQ_row_buffer_miss 156712
Channel_0_WQ_row_buffer_hit 25514
Channel_0_WQ_row_buffer_miss 97830
Channel_0_WQ_full 0
Channel_0_dbus_congested 762557
DRAM_total_RQ_row_buffer_hit 6673
DRAM_total_RQ_row_buffer_miss 156712
DRAM_total_WQ_row_buffer_hit 25514
DRAM_total_WQ_row_buffer_miss 97830
DRAM_total_WQ_full 0
DRAM_total_dbus_congested 762557
DRAM_avg_congested_cycle 10.5676

======STLB miss causes ========
Core_0_STLB_miss_cause_breakdown
Core_0_STLB_cause_Demand_Data_miss 2506
Core_0_STLB_cause_Demand_Data_miss_rate 0.976998
Core_0_STLB_cause_Demand_Instruction_miss 0
Core_0_STLB_cause_Demand_Instruction_miss_rate 0
Core_0_STLB_cause_L1D_Prefetch_miss 43
Core_0_STLB_cause_L1D_Prefetch_miss_rate 0.0167641
Core_0_STLB_cause_L1I_Prefetch_miss 0
Core_0_STLB_cause_L1I_Prefetch_miss_rate 0
Core_0_STLB_cause_Other_miss 0
Core_0_STLB_cause_Other_miss_rate 0
Core_0_STLB_Demand_miss 2506
Core_0_STLB_Demand_miss_rate 0.976998
Core_0_STLB_L1D_Prefetch_miss 43
Core_0_STLB_L1D_Prefetch_miss_rate 0.0167641
Core_0_STLB_Other_miss 0
Core_0_STLB_Other_miss_rate 0
