[VMEM] WARNING: physical memory size is smaller than virtual memory size.

*** ChampSim Multicore Out-of-Order Simulator ***
Warmup Instructions: 20000000
Simulation Instructions: 50000000
Number of CPUs: 1
Page size: 4096
Core 0: /data0/tzh/champsim_traces/Ligra/ligra_PageRank.com-lj.ungraph.gcc_6.3.0_O3.drop_21750M.length_250M.champsimtrace.xz
 L1D Berti prefetcher
Off-chip DRAM Size: 4 GiB Channels: 1 Width: 64-bit Data Rate: 3205 MT/s
Warmup halting CPU 0 at instruction 20000004 cycle 5445777 for remainder of phase
Warmup finished CPU 0 instructions: 20000004 cycles: 5445777 cumulative IPC: 3.673 (Simulation time: 00 hr 01 min 43 sec)
Warmup complete CPU 0 instructions: 20000004 cycles: 5445777 cumulative IPC: 3.673 (Simulation time: 00 hr 01 min 43 sec)
Simulation finished CPU 0 instructions: 50000002 cycles: 87146870 cumulative IPC: 0.5737 (Simulation time: 00 hr 13 min 22 sec)
Simulation complete CPU 0 instructions: 50000002 cycles: 87146870 cumulative IPC: 0.5737 (Simulation time: 00 hr 13 min 22 sec)

ChampSim completed all CPUs

=== Simulation ===
CPU 0 runs /data0/tzh/champsim_traces/Ligra/ligra_PageRank.com-lj.ungraph.gcc_6.3.0_O3.drop_21750M.length_250M.champsimtrace.xz

Region of Interest Statistics

CPU 0 cumulative IPC: 0.5737 instructions: 50000002 cycles: 87146870
CPU 0 Branch Prediction Accuracy: 96.42% MPKI: 3.982 Average ROB Occupancy at Mispredict: 247.7
Branch type MPKI
BRANCH_DIRECT_JUMP: 0
BRANCH_INDIRECT: 0
BRANCH_CONDITIONAL: 3.982
BRANCH_DIRECT_CALL: 0
BRANCH_INDIRECT_CALL: 0
BRANCH_RETURN: 0

cpu0->cpu0_STLB TOTAL        ACCESS:    4006486 HIT:    2662401 MISS:    1344085 MSHR_MERGE:          0
cpu0->cpu0_STLB LOAD         ACCESS:    4006486 HIT:    2662401 MISS:    1344085 MSHR_MERGE:          0
cpu0->cpu0_STLB RFO          ACCESS:          0 HIT:          0 MISS:          0 MSHR_MERGE:          0
cpu0->cpu0_STLB PREFETCH     ACCESS:          0 HIT:          0 MISS:          0 MSHR_MERGE:          0
cpu0->cpu0_STLB WRITE        ACCESS:          0 HIT:          0 MISS:          0 MSHR_MERGE:          0
cpu0->cpu0_STLB TRANSLATION  ACCESS:          0 HIT:          0 MISS:          0 MSHR_MERGE:          0
cpu0->cpu0_STLB PREFETCH REQUESTED:          0 ISSUED:          0 USEFUL:          0 USELESS:          0 LATE:          0
cpu0->cpu0_STLB AVERAGE MISS LATENCY: 36.41 cycles
cpu0->cpu0_L2C TOTAL        ACCESS:   10892085 HIT:    3647896 MISS:    7244189 MSHR_MERGE:     231368
cpu0->cpu0_L2C LOAD         ACCESS:    3942139 HIT:     892257 MISS:    3049882 MSHR_MERGE:      33478
cpu0->cpu0_L2C RFO          ACCESS:         27 HIT:         27 MISS:          0 MSHR_MERGE:          0
cpu0->cpu0_L2C PREFETCH     ACCESS:    5892570 HIT:    1999435 MISS:    3893135 MSHR_MERGE:     197890
cpu0->cpu0_L2C WRITE        ACCESS:      24748 HIT:      24739 MISS:          9 MSHR_MERGE:          0
cpu0->cpu0_L2C TRANSLATION  ACCESS:    1032601 HIT:     731438 MISS:     301163 MSHR_MERGE:          0
cpu0->cpu0_L2C PREFETCH REQUESTED:    5466489 ISSUED:    5394906 USEFUL:     531897 USELESS:    2962689 LATE:      33478
cpu0->cpu0_L2C AVERAGE MISS LATENCY: 200.3 cycles
cpu0->cpu0_L1I TOTAL        ACCESS:    1875334 HIT:    1875334 MISS:          0 MSHR_MERGE:          0
cpu0->cpu0_L1I LOAD         ACCESS:    1875334 HIT:    1875334 MISS:          0 MSHR_MERGE:          0
cpu0->cpu0_L1I RFO          ACCESS:          0 HIT:          0 MISS:          0 MSHR_MERGE:          0
cpu0->cpu0_L1I PREFETCH     ACCESS:          0 HIT:          0 MISS:          0 MSHR_MERGE:          0
cpu0->cpu0_L1I WRITE        ACCESS:          0 HIT:          0 MISS:          0 MSHR_MERGE:          0
cpu0->cpu0_L1I TRANSLATION  ACCESS:          0 HIT:          0 MISS:          0 MSHR_MERGE:          0
cpu0->cpu0_L1I PREFETCH REQUESTED:          0 ISSUED:          0 USEFUL:          0 USELESS:          0 LATE:          0
cpu0->cpu0_L1I AVERAGE MISS LATENCY: - cycles
cpu0->cpu0_L1D TOTAL        ACCESS:   17470213 HIT:   11846592 MISS:    5623621 MSHR_MERGE:     151189
cpu0->cpu0_L1D LOAD         ACCESS:   11438963 HIT:    7366484 MISS:    4072479 MSHR_MERGE:     130340
cpu0->cpu0_L1D RFO          ACCESS:          0 HIT:          0 MISS:          0 MSHR_MERGE:          0
cpu0->cpu0_L1D PREFETCH     ACCESS:     911021 HIT:     408149 MISS:     502872 MSHR_MERGE:       5208
cpu0->cpu0_L1D WRITE        ACCESS:    2461967 HIT:    2461901 MISS:         66 MSHR_MERGE:         38
cpu0->cpu0_L1D TRANSLATION  ACCESS:    2658262 HIT:    1610058 MISS:    1048204 MSHR_MERGE:      15603
cpu0->cpu0_L1D PREFETCH REQUESTED:     930185 ISSUED:     911019 USEFUL:     192434 USELESS:     305246 LATE:       3174
cpu0->cpu0_L1D AVERAGE MISS LATENCY: 144.5 cycles
cpu0->cpu0_ITLB TOTAL        ACCESS:    1797833 HIT:    1797833 MISS:          0 MSHR_MERGE:          0
cpu0->cpu0_ITLB LOAD         ACCESS:    1797833 HIT:    1797833 MISS:          0 MSHR_MERGE:          0
cpu0->cpu0_ITLB RFO          ACCESS:          0 HIT:          0 MISS:          0 MSHR_MERGE:          0
cpu0->cpu0_ITLB PREFETCH     ACCESS:          0 HIT:          0 MISS:          0 MSHR_MERGE:          0
cpu0->cpu0_ITLB WRITE        ACCESS:          0 HIT:          0 MISS:          0 MSHR_MERGE:          0
cpu0->cpu0_ITLB TRANSLATION  ACCESS:          0 HIT:          0 MISS:          0 MSHR_MERGE:          0
cpu0->cpu0_ITLB PREFETCH REQUESTED:          0 ISSUED:          0 USEFUL:          0 USELESS:          0 LATE:          0
cpu0->cpu0_ITLB AVERAGE MISS LATENCY: - cycles
cpu0->cpu0_DTLB TOTAL        ACCESS:   14608235 HIT:   10316283 MISS:    4291952 MSHR_MERGE:     285465
cpu0->cpu0_DTLB LOAD         ACCESS:   14608235 HIT:   10316283 MISS:    4291952 MSHR_MERGE:     285465
cpu0->cpu0_DTLB RFO          ACCESS:          0 HIT:          0 MISS:          0 MSHR_MERGE:          0
cpu0->cpu0_DTLB PREFETCH     ACCESS:          0 HIT:          0 MISS:          0 MSHR_MERGE:          0
cpu0->cpu0_DTLB WRITE        ACCESS:          0 HIT:          0 MISS:          0 MSHR_MERGE:          0
cpu0->cpu0_DTLB TRANSLATION  ACCESS:          0 HIT:          0 MISS:          0 MSHR_MERGE:          0
cpu0->cpu0_DTLB PREFETCH REQUESTED:          0 ISSUED:          0 USEFUL:          0 USELESS:          0 LATE:          0
cpu0->cpu0_DTLB AVERAGE MISS LATENCY: 17.58 cycles
cpu0->LLC TOTAL        ACCESS:    7037519 HIT:    2351231 MISS:    4686288 MSHR_MERGE:          0
cpu0->LLC LOAD         ACCESS:    3016404 HIT:     950388 MISS:    2066016 MSHR_MERGE:          0
cpu0->LLC RFO          ACCESS:          0 HIT:          0 MISS:          0 MSHR_MERGE:          0
cpu0->LLC PREFETCH     ACCESS:    3695245 HIT:    1103649 MISS:    2591596 MSHR_MERGE:          0
cpu0->LLC WRITE        ACCESS:      24707 HIT:       5252 MISS:      19455 MSHR_MERGE:          0
cpu0->LLC TRANSLATION  ACCESS:     301163 HIT:     291942 MISS:       9221 MSHR_MERGE:          0
cpu0->LLC PREFETCH REQUESTED:          0 ISSUED:          0 USEFUL:          0 USELESS:          0 LATE:          0
cpu0->LLC AVERAGE MISS LATENCY: 292.3 cycles

DRAM Statistics

Channel 0 RQ ROW_BUFFER_HIT:       9702
  ROW_BUFFER_MISS:    4657130
  AVG DBUS CONGESTED CYCLE: 3.084
Channel 0 WQ ROW_BUFFER_HIT:       1796
  ROW_BUFFER_MISS:      22369
  FULL:          0
Channel 0 REFRESHES ISSUED:       7263

[ROI Statistics]
[System Configuration]
num_cpus 1
cpu_freq 4000
fetch_width 6
decode_width 6
dispatch_width 6
execute_width 6
lq_width 2
sq_width 2
retire_width 6
scheduler_size 160
branch_mispredict_penalty 1
rob_size 352
lq_size 240
sq_size 112
ifetch_buffer_size 64
decode_buffer_size 32
dispatch_buffer_size 32
register_file_size 288
decode_latency 1
dispatch_latency 1
schedule_latency 0
execute_latency 0
page_size 4096
block_size 64
core_0_itlb_set 16
core_0_itlb_way 4
core_0_itlb_rq_size 16
core_0_itlb_wq_size 16
core_0_itlb_pq_size 0
core_0_itlb_mshr_size 8
core_0_itlb_hit_latency 1
core_0_itlb_fill_latency 1
core_0_itlb_max_tag_check 2
core_0_itlb_max_fill 2
core_0_dtlb_set 16
core_0_dtlb_way 4
core_0_dtlb_rq_size 16
core_0_dtlb_wq_size 16
core_0_dtlb_pq_size 0
core_0_dtlb_mshr_size 8
core_0_dtlb_hit_latency 1
core_0_dtlb_fill_latency 1
core_0_dtlb_max_tag_check 2
core_0_dtlb_max_fill 2
core_0_stlb_set 128
core_0_stlb_way 12
core_0_stlb_rq_size 32
core_0_stlb_wq_size 32
core_0_stlb_pq_size 0
core_0_stlb_mshr_size 16
core_0_stlb_hit_latency 4
core_0_stlb_fill_latency 4
core_0_stlb_max_tag_check 1
core_0_stlb_max_fill 1
core_0_l1i_set 64
core_0_l1i_way 8
core_0_l1i_rq_size 64
core_0_l1i_wq_size 64
core_0_l1i_pq_size 32
core_0_l1i_mshr_size 8
core_0_l1i_hit_latency 2
core_0_l1i_fill_latency 2
core_0_l1i_max_tag_check 2
core_0_l1i_max_fill 2
core_0_l1d_set 64
core_0_l1d_way 12
core_0_l1d_rq_size 64
core_0_l1d_wq_size 64
core_0_l1d_pq_size 8
core_0_l1d_mshr_size 16
core_0_l1d_hit_latency 2
core_0_l1d_fill_latency 3
core_0_l1d_max_tag_check 2
core_0_l1d_max_fill 2
core_0_l2c_set 1024
core_0_l2c_way 8
core_0_l2c_rq_size 32
core_0_l2c_wq_size 32
core_0_l2c_pq_size 16
core_0_l2c_mshr_size 32
core_0_l2c_hit_latency 5
core_0_l2c_fill_latency 5
core_0_l2c_max_tag_check 1
core_0_l2c_max_fill 1
llc_set 2048
llc_way 16
llc_rq_size 32
llc_wq_size 32
llc_pq_size 32
llc_mshr_size 64
llc_hit_latency 10
llc_fill_latency 10
llc_max_tag_check 1
llc_max_fill 1
dram_channels 1
dram_ranks 1
dram_bankgroups 8
dram_banks 4
dram_rows 16384
dram_columns 1024
dram_channel_width 8
dram_rq_size 64
dram_wq_size 64
dram_size 4294967296
core_0_itlb_prefetcher no
core_0_dtlb_prefetcher no
core_0_stlb_prefetcher no
core_0_l1i_prefetcher next_line
core_0_l1d_prefetcher berti
core_0_l2c_prefetcher pythia
llc_prefetcher no
llc_replacement drrip

Core_0_instructions 50000002
Core_0_cycles 87146870
Core_0_IPC 0.573744
Core_0_branch_prediction_accuracy 96.4221
Core_0_branch_MPKI 3.98222
Core_0_average_ROB_occupancy_at_mispredict 247.706

Core_0_ITLB_total_access 1797833
Core_0_ITLB_total_hit 1797833
Core_0_ITLB_total_miss 0
Core_0_ITLB_total_MPKI 0
Core_0_ITLB_total_miss_rate 0
Core_0_ITLB_demand_access 1797833
Core_0_ITLB_demand_hit 1797833
Core_0_ITLB_demand_miss 0
Core_0_ITLB_demand_MPKI 0
Core_0_ITLB_demand_miss_rate 0
Core_0_ITLB_load_access 1797833
Core_0_ITLB_load_hit 1797833
Core_0_ITLB_load_miss 0
Core_0_ITLB_load_MPKI 0
Core_0_ITLB_load_miss_rate 0
Core_0_ITLB_rfo_access 0
Core_0_ITLB_rfo_hit 0
Core_0_ITLB_rfo_miss 0
Core_0_ITLB_rfo_MPKI 0
Core_0_ITLB_rfo_miss_rate 0
Core_0_ITLB_prefetch_access 0
Core_0_ITLB_prefetch_hit 0
Core_0_ITLB_prefetch_miss 0
Core_0_ITLB_prefetch_MPKI 0
Core_0_ITLB_prefetch_miss_rate 0
Core_0_ITLB_writeback_access 0
Core_0_ITLB_writeback_hit 0
Core_0_ITLB_writeback_miss 0
Core_0_ITLB_writeback_MPKI 0
Core_0_ITLB_writeback_miss_rate 0
Core_0_ITLB_prefetch_requested 0
Core_0_ITLB_prefetch_issued 0
Core_0_ITLB_prefetch_useful 0
Core_0_ITLB_prefetch_useless 0
Core_0_ITLB_prefetch_late 0
Core_0_ITLB_prefetch_accuracy 0
Core_0_ITLB_prefetch_coverage 0

Core_0_DTLB_total_access 14608235
Core_0_DTLB_total_hit 10316283
Core_0_DTLB_total_miss 4291952
Core_0_DTLB_total_MPKI 85.839
Core_0_DTLB_total_miss_rate 0.293804
Core_0_DTLB_demand_access 14608235
Core_0_DTLB_demand_hit 10316283
Core_0_DTLB_demand_miss 4291952
Core_0_DTLB_demand_MPKI 85.839
Core_0_DTLB_demand_miss_rate 0.293804
Core_0_DTLB_load_access 14608235
Core_0_DTLB_load_hit 10316283
Core_0_DTLB_load_miss 4291952
Core_0_DTLB_load_MPKI 85.839
Core_0_DTLB_load_miss_rate 0.293804
Core_0_DTLB_rfo_access 0
Core_0_DTLB_rfo_hit 0
Core_0_DTLB_rfo_miss 0
Core_0_DTLB_rfo_MPKI 0
Core_0_DTLB_rfo_miss_rate 0
Core_0_DTLB_prefetch_access 0
Core_0_DTLB_prefetch_hit 0
Core_0_DTLB_prefetch_miss 0
Core_0_DTLB_prefetch_MPKI 0
Core_0_DTLB_prefetch_miss_rate 0
Core_0_DTLB_writeback_access 0
Core_0_DTLB_writeback_hit 0
Core_0_DTLB_writeback_miss 0
Core_0_DTLB_writeback_MPKI 0
Core_0_DTLB_writeback_miss_rate 0
Core_0_DTLB_prefetch_requested 0
Core_0_DTLB_prefetch_issued 0
Core_0_DTLB_prefetch_useful 0
Core_0_DTLB_prefetch_useless 0
Core_0_DTLB_prefetch_late 0
Core_0_DTLB_prefetch_accuracy 0
Core_0_DTLB_prefetch_coverage 0

Core_0_STLB_total_access 4006486
Core_0_STLB_total_hit 2662401
Core_0_STLB_total_miss 1344085
Core_0_STLB_total_MPKI 26.8817
Core_0_STLB_total_miss_rate 0.335477
Core_0_STLB_demand_access 4006486
Core_0_STLB_demand_hit 2662401
Core_0_STLB_demand_miss 1344085
Core_0_STLB_demand_MPKI 26.8817
Core_0_STLB_demand_miss_rate 0.335477
Core_0_STLB_load_access 4006486
Core_0_STLB_load_hit 2662401
Core_0_STLB_load_miss 1344085
Core_0_STLB_load_MPKI 26.8817
Core_0_STLB_load_miss_rate 0.335477
Core_0_STLB_rfo_access 0
Core_0_STLB_rfo_hit 0
Core_0_STLB_rfo_miss 0
Core_0_STLB_rfo_MPKI 0
Core_0_STLB_rfo_miss_rate 0
Core_0_STLB_prefetch_access 0
Core_0_STLB_prefetch_hit 0
Core_0_STLB_prefetch_miss 0
Core_0_STLB_prefetch_MPKI 0
Core_0_STLB_prefetch_miss_rate 0
Core_0_STLB_writeback_access 0
Core_0_STLB_writeback_hit 0
Core_0_STLB_writeback_miss 0
Core_0_STLB_writeback_MPKI 0
Core_0_STLB_writeback_miss_rate 0
Core_0_STLB_prefetch_requested 0
Core_0_STLB_prefetch_issued 0
Core_0_STLB_prefetch_useful 0
Core_0_STLB_prefetch_useless 0
Core_0_STLB_prefetch_late 0
Core_0_STLB_prefetch_accuracy 0
Core_0_STLB_prefetch_coverage 0

Core_0_L1I_total_access 1875334
Core_0_L1I_total_hit 1875334
Core_0_L1I_total_miss 0
Core_0_L1I_total_MPKI 0
Core_0_L1I_total_miss_rate 0
Core_0_L1I_demand_access 1875334
Core_0_L1I_demand_hit 1875334
Core_0_L1I_demand_miss 0
Core_0_L1I_demand_MPKI 0
Core_0_L1I_demand_miss_rate 0
Core_0_L1I_load_access 1875334
Core_0_L1I_load_hit 1875334
Core_0_L1I_load_miss 0
Core_0_L1I_load_MPKI 0
Core_0_L1I_load_miss_rate 0
Core_0_L1I_rfo_access 0
Core_0_L1I_rfo_hit 0
Core_0_L1I_rfo_miss 0
Core_0_L1I_rfo_MPKI 0
Core_0_L1I_rfo_miss_rate 0
Core_0_L1I_prefetch_access 0
Core_0_L1I_prefetch_hit 0
Core_0_L1I_prefetch_miss 0
Core_0_L1I_prefetch_MPKI 0
Core_0_L1I_prefetch_miss_rate 0
Core_0_L1I_writeback_access 0
Core_0_L1I_writeback_hit 0
Core_0_L1I_writeback_miss 0
Core_0_L1I_writeback_MPKI 0
Core_0_L1I_writeback_miss_rate 0
Core_0_L1I_prefetch_requested 0
Core_0_L1I_prefetch_issued 0
Core_0_L1I_prefetch_useful 0
Core_0_L1I_prefetch_useless 0
Core_0_L1I_prefetch_late 0
Core_0_L1I_prefetch_accuracy 0
Core_0_L1I_prefetch_coverage 0

Core_0_L1D_total_access 14811951
Core_0_L1D_total_hit 10236534
Core_0_L1D_total_miss 4575417
Core_0_L1D_total_MPKI 91.5083
Core_0_L1D_total_miss_rate 0.3089
Core_0_L1D_demand_access 11438963
Core_0_L1D_demand_hit 7366484
Core_0_L1D_demand_miss 4072479
Core_0_L1D_demand_MPKI 81.4496
Core_0_L1D_demand_miss_rate 0.356018
Core_0_L1D_load_access 11438963
Core_0_L1D_load_hit 7366484
Core_0_L1D_load_miss 4072479
Core_0_L1D_load_MPKI 81.4496
Core_0_L1D_load_miss_rate 0.356018
Core_0_L1D_rfo_access 0
Core_0_L1D_rfo_hit 0
Core_0_L1D_rfo_miss 0
Core_0_L1D_rfo_MPKI 0
Core_0_L1D_rfo_miss_rate 0
Core_0_L1D_prefetch_access 911021
Core_0_L1D_prefetch_hit 408149
Core_0_L1D_prefetch_miss 502872
Core_0_L1D_prefetch_MPKI 10.0574
Core_0_L1D_prefetch_miss_rate 0.551987
Core_0_L1D_writeback_access 2461967
Core_0_L1D_writeback_hit 2461901
Core_0_L1D_writeback_miss 66
Core_0_L1D_writeback_MPKI 0.00132
Core_0_L1D_writeback_miss_rate 2.68078e-05
Core_0_L1D_prefetch_requested 930185
Core_0_L1D_prefetch_issued 911019
Core_0_L1D_prefetch_useful 192434
Core_0_L1D_prefetch_useless 305246
Core_0_L1D_prefetch_late 3174
Core_0_L1D_prefetch_accuracy 0.211229
Core_0_L1D_prefetch_coverage 0.0451203

Core_0_L2C_total_access 9859484
Core_0_L2C_total_hit 2916458
Core_0_L2C_total_miss 6943026
Core_0_L2C_total_MPKI 138.861
Core_0_L2C_total_miss_rate 0.704198
Core_0_L2C_demand_access 3942166
Core_0_L2C_demand_hit 892284
Core_0_L2C_demand_miss 3049882
Core_0_L2C_demand_MPKI 60.9976
Core_0_L2C_demand_miss_rate 0.773656
Core_0_L2C_load_access 3942139
Core_0_L2C_load_hit 892257
Core_0_L2C_load_miss 3049882
Core_0_L2C_load_MPKI 60.9976
Core_0_L2C_load_miss_rate 0.773662
Core_0_L2C_rfo_access 27
Core_0_L2C_rfo_hit 27
Core_0_L2C_rfo_miss 0
Core_0_L2C_rfo_MPKI 0
Core_0_L2C_rfo_miss_rate 0
Core_0_L2C_prefetch_access 5892570
Core_0_L2C_prefetch_hit 1999435
Core_0_L2C_prefetch_miss 3893135
Core_0_L2C_prefetch_MPKI 77.8627
Core_0_L2C_prefetch_miss_rate 0.660685
Core_0_L2C_writeback_access 24748
Core_0_L2C_writeback_hit 24739
Core_0_L2C_writeback_miss 9
Core_0_L2C_writeback_MPKI 0.00018
Core_0_L2C_writeback_miss_rate 0.000363666
Core_0_L2C_prefetch_requested 5466489
Core_0_L2C_prefetch_issued 5394906
Core_0_L2C_prefetch_useful 531897
Core_0_L2C_prefetch_useless 2962689
Core_0_L2C_prefetch_late 33478
Core_0_L2C_prefetch_accuracy 0.0985924
Core_0_L2C_prefetch_coverage 0.148501

Core_0_LLC_total_access 6736356
Core_0_LLC_total_hit 2059289
Core_0_LLC_total_miss 4677067
Core_0_LLC_total_MPKI 93.5413
Core_0_LLC_total_miss_rate 0.694302
Core_0_LLC_demand_access 3016404
Core_0_LLC_demand_hit 950388
Core_0_LLC_demand_miss 2066016
Core_0_LLC_demand_MPKI 41.3203
Core_0_LLC_demand_miss_rate 0.684927
Core_0_LLC_load_access 3016404
Core_0_LLC_load_hit 950388
Core_0_LLC_load_miss 2066016
Core_0_LLC_load_MPKI 41.3203
Core_0_LLC_load_miss_rate 0.684927
Core_0_LLC_rfo_access 0
Core_0_LLC_rfo_hit 0
Core_0_LLC_rfo_miss 0
Core_0_LLC_rfo_MPKI 0
Core_0_LLC_rfo_miss_rate 0
Core_0_LLC_prefetch_access 3695245
Core_0_LLC_prefetch_hit 1103649
Core_0_LLC_prefetch_miss 2591596
Core_0_LLC_prefetch_MPKI 51.8319
Core_0_LLC_prefetch_miss_rate 0.701333
Core_0_LLC_writeback_access 24707
Core_0_LLC_writeback_hit 5252
Core_0_LLC_writeback_miss 19455
Core_0_LLC_writeback_MPKI 0.3891
Core_0_LLC_writeback_miss_rate 0.787429
Core_0_LLC_prefetch_requested 0
Core_0_LLC_prefetch_issued 0
Core_0_LLC_prefetch_useful 0
Core_0_LLC_prefetch_useless 0
Core_0_LLC_prefetch_late 0
Core_0_LLC_prefetch_accuracy 0
Core_0_LLC_prefetch_coverage 0

[DRAM Statistics]
Channel_0_RQ_row_buffer_hit 9702
Channel_0_RQ_row_buffer_miss 4657130
Channel_0_WQ_row_buffer_hit 1796
Channel_0_WQ_row_buffer_miss 22369
Channel_0_WQ_full 0
Channel_0_dbus_congested 9685168
DRAM_total_RQ_row_buffer_hit 9702
DRAM_total_RQ_row_buffer_miss 4657130
DRAM_total_WQ_row_buffer_hit 1796
DRAM_total_WQ_row_buffer_miss 22369
DRAM_total_WQ_full 0
DRAM_total_dbus_congested 9685168
DRAM_avg_congested_cycle 3.08363

======STLB miss causes ========
Core_0_STLB_miss_cause_breakdown
Core_0_STLB_cause_Demand_Data_miss 1331004
Core_0_STLB_cause_Demand_Data_miss_rate 0.332212
Core_0_STLB_cause_Demand_Instruction_miss 0
Core_0_STLB_cause_Demand_Instruction_miss_rate 0
Core_0_STLB_cause_L1D_Prefetch_miss 13081
Core_0_STLB_cause_L1D_Prefetch_miss_rate 0.00326496
Core_0_STLB_cause_L1I_Prefetch_miss 0
Core_0_STLB_cause_L1I_Prefetch_miss_rate 0
Core_0_STLB_cause_Other_miss 0
Core_0_STLB_cause_Other_miss_rate 0
Core_0_STLB_Demand_miss 1331004
Core_0_STLB_Demand_miss_rate 0.332212
Core_0_STLB_L1D_Prefetch_miss 13081
Core_0_STLB_L1D_Prefetch_miss_rate 0.00326496
Core_0_STLB_Other_miss 0
Core_0_STLB_Other_miss_rate 0
