[VMEM] WARNING: physical memory size is smaller than virtual memory size.

*** ChampSim Multicore Out-of-Order Simulator ***
Warmup Instructions: 50000000
Simulation Instructions: 100000000
Number of CPUs: 1
Page size: 4096
STLB ideal mode: all
Core 0: /data0/tzh/champsim_traces/SPEC06/483.xalancbmk-716B.champsimtrace.xz
 L1D Berti prefetcher
Off-chip DRAM Size: 16 GiB Channels: 1 Width: 64-bit Data Rate: 3205 MT/s
Warmup halting CPU 0 at instruction 50000002 cycle 10327991 for remainder of phase
Warmup finished CPU 0 instructions: 50000002 cycles: 10327991 cumulative IPC: 4.841 (Simulation time: 00 hr 02 min 34 sec)
Warmup complete CPU 0 instructions: 50000002 cycles: 10327991 cumulative IPC: 4.841 (Simulation time: 00 hr 02 min 34 sec)
Simulation finished CPU 0 instructions: 100000003 cycles: 61952313 cumulative IPC: 1.614 (Simulation time: 00 hr 12 min 51 sec)
Simulation complete CPU 0 instructions: 100000003 cycles: 61952313 cumulative IPC: 1.614 (Simulation time: 00 hr 12 min 51 sec)

ChampSim completed all CPUs

=== Simulation ===
CPU 0 runs /data0/tzh/champsim_traces/SPEC06/483.xalancbmk-716B.champsimtrace.xz

Region of Interest Statistics

CPU 0 cumulative IPC: 1.614 instructions: 100000003 cycles: 61952313
CPU 0 Branch Prediction Accuracy: 97.54% MPKI: 6.114 Average ROB Occupancy at Mispredict: 49.12
Branch type MPKI
BRANCH_DIRECT_JUMP: 0.00348
BRANCH_INDIRECT: 0.3228
BRANCH_CONDITIONAL: 3.332
BRANCH_DIRECT_CALL: 0.1122
BRANCH_INDIRECT_CALL: 0.4646
BRANCH_RETURN: 1.878

cpu0->cpu0_STLB TOTAL        ACCESS:     903085 HIT:     903085 MISS:          0 MSHR_MERGE:          0
cpu0->cpu0_STLB LOAD         ACCESS:     903085 HIT:     903085 MISS:          0 MSHR_MERGE:          0
cpu0->cpu0_STLB RFO          ACCESS:          0 HIT:          0 MISS:          0 MSHR_MERGE:          0
cpu0->cpu0_STLB PREFETCH     ACCESS:          0 HIT:          0 MISS:          0 MSHR_MERGE:          0
cpu0->cpu0_STLB WRITE        ACCESS:          0 HIT:          0 MISS:          0 MSHR_MERGE:          0
cpu0->cpu0_STLB TRANSLATION  ACCESS:          0 HIT:          0 MISS:          0 MSHR_MERGE:          0
cpu0->cpu0_STLB PREFETCH REQUESTED:          0 ISSUED:          0 USEFUL:          0 USELESS:          0 LATE:          0
cpu0->cpu0_STLB AVERAGE MISS LATENCY: - cycles
cpu0->cpu0_L2C TOTAL        ACCESS:    2196495 HIT:    1718999 MISS:     477496 MSHR_MERGE:      55077
cpu0->cpu0_L2C LOAD         ACCESS:     523283 HIT:     416005 MISS:     107278 MSHR_MERGE:       2699
cpu0->cpu0_L2C RFO          ACCESS:     150902 HIT:      19171 MISS:     131731 MSHR_MERGE:        188
cpu0->cpu0_L2C PREFETCH     ACCESS:    1265574 HIT:    1027435 MISS:     238139 MSHR_MERGE:      52190
cpu0->cpu0_L2C WRITE        ACCESS:     256736 HIT:     256388 MISS:        348 MSHR_MERGE:          0
cpu0->cpu0_L2C TRANSLATION  ACCESS:          0 HIT:          0 MISS:          0 MSHR_MERGE:          0
cpu0->cpu0_L2C PREFETCH REQUESTED:    1038638 ISSUED:    1033248 USEFUL:      52337 USELESS:      96785 LATE:       2887
cpu0->cpu0_L2C AVERAGE MISS LATENCY: 166.4 cycles
cpu0->cpu0_L1I TOTAL        ACCESS:   15175820 HIT:   15036866 MISS:     138954 MSHR_MERGE:      29525
cpu0->cpu0_L1I LOAD         ACCESS:   15175820 HIT:   15036866 MISS:     138954 MSHR_MERGE:      29525
cpu0->cpu0_L1I RFO          ACCESS:          0 HIT:          0 MISS:          0 MSHR_MERGE:          0
cpu0->cpu0_L1I PREFETCH     ACCESS:          0 HIT:          0 MISS:          0 MSHR_MERGE:          0
cpu0->cpu0_L1I WRITE        ACCESS:          0 HIT:          0 MISS:          0 MSHR_MERGE:          0
cpu0->cpu0_L1I TRANSLATION  ACCESS:          0 HIT:          0 MISS:          0 MSHR_MERGE:          0
cpu0->cpu0_L1I PREFETCH REQUESTED:          0 ISSUED:          0 USEFUL:          0 USELESS:          0 LATE:          0
cpu0->cpu0_L1I AVERAGE MISS LATENCY: 20.86 cycles
cpu0->cpu0_L1D TOTAL        ACCESS:   26867383 HIT:   25151141 MISS:    1716242 MSHR_MERGE:     919148
cpu0->cpu0_L1D LOAD         ACCESS:   16216341 HIT:   15652289 MISS:     564052 MSHR_MERGE:     150196
cpu0->cpu0_L1D RFO          ACCESS:          0 HIT:          0 MISS:          0 MSHR_MERGE:          0
cpu0->cpu0_L1D PREFETCH     ACCESS:    1337488 HIT:    1084335 MISS:     253153 MSHR_MERGE:      20823
cpu0->cpu0_L1D WRITE        ACCESS:    9313554 HIT:    8414517 MISS:     899037 MSHR_MERGE:     748129
cpu0->cpu0_L1D TRANSLATION  ACCESS:          0 HIT:          0 MISS:          0 MSHR_MERGE:          0
cpu0->cpu0_L1D PREFETCH REQUESTED:    1354751 ISSUED:    1337485 USEFUL:     177070 USELESS:      55236 LATE:      12554
cpu0->cpu0_L1D AVERAGE MISS LATENCY: 75.81 cycles
cpu0->cpu0_ITLB TOTAL        ACCESS:   14004469 HIT:   13809585 MISS:     194884 MSHR_MERGE:      98774
cpu0->cpu0_ITLB LOAD         ACCESS:   14004469 HIT:   13809585 MISS:     194884 MSHR_MERGE:      98774
cpu0->cpu0_ITLB RFO          ACCESS:          0 HIT:          0 MISS:          0 MSHR_MERGE:          0
cpu0->cpu0_ITLB PREFETCH     ACCESS:          0 HIT:          0 MISS:          0 MSHR_MERGE:          0
cpu0->cpu0_ITLB WRITE        ACCESS:          0 HIT:          0 MISS:          0 MSHR_MERGE:          0
cpu0->cpu0_ITLB TRANSLATION  ACCESS:          0 HIT:          0 MISS:          0 MSHR_MERGE:          0
cpu0->cpu0_ITLB PREFETCH REQUESTED:          0 ISSUED:          0 USEFUL:          0 USELESS:          0 LATE:          0
cpu0->cpu0_ITLB AVERAGE MISS LATENCY: 5.004 cycles
cpu0->cpu0_DTLB TOTAL        ACCESS:   25151475 HIT:   23830685 MISS:    1320790 MSHR_MERGE:     513815
cpu0->cpu0_DTLB LOAD         ACCESS:   25151475 HIT:   23830685 MISS:    1320790 MSHR_MERGE:     513815
cpu0->cpu0_DTLB RFO          ACCESS:          0 HIT:          0 MISS:          0 MSHR_MERGE:          0
cpu0->cpu0_DTLB PREFETCH     ACCESS:          0 HIT:          0 MISS:          0 MSHR_MERGE:          0
cpu0->cpu0_DTLB WRITE        ACCESS:          0 HIT:          0 MISS:          0 MSHR_MERGE:          0
cpu0->cpu0_DTLB TRANSLATION  ACCESS:          0 HIT:          0 MISS:          0 MSHR_MERGE:          0
cpu0->cpu0_DTLB PREFETCH REQUESTED:          0 ISSUED:          0 USEFUL:          0 USELESS:          0 LATE:          0
cpu0->cpu0_DTLB AVERAGE MISS LATENCY: 5.004 cycles
cpu0->LLC TOTAL        ACCESS:     640656 HIT:     295154 MISS:     345502 MSHR_MERGE:          0
cpu0->LLC LOAD         ACCESS:     104579 HIT:      48118 MISS:      56461 MSHR_MERGE:          0
cpu0->LLC RFO          ACCESS:     131543 HIT:      18712 MISS:     112831 MSHR_MERGE:          0
cpu0->LLC PREFETCH     ACCESS:     185949 HIT:      56550 MISS:     129399 MSHR_MERGE:          0
cpu0->LLC WRITE        ACCESS:     218585 HIT:     171774 MISS:      46811 MSHR_MERGE:          0
cpu0->LLC TRANSLATION  ACCESS:          0 HIT:          0 MISS:          0 MSHR_MERGE:          0
cpu0->LLC PREFETCH REQUESTED:          0 ISSUED:          0 USEFUL:          0 USELESS:          0 LATE:          0
cpu0->LLC AVERAGE MISS LATENCY: 166.3 cycles

DRAM Statistics

Channel 0 RQ ROW_BUFFER_HIT:       2907
  ROW_BUFFER_MISS:     295753
  AVG DBUS CONGESTED CYCLE: 11.12
Channel 0 WQ ROW_BUFFER_HIT:      28419
  ROW_BUFFER_MISS:     145273
  FULL:          0
Channel 0 REFRESHES ISSUED:       5163

[ROI Statistics]
[System Configuration]
num_cpus 1
cpu_freq 4000
fetch_width 6
decode_width 6
dispatch_width 6
execute_width 6
lq_width 2
sq_width 2
retire_width 6
scheduler_size 128
branch_mispredict_penalty 15
rob_size 352
lq_size 128
sq_size 72
ifetch_buffer_size 64
decode_buffer_size 32
dispatch_buffer_size 32
register_file_size 288
decode_latency 1
dispatch_latency 1
schedule_latency 1
execute_latency 1
page_size 4096
block_size 64
core_0_itlb_set 16
core_0_itlb_way 4
core_0_itlb_rq_size 16
core_0_itlb_wq_size 16
core_0_itlb_pq_size 0
core_0_itlb_mshr_size 8
core_0_itlb_hit_latency 1
core_0_itlb_fill_latency 1
core_0_itlb_max_tag_check 2
core_0_itlb_max_fill 2
core_0_dtlb_set 16
core_0_dtlb_way 4
core_0_dtlb_rq_size 16
core_0_dtlb_wq_size 16
core_0_dtlb_pq_size 0
core_0_dtlb_mshr_size 8
core_0_dtlb_hit_latency 1
core_0_dtlb_fill_latency 1
core_0_dtlb_max_tag_check 2
core_0_dtlb_max_fill 2
core_0_stlb_set 128
core_0_stlb_way 12
core_0_stlb_rq_size 32
core_0_stlb_wq_size 32
core_0_stlb_pq_size 0
core_0_stlb_mshr_size 16
core_0_stlb_hit_latency 4
core_0_stlb_fill_latency 4
core_0_stlb_max_tag_check 1
core_0_stlb_max_fill 1
core_0_l1i_set 64
core_0_l1i_way 8
core_0_l1i_rq_size 64
core_0_l1i_wq_size 64
core_0_l1i_pq_size 32
core_0_l1i_mshr_size 8
core_0_l1i_hit_latency 2
core_0_l1i_fill_latency 2
core_0_l1i_max_tag_check 2
core_0_l1i_max_fill 2
core_0_l1d_set 64
core_0_l1d_way 12
core_0_l1d_rq_size 64
core_0_l1d_wq_size 64
core_0_l1d_pq_size 8
core_0_l1d_mshr_size 16
core_0_l1d_hit_latency 2
core_0_l1d_fill_latency 3
core_0_l1d_max_tag_check 2
core_0_l1d_max_fill 2
core_0_l2c_set 1024
core_0_l2c_way 8
core_0_l2c_rq_size 32
core_0_l2c_wq_size 32
core_0_l2c_pq_size 16
core_0_l2c_mshr_size 32
core_0_l2c_hit_latency 5
core_0_l2c_fill_latency 5
core_0_l2c_max_tag_check 1
core_0_l2c_max_fill 1
llc_set 2048
llc_way 16
llc_rq_size 32
llc_wq_size 32
llc_pq_size 32
llc_mshr_size 64
llc_hit_latency 10
llc_fill_latency 10
llc_max_tag_check 1
llc_max_fill 1
dram_channels 1
dram_ranks 1
dram_bankgroups 8
dram_banks 4
dram_rows 65536
dram_columns 1024
dram_channel_width 8
dram_rq_size 64
dram_wq_size 64
dram_size 17179869184
core_0_itlb_prefetcher no
core_0_dtlb_prefetcher no
core_0_stlb_prefetcher no
core_0_l1i_prefetcher next_line
core_0_l1d_prefetcher berti
core_0_l2c_prefetcher pythia
llc_prefetcher no
llc_replacement drrip

Core_0_instructions 100000003
Core_0_cycles 61952313
Core_0_IPC 1.61414
Core_0_branch_prediction_accuracy 97.5393
Core_0_branch_MPKI 6.11352
Core_0_average_ROB_occupancy_at_mispredict 49.1214

Core_0_ITLB_total_access 14004469
Core_0_ITLB_total_hit 13809585
Core_0_ITLB_total_miss 194884
Core_0_ITLB_total_MPKI 1.94884
Core_0_ITLB_total_miss_rate 0.0139158
Core_0_ITLB_demand_access 14004469
Core_0_ITLB_demand_hit 13809585
Core_0_ITLB_demand_miss 194884
Core_0_ITLB_demand_MPKI 1.94884
Core_0_ITLB_demand_miss_rate 0.0139158
Core_0_ITLB_load_access 14004469
Core_0_ITLB_load_hit 13809585
Core_0_ITLB_load_miss 194884
Core_0_ITLB_load_MPKI 1.94884
Core_0_ITLB_load_miss_rate 0.0139158
Core_0_ITLB_rfo_access 0
Core_0_ITLB_rfo_hit 0
Core_0_ITLB_rfo_miss 0
Core_0_ITLB_rfo_MPKI 0
Core_0_ITLB_rfo_miss_rate 0
Core_0_ITLB_prefetch_access 0
Core_0_ITLB_prefetch_hit 0
Core_0_ITLB_prefetch_miss 0
Core_0_ITLB_prefetch_MPKI 0
Core_0_ITLB_prefetch_miss_rate 0
Core_0_ITLB_writeback_access 0
Core_0_ITLB_writeback_hit 0
Core_0_ITLB_writeback_miss 0
Core_0_ITLB_writeback_MPKI 0
Core_0_ITLB_writeback_miss_rate 0
Core_0_ITLB_prefetch_requested 0
Core_0_ITLB_prefetch_issued 0
Core_0_ITLB_prefetch_useful 0
Core_0_ITLB_prefetch_useless 0
Core_0_ITLB_prefetch_late 0
Core_0_ITLB_prefetch_accuracy 0
Core_0_ITLB_prefetch_coverage 0

Core_0_DTLB_total_access 25151475
Core_0_DTLB_total_hit 23830685
Core_0_DTLB_total_miss 1320790
Core_0_DTLB_total_MPKI 13.2079
Core_0_DTLB_total_miss_rate 0.0525134
Core_0_DTLB_demand_access 25151475
Core_0_DTLB_demand_hit 23830685
Core_0_DTLB_demand_miss 1320790
Core_0_DTLB_demand_MPKI 13.2079
Core_0_DTLB_demand_miss_rate 0.0525134
Core_0_DTLB_load_access 25151475
Core_0_DTLB_load_hit 23830685
Core_0_DTLB_load_miss 1320790
Core_0_DTLB_load_MPKI 13.2079
Core_0_DTLB_load_miss_rate 0.0525134
Core_0_DTLB_rfo_access 0
Core_0_DTLB_rfo_hit 0
Core_0_DTLB_rfo_miss 0
Core_0_DTLB_rfo_MPKI 0
Core_0_DTLB_rfo_miss_rate 0
Core_0_DTLB_prefetch_access 0
Core_0_DTLB_prefetch_hit 0
Core_0_DTLB_prefetch_miss 0
Core_0_DTLB_prefetch_MPKI 0
Core_0_DTLB_prefetch_miss_rate 0
Core_0_DTLB_writeback_access 0
Core_0_DTLB_writeback_hit 0
Core_0_DTLB_writeback_miss 0
Core_0_DTLB_writeback_MPKI 0
Core_0_DTLB_writeback_miss_rate 0
Core_0_DTLB_prefetch_requested 0
Core_0_DTLB_prefetch_issued 0
Core_0_DTLB_prefetch_useful 0
Core_0_DTLB_prefetch_useless 0
Core_0_DTLB_prefetch_late 0
Core_0_DTLB_prefetch_accuracy 0
Core_0_DTLB_prefetch_coverage 0

Core_0_STLB_total_access 903085
Core_0_STLB_total_hit 903085
Core_0_STLB_total_miss 0
Core_0_STLB_total_MPKI 0
Core_0_STLB_total_miss_rate 0
Core_0_STLB_demand_access 903085
Core_0_STLB_demand_hit 903085
Core_0_STLB_demand_miss 0
Core_0_STLB_demand_MPKI 0
Core_0_STLB_demand_miss_rate 0
Core_0_STLB_load_access 903085
Core_0_STLB_load_hit 903085
Core_0_STLB_load_miss 0
Core_0_STLB_load_MPKI 0
Core_0_STLB_load_miss_rate 0
Core_0_STLB_rfo_access 0
Core_0_STLB_rfo_hit 0
Core_0_STLB_rfo_miss 0
Core_0_STLB_rfo_MPKI 0
Core_0_STLB_rfo_miss_rate 0
Core_0_STLB_prefetch_access 0
Core_0_STLB_prefetch_hit 0
Core_0_STLB_prefetch_miss 0
Core_0_STLB_prefetch_MPKI 0
Core_0_STLB_prefetch_miss_rate 0
Core_0_STLB_writeback_access 0
Core_0_STLB_writeback_hit 0
Core_0_STLB_writeback_miss 0
Core_0_STLB_writeback_MPKI 0
Core_0_STLB_writeback_miss_rate 0
Core_0_STLB_prefetch_requested 0
Core_0_STLB_prefetch_issued 0
Core_0_STLB_prefetch_useful 0
Core_0_STLB_prefetch_useless 0
Core_0_STLB_prefetch_late 0
Core_0_STLB_prefetch_accuracy 0
Core_0_STLB_prefetch_coverage 0

Core_0_L1I_total_access 15175820
Core_0_L1I_total_hit 15036866
Core_0_L1I_total_miss 138954
Core_0_L1I_total_MPKI 1.38954
Core_0_L1I_total_miss_rate 0.00915628
Core_0_L1I_demand_access 15175820
Core_0_L1I_demand_hit 15036866
Core_0_L1I_demand_miss 138954
Core_0_L1I_demand_MPKI 1.38954
Core_0_L1I_demand_miss_rate 0.00915628
Core_0_L1I_load_access 15175820
Core_0_L1I_load_hit 15036866
Core_0_L1I_load_miss 138954
Core_0_L1I_load_MPKI 1.38954
Core_0_L1I_load_miss_rate 0.00915628
Core_0_L1I_rfo_access 0
Core_0_L1I_rfo_hit 0
Core_0_L1I_rfo_miss 0
Core_0_L1I_rfo_MPKI 0
Core_0_L1I_rfo_miss_rate 0
Core_0_L1I_prefetch_access 0
Core_0_L1I_prefetch_hit 0
Core_0_L1I_prefetch_miss 0
Core_0_L1I_prefetch_MPKI 0
Core_0_L1I_prefetch_miss_rate 0
Core_0_L1I_writeback_access 0
Core_0_L1I_writeback_hit 0
Core_0_L1I_writeback_miss 0
Core_0_L1I_writeback_MPKI 0
Core_0_L1I_writeback_miss_rate 0
Core_0_L1I_prefetch_requested 0
Core_0_L1I_prefetch_issued 0
Core_0_L1I_prefetch_useful 0
Core_0_L1I_prefetch_useless 0
Core_0_L1I_prefetch_late 0
Core_0_L1I_prefetch_accuracy 0
Core_0_L1I_prefetch_coverage 0

Core_0_L1D_total_access 26867383
Core_0_L1D_total_hit 25151141
Core_0_L1D_total_miss 1716242
Core_0_L1D_total_MPKI 17.1624
Core_0_L1D_total_miss_rate 0.0638783
Core_0_L1D_demand_access 16216341
Core_0_L1D_demand_hit 15652289
Core_0_L1D_demand_miss 564052
Core_0_L1D_demand_MPKI 5.64052
Core_0_L1D_demand_miss_rate 0.0347829
Core_0_L1D_load_access 16216341
Core_0_L1D_load_hit 15652289
Core_0_L1D_load_miss 564052
Core_0_L1D_load_MPKI 5.64052
Core_0_L1D_load_miss_rate 0.0347829
Core_0_L1D_rfo_access 0
Core_0_L1D_rfo_hit 0
Core_0_L1D_rfo_miss 0
Core_0_L1D_rfo_MPKI 0
Core_0_L1D_rfo_miss_rate 0
Core_0_L1D_prefetch_access 1337488
Core_0_L1D_prefetch_hit 1084335
Core_0_L1D_prefetch_miss 253153
Core_0_L1D_prefetch_MPKI 2.53153
Core_0_L1D_prefetch_miss_rate 0.189275
Core_0_L1D_writeback_access 9313554
Core_0_L1D_writeback_hit 8414517
Core_0_L1D_writeback_miss 899037
Core_0_L1D_writeback_MPKI 8.99037
Core_0_L1D_writeback_miss_rate 0.09653
Core_0_L1D_prefetch_requested 1354751
Core_0_L1D_prefetch_issued 1337485
Core_0_L1D_prefetch_useful 177070
Core_0_L1D_prefetch_useless 55236
Core_0_L1D_prefetch_late 12554
Core_0_L1D_prefetch_accuracy 0.13239
Core_0_L1D_prefetch_coverage 0.238922

Core_0_L2C_total_access 2196495
Core_0_L2C_total_hit 1718999
Core_0_L2C_total_miss 477496
Core_0_L2C_total_MPKI 4.77496
Core_0_L2C_total_miss_rate 0.21739
Core_0_L2C_demand_access 674185
Core_0_L2C_demand_hit 435176
Core_0_L2C_demand_miss 239009
Core_0_L2C_demand_MPKI 2.39009
Core_0_L2C_demand_miss_rate 0.354515
Core_0_L2C_load_access 523283
Core_0_L2C_load_hit 416005
Core_0_L2C_load_miss 107278
Core_0_L2C_load_MPKI 1.07278
Core_0_L2C_load_miss_rate 0.20501
Core_0_L2C_rfo_access 150902
Core_0_L2C_rfo_hit 19171
Core_0_L2C_rfo_miss 131731
Core_0_L2C_rfo_MPKI 1.31731
Core_0_L2C_rfo_miss_rate 0.872957
Core_0_L2C_prefetch_access 1265574
Core_0_L2C_prefetch_hit 1027435
Core_0_L2C_prefetch_miss 238139
Core_0_L2C_prefetch_MPKI 2.38139
Core_0_L2C_prefetch_miss_rate 0.188167
Core_0_L2C_writeback_access 256736
Core_0_L2C_writeback_hit 256388
Core_0_L2C_writeback_miss 348
Core_0_L2C_writeback_MPKI 0.00348
Core_0_L2C_writeback_miss_rate 0.00135548
Core_0_L2C_prefetch_requested 1038638
Core_0_L2C_prefetch_issued 1033248
Core_0_L2C_prefetch_useful 52337
Core_0_L2C_prefetch_useless 96785
Core_0_L2C_prefetch_late 2887
Core_0_L2C_prefetch_accuracy 0.0506529
Core_0_L2C_prefetch_coverage 0.179639

Core_0_LLC_total_access 640656
Core_0_LLC_total_hit 295154
Core_0_LLC_total_miss 345502
Core_0_LLC_total_MPKI 3.45502
Core_0_LLC_total_miss_rate 0.539294
Core_0_LLC_demand_access 236122
Core_0_LLC_demand_hit 66830
Core_0_LLC_demand_miss 169292
Core_0_LLC_demand_MPKI 1.69292
Core_0_LLC_demand_miss_rate 0.716968
Core_0_LLC_load_access 104579
Core_0_LLC_load_hit 48118
Core_0_LLC_load_miss 56461
Core_0_LLC_load_MPKI 0.56461
Core_0_LLC_load_miss_rate 0.539889
Core_0_LLC_rfo_access 131543
Core_0_LLC_rfo_hit 18712
Core_0_LLC_rfo_miss 112831
Core_0_LLC_rfo_MPKI 1.12831
Core_0_LLC_rfo_miss_rate 0.85775
Core_0_LLC_prefetch_access 185949
Core_0_LLC_prefetch_hit 56550
Core_0_LLC_prefetch_miss 129399
Core_0_LLC_prefetch_MPKI 1.29399
Core_0_LLC_prefetch_miss_rate 0.695884
Core_0_LLC_writeback_access 218585
Core_0_LLC_writeback_hit 171774
Core_0_LLC_writeback_miss 46811
Core_0_LLC_writeback_MPKI 0.46811
Core_0_LLC_writeback_miss_rate 0.214155
Core_0_LLC_prefetch_requested 0
Core_0_LLC_prefetch_issued 0
Core_0_LLC_prefetch_useful 0
Core_0_LLC_prefetch_useless 0
Core_0_LLC_prefetch_late 0
Core_0_LLC_prefetch_accuracy 0
Core_0_LLC_prefetch_coverage 0

[DRAM Statistics]
Channel_0_RQ_row_buffer_hit 2907
Channel_0_RQ_row_buffer_miss 295753
Channel_0_WQ_row_buffer_hit 28419
Channel_0_WQ_row_buffer_miss 145273
Channel_0_WQ_full 0
Channel_0_dbus_congested 1107302
DRAM_total_RQ_row_buffer_hit 2907
DRAM_total_RQ_row_buffer_miss 295753
DRAM_total_WQ_row_buffer_hit 28419
DRAM_total_WQ_row_buffer_miss 145273
DRAM_total_WQ_full 0
DRAM_total_dbus_congested 1107302
DRAM_avg_congested_cycle 11.1218

======STLB miss causes ========
Core_0_STLB_miss_cause_breakdown
Core_0_STLB_cause_Demand_Data_miss 0
Core_0_STLB_cause_Demand_Data_miss_rate 0
Core_0_STLB_cause_Demand_Instruction_miss 0
Core_0_STLB_cause_Demand_Instruction_miss_rate 0
Core_0_STLB_cause_L1D_Prefetch_miss 0
Core_0_STLB_cause_L1D_Prefetch_miss_rate 0
Core_0_STLB_cause_L1I_Prefetch_miss 0
Core_0_STLB_cause_L1I_Prefetch_miss_rate 0
Core_0_STLB_cause_Other_miss 0
Core_0_STLB_cause_Other_miss_rate 0
Core_0_STLB_Demand_miss 0
Core_0_STLB_Demand_miss_rate 0
Core_0_STLB_L1D_Prefetch_miss 0
Core_0_STLB_L1D_Prefetch_miss_rate 0
Core_0_STLB_Other_miss 0
Core_0_STLB_Other_miss_rate 0
