[VMEM] WARNING: physical memory size is smaller than virtual memory size.

*** ChampSim Multicore Out-of-Order Simulator ***
Warmup Instructions: 20000000
Simulation Instructions: 50000000
Number of CPUs: 1
Page size: 4096
STLB ideal mode: all
STLB ideal fill: on
Core 0: /data0/tzh/champsim_traces/QMM/compute_fp_1_new.xz
 L1D Berti prefetcher
Off-chip DRAM Size: 16 GiB Channels: 1 Width: 64-bit Data Rate: 3205 MT/s
Warmup halting CPU 0 at instruction 20000005 cycle 4814939 for remainder of phase
Warmup finished CPU 0 instructions: 20000005 cycles: 4814939 cumulative IPC: 4.154 (Simulation time: 00 hr 00 min 52 sec)
Warmup complete CPU 0 instructions: 20000005 cycles: 4814939 cumulative IPC: 4.154 (Simulation time: 00 hr 00 min 52 sec)
*** Reached end of trace: (0, "/data0/tzh/champsim_traces/QMM/compute_fp_1_new.xz")
*** Reached end of trace: (0, "/data0/tzh/champsim_traces/QMM/compute_fp_1_new.xz")
Simulation finished CPU 0 instructions: 50000000 cycles: 85863481 cumulative IPC: 0.5823 (Simulation time: 00 hr 10 min 46 sec)
Simulation complete CPU 0 instructions: 50000000 cycles: 85863481 cumulative IPC: 0.5823 (Simulation time: 00 hr 10 min 46 sec)

ChampSim completed all CPUs

=== Simulation ===
CPU 0 runs /data0/tzh/champsim_traces/QMM/compute_fp_1_new.xz

Region of Interest Statistics

CPU 0 cumulative IPC: 0.5823 instructions: 50000000 cycles: 85863481
CPU 0 Branch Prediction Accuracy: 95.38% MPKI: 6.524 Average ROB Occupancy at Mispredict: 38.32
Branch type MPKI
BRANCH_DIRECT_JUMP: 6e-05
BRANCH_INDIRECT: 0
BRANCH_CONDITIONAL: 6.523
BRANCH_DIRECT_CALL: 0
BRANCH_INDIRECT_CALL: 0
BRANCH_RETURN: 4e-05

cpu0->cpu0_STLB TOTAL        ACCESS:     208592 HIT:     208592 MISS:          0 MSHR_MERGE:          0
cpu0->cpu0_STLB LOAD         ACCESS:     208592 HIT:     208592 MISS:          0 MSHR_MERGE:          0
cpu0->cpu0_STLB RFO          ACCESS:          0 HIT:          0 MISS:          0 MSHR_MERGE:          0
cpu0->cpu0_STLB PREFETCH     ACCESS:          0 HIT:          0 MISS:          0 MSHR_MERGE:          0
cpu0->cpu0_STLB WRITE        ACCESS:          0 HIT:          0 MISS:          0 MSHR_MERGE:          0
cpu0->cpu0_STLB TRANSLATION  ACCESS:          0 HIT:          0 MISS:          0 MSHR_MERGE:          0
cpu0->cpu0_STLB PREFETCH REQUESTED:          0 ISSUED:          0 USEFUL:          0 USELESS:          0 LATE:          0
cpu0->cpu0_STLB AVERAGE MISS LATENCY: - cycles
cpu0->cpu0_L2C TOTAL        ACCESS:    4952188 HIT:    1386405 MISS:    3565783 MSHR_MERGE:     706924
cpu0->cpu0_L2C LOAD         ACCESS:    1158815 HIT:     146482 MISS:    1012333 MSHR_MERGE:      49419
cpu0->cpu0_L2C RFO          ACCESS:      26799 HIT:       8202 MISS:      18597 MSHR_MERGE:          0
cpu0->cpu0_L2C PREFETCH     ACCESS:    2783392 HIT:     248542 MISS:    2534850 MSHR_MERGE:     657505
cpu0->cpu0_L2C WRITE        ACCESS:     983182 HIT:     983179 MISS:          3 MSHR_MERGE:          0
cpu0->cpu0_L2C TRANSLATION  ACCESS:          0 HIT:          0 MISS:          0 MSHR_MERGE:          0
cpu0->cpu0_L2C PREFETCH REQUESTED:    1097447 ISSUED:    1095056 USEFUL:     176189 USELESS:     249336 LATE:      49419
cpu0->cpu0_L2C AVERAGE MISS LATENCY: 294.2 cycles
cpu0->cpu0_L1I TOTAL        ACCESS:    4179031 HIT:    4177302 MISS:       1729 MSHR_MERGE:        674
cpu0->cpu0_L1I LOAD         ACCESS:    4179031 HIT:    4177302 MISS:       1729 MSHR_MERGE:        674
cpu0->cpu0_L1I RFO          ACCESS:          0 HIT:          0 MISS:          0 MSHR_MERGE:          0
cpu0->cpu0_L1I PREFETCH     ACCESS:          0 HIT:          0 MISS:          0 MSHR_MERGE:          0
cpu0->cpu0_L1I WRITE        ACCESS:          0 HIT:          0 MISS:          0 MSHR_MERGE:          0
cpu0->cpu0_L1I TRANSLATION  ACCESS:          0 HIT:          0 MISS:          0 MSHR_MERGE:          0
cpu0->cpu0_L1I PREFETCH REQUESTED:          0 ISSUED:          0 USEFUL:          0 USELESS:          0 LATE:          0
cpu0->cpu0_L1I AVERAGE MISS LATENCY: 253 cycles
cpu0->cpu0_L1D TOTAL        ACCESS:   13969398 HIT:    8894260 MISS:    5075138 MSHR_MERGE:    2202249
cpu0->cpu0_L1D LOAD         ACCESS:    8470667 HIT:    5334864 MISS:    3135803 MSHR_MERGE:    1978041
cpu0->cpu0_L1D RFO          ACCESS:          0 HIT:          0 MISS:          0 MSHR_MERGE:          0
cpu0->cpu0_L1D PREFETCH     ACCESS:    1896567 HIT:     112882 MISS:    1783685 MSHR_MERGE:      95357
cpu0->cpu0_L1D WRITE        ACCESS:    3602164 HIT:    3446514 MISS:     155650 MSHR_MERGE:     128851
cpu0->cpu0_L1D TRANSLATION  ACCESS:          0 HIT:          0 MISS:          0 MSHR_MERGE:          0
cpu0->cpu0_L1D PREFETCH REQUESTED:    2026051 ISSUED:    1896559 USEFUL:    1326644 USELESS:     361559 LATE:     367079
cpu0->cpu0_L1D AVERAGE MISS LATENCY: 249.2 cycles
cpu0->cpu0_ITLB TOTAL        ACCESS:    4001067 HIT:    4000834 MISS:        233 MSHR_MERGE:        134
cpu0->cpu0_ITLB LOAD         ACCESS:    4001067 HIT:    4000834 MISS:        233 MSHR_MERGE:        134
cpu0->cpu0_ITLB RFO          ACCESS:          0 HIT:          0 MISS:          0 MSHR_MERGE:          0
cpu0->cpu0_ITLB PREFETCH     ACCESS:          0 HIT:          0 MISS:          0 MSHR_MERGE:          0
cpu0->cpu0_ITLB WRITE        ACCESS:          0 HIT:          0 MISS:          0 MSHR_MERGE:          0
cpu0->cpu0_ITLB TRANSLATION  ACCESS:          0 HIT:          0 MISS:          0 MSHR_MERGE:          0
cpu0->cpu0_ITLB PREFETCH REQUESTED:          0 ISSUED:          0 USEFUL:          0 USELESS:          0 LATE:          0
cpu0->cpu0_ITLB AVERAGE MISS LATENCY: 5.03 cycles
cpu0->cpu0_DTLB TOTAL        ACCESS:   12731096 HIT:   12376586 MISS:     354510 MSHR_MERGE:     146017
cpu0->cpu0_DTLB LOAD         ACCESS:   12731096 HIT:   12376586 MISS:     354510 MSHR_MERGE:     146017
cpu0->cpu0_DTLB RFO          ACCESS:          0 HIT:          0 MISS:          0 MSHR_MERGE:          0
cpu0->cpu0_DTLB PREFETCH     ACCESS:          0 HIT:          0 MISS:          0 MSHR_MERGE:          0
cpu0->cpu0_DTLB WRITE        ACCESS:          0 HIT:          0 MISS:          0 MSHR_MERGE:          0
cpu0->cpu0_DTLB TRANSLATION  ACCESS:          0 HIT:          0 MISS:          0 MSHR_MERGE:          0
cpu0->cpu0_DTLB PREFETCH REQUESTED:          0 ISSUED:          0 USEFUL:          0 USELESS:          0 LATE:          0
cpu0->cpu0_DTLB AVERAGE MISS LATENCY: 5.003 cycles
cpu0->LLC TOTAL        ACCESS:    3766696 HIT:     804027 MISS:    2962669 MSHR_MERGE:     100289
cpu0->LLC LOAD         ACCESS:     962914 HIT:     243226 MISS:     719688 MSHR_MERGE:       6445
cpu0->LLC RFO          ACCESS:      18597 HIT:       4505 MISS:      14092 MSHR_MERGE:          0
cpu0->LLC PREFETCH     ACCESS:    1877331 HIT:     158720 MISS:    1718611 MSHR_MERGE:      93844
cpu0->LLC WRITE        ACCESS:     907854 HIT:     397576 MISS:     510278 MSHR_MERGE:          0
cpu0->LLC TRANSLATION  ACCESS:          0 HIT:          0 MISS:          0 MSHR_MERGE:          0
cpu0->LLC PREFETCH REQUESTED:          0 ISSUED:          0 USEFUL:          0 USELESS:          0 LATE:          0
cpu0->LLC AVERAGE MISS LATENCY: 224.7 cycles

DRAM Statistics

Channel 0 RQ ROW_BUFFER_HIT:     116334
  ROW_BUFFER_MISS:    2235089
  AVG DBUS CONGESTED CYCLE: 6.355
Channel 0 WQ ROW_BUFFER_HIT:      56005
  ROW_BUFFER_MISS:     581523
  FULL:         43
Channel 0 REFRESHES ISSUED:       7155

[ROI Statistics]
[System Configuration]
num_cpus 1
cpu_freq 4000
fetch_width 6
decode_width 6
dispatch_width 6
execute_width 6
lq_width 2
sq_width 2
retire_width 6
scheduler_size 128
branch_mispredict_penalty 15
rob_size 352
lq_size 128
sq_size 72
ifetch_buffer_size 64
decode_buffer_size 32
dispatch_buffer_size 32
register_file_size 288
decode_latency 1
dispatch_latency 1
schedule_latency 1
execute_latency 1
page_size 4096
block_size 64
core_0_itlb_set 16
core_0_itlb_way 4
core_0_itlb_rq_size 16
core_0_itlb_wq_size 16
core_0_itlb_pq_size 0
core_0_itlb_mshr_size 8
core_0_itlb_hit_latency 1
core_0_itlb_fill_latency 1
core_0_itlb_max_tag_check 2
core_0_itlb_max_fill 2
core_0_dtlb_set 16
core_0_dtlb_way 4
core_0_dtlb_rq_size 16
core_0_dtlb_wq_size 16
core_0_dtlb_pq_size 0
core_0_dtlb_mshr_size 8
core_0_dtlb_hit_latency 1
core_0_dtlb_fill_latency 1
core_0_dtlb_max_tag_check 2
core_0_dtlb_max_fill 2
core_0_stlb_set 128
core_0_stlb_way 12
core_0_stlb_rq_size 32
core_0_stlb_wq_size 32
core_0_stlb_pq_size 0
core_0_stlb_mshr_size 16
core_0_stlb_hit_latency 4
core_0_stlb_fill_latency 4
core_0_stlb_max_tag_check 1
core_0_stlb_max_fill 1
core_0_l1i_set 64
core_0_l1i_way 8
core_0_l1i_rq_size 64
core_0_l1i_wq_size 64
core_0_l1i_pq_size 32
core_0_l1i_mshr_size 8
core_0_l1i_hit_latency 2
core_0_l1i_fill_latency 2
core_0_l1i_max_tag_check 2
core_0_l1i_max_fill 2
core_0_l1d_set 64
core_0_l1d_way 12
core_0_l1d_rq_size 64
core_0_l1d_wq_size 64
core_0_l1d_pq_size 8
core_0_l1d_mshr_size 16
core_0_l1d_hit_latency 2
core_0_l1d_fill_latency 3
core_0_l1d_max_tag_check 2
core_0_l1d_max_fill 2
core_0_l2c_set 1024
core_0_l2c_way 8
core_0_l2c_rq_size 32
core_0_l2c_wq_size 32
core_0_l2c_pq_size 16
core_0_l2c_mshr_size 32
core_0_l2c_hit_latency 5
core_0_l2c_fill_latency 5
core_0_l2c_max_tag_check 1
core_0_l2c_max_fill 1
llc_set 2048
llc_way 16
llc_rq_size 32
llc_wq_size 32
llc_pq_size 32
llc_mshr_size 64
llc_hit_latency 10
llc_fill_latency 10
llc_max_tag_check 1
llc_max_fill 1
dram_channels 1
dram_ranks 1
dram_bankgroups 8
dram_banks 4
dram_rows 65536
dram_columns 1024
dram_channel_width 8
dram_rq_size 64
dram_wq_size 64
dram_size 17179869184
core_0_itlb_prefetcher no
core_0_dtlb_prefetcher no
core_0_stlb_prefetcher no
core_0_l1i_prefetcher next_line
core_0_l1d_prefetcher berti
core_0_l2c_prefetcher ip_stride
llc_prefetcher no
llc_replacement drrip

Core_0_instructions 50000000
Core_0_cycles 85863481
Core_0_IPC 0.58232
Core_0_branch_prediction_accuracy 95.3771
Core_0_branch_MPKI 6.52356
Core_0_average_ROB_occupancy_at_mispredict 38.3151

Core_0_ITLB_total_access 4001067
Core_0_ITLB_total_hit 4000834
Core_0_ITLB_total_miss 233
Core_0_ITLB_total_MPKI 0.00466
Core_0_ITLB_total_miss_rate 5.82345e-05
Core_0_ITLB_demand_access 4001067
Core_0_ITLB_demand_hit 4000834
Core_0_ITLB_demand_miss 233
Core_0_ITLB_demand_MPKI 0.00466
Core_0_ITLB_demand_miss_rate 5.82345e-05
Core_0_ITLB_load_access 4001067
Core_0_ITLB_load_hit 4000834
Core_0_ITLB_load_miss 233
Core_0_ITLB_load_MPKI 0.00466
Core_0_ITLB_load_miss_rate 5.82345e-05
Core_0_ITLB_rfo_access 0
Core_0_ITLB_rfo_hit 0
Core_0_ITLB_rfo_miss 0
Core_0_ITLB_rfo_MPKI 0
Core_0_ITLB_rfo_miss_rate 0
Core_0_ITLB_prefetch_access 0
Core_0_ITLB_prefetch_hit 0
Core_0_ITLB_prefetch_miss 0
Core_0_ITLB_prefetch_MPKI 0
Core_0_ITLB_prefetch_miss_rate 0
Core_0_ITLB_writeback_access 0
Core_0_ITLB_writeback_hit 0
Core_0_ITLB_writeback_miss 0
Core_0_ITLB_writeback_MPKI 0
Core_0_ITLB_writeback_miss_rate 0
Core_0_ITLB_prefetch_requested 0
Core_0_ITLB_prefetch_issued 0
Core_0_ITLB_prefetch_useful 0
Core_0_ITLB_prefetch_useless 0
Core_0_ITLB_prefetch_late 0
Core_0_ITLB_prefetch_accuracy 0
Core_0_ITLB_prefetch_coverage 0
Core_0_ITLB_total_eviction 0

Core_0_DTLB_total_access 12731096
Core_0_DTLB_total_hit 12376586
Core_0_DTLB_total_miss 354510
Core_0_DTLB_total_MPKI 7.0902
Core_0_DTLB_total_miss_rate 0.027846
Core_0_DTLB_demand_access 12731096
Core_0_DTLB_demand_hit 12376586
Core_0_DTLB_demand_miss 354510
Core_0_DTLB_demand_MPKI 7.0902
Core_0_DTLB_demand_miss_rate 0.027846
Core_0_DTLB_load_access 12731096
Core_0_DTLB_load_hit 12376586
Core_0_DTLB_load_miss 354510
Core_0_DTLB_load_MPKI 7.0902
Core_0_DTLB_load_miss_rate 0.027846
Core_0_DTLB_rfo_access 0
Core_0_DTLB_rfo_hit 0
Core_0_DTLB_rfo_miss 0
Core_0_DTLB_rfo_MPKI 0
Core_0_DTLB_rfo_miss_rate 0
Core_0_DTLB_prefetch_access 0
Core_0_DTLB_prefetch_hit 0
Core_0_DTLB_prefetch_miss 0
Core_0_DTLB_prefetch_MPKI 0
Core_0_DTLB_prefetch_miss_rate 0
Core_0_DTLB_writeback_access 0
Core_0_DTLB_writeback_hit 0
Core_0_DTLB_writeback_miss 0
Core_0_DTLB_writeback_MPKI 0
Core_0_DTLB_writeback_miss_rate 0
Core_0_DTLB_prefetch_requested 0
Core_0_DTLB_prefetch_issued 0
Core_0_DTLB_prefetch_useful 0
Core_0_DTLB_prefetch_useless 0
Core_0_DTLB_prefetch_late 0
Core_0_DTLB_prefetch_accuracy 0
Core_0_DTLB_prefetch_coverage 0
Core_0_DTLB_total_eviction 0

Core_0_STLB_total_access 208592
Core_0_STLB_total_hit 208592
Core_0_STLB_total_miss 0
Core_0_STLB_total_MPKI 0
Core_0_STLB_total_miss_rate 0
Core_0_STLB_demand_access 208592
Core_0_STLB_demand_hit 208592
Core_0_STLB_demand_miss 0
Core_0_STLB_demand_MPKI 0
Core_0_STLB_demand_miss_rate 0
Core_0_STLB_load_access 208592
Core_0_STLB_load_hit 208592
Core_0_STLB_load_miss 0
Core_0_STLB_load_MPKI 0
Core_0_STLB_load_miss_rate 0
Core_0_STLB_rfo_access 0
Core_0_STLB_rfo_hit 0
Core_0_STLB_rfo_miss 0
Core_0_STLB_rfo_MPKI 0
Core_0_STLB_rfo_miss_rate 0
Core_0_STLB_prefetch_access 0
Core_0_STLB_prefetch_hit 0
Core_0_STLB_prefetch_miss 0
Core_0_STLB_prefetch_MPKI 0
Core_0_STLB_prefetch_miss_rate 0
Core_0_STLB_writeback_access 0
Core_0_STLB_writeback_hit 0
Core_0_STLB_writeback_miss 0
Core_0_STLB_writeback_MPKI 0
Core_0_STLB_writeback_miss_rate 0
Core_0_STLB_prefetch_requested 0
Core_0_STLB_prefetch_issued 0
Core_0_STLB_prefetch_useful 0
Core_0_STLB_prefetch_useless 0
Core_0_STLB_prefetch_late 0
Core_0_STLB_prefetch_accuracy 0
Core_0_STLB_prefetch_coverage 0
Core_0_STLB_total_eviction 0

Core_0_L1I_total_access 4179031
Core_0_L1I_total_hit 4177302
Core_0_L1I_total_miss 1729
Core_0_L1I_total_MPKI 0.03458
Core_0_L1I_total_miss_rate 0.000413732
Core_0_L1I_demand_access 4179031
Core_0_L1I_demand_hit 4177302
Core_0_L1I_demand_miss 1729
Core_0_L1I_demand_MPKI 0.03458
Core_0_L1I_demand_miss_rate 0.000413732
Core_0_L1I_load_access 4179031
Core_0_L1I_load_hit 4177302
Core_0_L1I_load_miss 1729
Core_0_L1I_load_MPKI 0.03458
Core_0_L1I_load_miss_rate 0.000413732
Core_0_L1I_rfo_access 0
Core_0_L1I_rfo_hit 0
Core_0_L1I_rfo_miss 0
Core_0_L1I_rfo_MPKI 0
Core_0_L1I_rfo_miss_rate 0
Core_0_L1I_prefetch_access 0
Core_0_L1I_prefetch_hit 0
Core_0_L1I_prefetch_miss 0
Core_0_L1I_prefetch_MPKI 0
Core_0_L1I_prefetch_miss_rate 0
Core_0_L1I_writeback_access 0
Core_0_L1I_writeback_hit 0
Core_0_L1I_writeback_miss 0
Core_0_L1I_writeback_MPKI 0
Core_0_L1I_writeback_miss_rate 0
Core_0_L1I_prefetch_requested 0
Core_0_L1I_prefetch_issued 0
Core_0_L1I_prefetch_useful 0
Core_0_L1I_prefetch_useless 0
Core_0_L1I_prefetch_late 0
Core_0_L1I_prefetch_accuracy 0
Core_0_L1I_prefetch_coverage 0
Core_0_L1I_total_eviction 0

Core_0_L1D_total_access 13969398
Core_0_L1D_total_hit 8894260
Core_0_L1D_total_miss 5075138
Core_0_L1D_total_MPKI 101.503
Core_0_L1D_total_miss_rate 0.363304
Core_0_L1D_demand_access 8470667
Core_0_L1D_demand_hit 5334864
Core_0_L1D_demand_miss 3135803
Core_0_L1D_demand_MPKI 62.7161
Core_0_L1D_demand_miss_rate 0.370196
Core_0_L1D_load_access 8470667
Core_0_L1D_load_hit 5334864
Core_0_L1D_load_miss 3135803
Core_0_L1D_load_MPKI 62.7161
Core_0_L1D_load_miss_rate 0.370196
Core_0_L1D_rfo_access 0
Core_0_L1D_rfo_hit 0
Core_0_L1D_rfo_miss 0
Core_0_L1D_rfo_MPKI 0
Core_0_L1D_rfo_miss_rate 0
Core_0_L1D_prefetch_access 1896567
Core_0_L1D_prefetch_hit 112882
Core_0_L1D_prefetch_miss 1783685
Core_0_L1D_prefetch_MPKI 35.6737
Core_0_L1D_prefetch_miss_rate 0.940481
Core_0_L1D_writeback_access 3602164
Core_0_L1D_writeback_hit 3446514
Core_0_L1D_writeback_miss 155650
Core_0_L1D_writeback_MPKI 3.113
Core_0_L1D_writeback_miss_rate 0.0432101
Core_0_L1D_prefetch_requested 2026051
Core_0_L1D_prefetch_issued 1896559
Core_0_L1D_prefetch_useful 1326644
Core_0_L1D_prefetch_useless 361559
Core_0_L1D_prefetch_late 367079
Core_0_L1D_prefetch_accuracy 0.699501
Core_0_L1D_prefetch_coverage 0.297291
Core_0_L1D_total_eviction 0

Core_0_L2C_total_access 4952188
Core_0_L2C_total_hit 1386405
Core_0_L2C_total_miss 3565783
Core_0_L2C_total_MPKI 71.3157
Core_0_L2C_total_miss_rate 0.720042
Core_0_L2C_demand_access 1185614
Core_0_L2C_demand_hit 154684
Core_0_L2C_demand_miss 1030930
Core_0_L2C_demand_MPKI 20.6186
Core_0_L2C_demand_miss_rate 0.869533
Core_0_L2C_load_access 1158815
Core_0_L2C_load_hit 146482
Core_0_L2C_load_miss 1012333
Core_0_L2C_load_MPKI 20.2467
Core_0_L2C_load_miss_rate 0.873593
Core_0_L2C_rfo_access 26799
Core_0_L2C_rfo_hit 8202
Core_0_L2C_rfo_miss 18597
Core_0_L2C_rfo_MPKI 0.37194
Core_0_L2C_rfo_miss_rate 0.693944
Core_0_L2C_prefetch_access 2783392
Core_0_L2C_prefetch_hit 248542
Core_0_L2C_prefetch_miss 2534850
Core_0_L2C_prefetch_MPKI 50.697
Core_0_L2C_prefetch_miss_rate 0.910705
Core_0_L2C_writeback_access 983182
Core_0_L2C_writeback_hit 983179
Core_0_L2C_writeback_miss 3
Core_0_L2C_writeback_MPKI 6e-05
Core_0_L2C_writeback_miss_rate 3.05132e-06
Core_0_L2C_prefetch_requested 1097447
Core_0_L2C_prefetch_issued 1095056
Core_0_L2C_prefetch_useful 176189
Core_0_L2C_prefetch_useless 249336
Core_0_L2C_prefetch_late 49419
Core_0_L2C_prefetch_accuracy 0.160895
Core_0_L2C_prefetch_coverage 0.145958
Core_0_L2C_total_eviction 0

Core_0_LLC_total_access 3766696
Core_0_LLC_total_hit 804027
Core_0_LLC_total_miss 2962669
Core_0_LLC_total_MPKI 59.2534
Core_0_LLC_total_miss_rate 0.786543
Core_0_LLC_demand_access 981511
Core_0_LLC_demand_hit 247731
Core_0_LLC_demand_miss 733780
Core_0_LLC_demand_MPKI 14.6756
Core_0_LLC_demand_miss_rate 0.747602
Core_0_LLC_load_access 962914
Core_0_LLC_load_hit 243226
Core_0_LLC_load_miss 719688
Core_0_LLC_load_MPKI 14.3938
Core_0_LLC_load_miss_rate 0.747406
Core_0_LLC_rfo_access 18597
Core_0_LLC_rfo_hit 4505
Core_0_LLC_rfo_miss 14092
Core_0_LLC_rfo_MPKI 0.28184
Core_0_LLC_rfo_miss_rate 0.757757
Core_0_LLC_prefetch_access 1877331
Core_0_LLC_prefetch_hit 158720
Core_0_LLC_prefetch_miss 1718611
Core_0_LLC_prefetch_MPKI 34.3722
Core_0_LLC_prefetch_miss_rate 0.915454
Core_0_LLC_writeback_access 907854
Core_0_LLC_writeback_hit 397576
Core_0_LLC_writeback_miss 510278
Core_0_LLC_writeback_MPKI 10.2056
Core_0_LLC_writeback_miss_rate 0.562071
Core_0_LLC_prefetch_requested 0
Core_0_LLC_prefetch_issued 0
Core_0_LLC_prefetch_useful 0
Core_0_LLC_prefetch_useless 0
Core_0_LLC_prefetch_late 0
Core_0_LLC_prefetch_accuracy 0
Core_0_LLC_prefetch_coverage 0
Core_0_LLC_total_eviction 0

[DRAM Statistics]
Channel_0_RQ_row_buffer_hit 116334
Channel_0_RQ_row_buffer_miss 2235089
Channel_0_WQ_row_buffer_hit 56005
Channel_0_WQ_row_buffer_miss 581523
Channel_0_WQ_full 43
Channel_0_dbus_congested 8340116
DRAM_total_RQ_row_buffer_hit 116334
DRAM_total_RQ_row_buffer_miss 2235089
DRAM_total_WQ_row_buffer_hit 56005
DRAM_total_WQ_row_buffer_miss 581523
DRAM_total_WQ_full 43
DRAM_total_dbus_congested 8340116
DRAM_avg_congested_cycle 6.3546

======STLB miss causes ========
Core_0_STLB_miss_cause_breakdown
Core_0_STLB_cause_Demand_Data_miss 0
Core_0_STLB_cause_Demand_Data_miss_rate 0
Core_0_STLB_cause_Demand_Instruction_miss 0
Core_0_STLB_cause_Demand_Instruction_miss_rate 0
Core_0_STLB_cause_L1D_Prefetch_miss 0
Core_0_STLB_cause_L1D_Prefetch_miss_rate 0
Core_0_STLB_cause_L1I_Prefetch_miss 0
Core_0_STLB_cause_L1I_Prefetch_miss_rate 0
Core_0_STLB_cause_Other_miss 0
Core_0_STLB_cause_Other_miss_rate 0
Core_0_STLB_Demand_miss 0
Core_0_STLB_Demand_miss_rate 0
Core_0_STLB_L1D_Prefetch_miss 0
Core_0_STLB_L1D_Prefetch_miss_rate 0
Core_0_STLB_Other_miss 0
Core_0_STLB_Other_miss_rate 0
