[VMEM] WARNING: physical memory size is smaller than virtual memory size.

*** ChampSim Multicore Out-of-Order Simulator ***
Warmup Instructions: 20000000
Simulation Instructions: 50000000
Number of CPUs: 1
Page size: 4096
STLB ideal mode: all
STLB ideal fill: on
Core 0: /data0/tzh/champsim_traces/QMM/srv_64_new.xz
 L1D Berti prefetcher
Off-chip DRAM Size: 16 GiB Channels: 1 Width: 64-bit Data Rate: 3205 MT/s
[BTB] WARNING: target of return is a lower address than the corresponding call. This is usually a problem with your trace.
[BTB] WARNING: target of return is a lower address than the corresponding call. This is usually a problem with your trace.
[BTB] WARNING: target of return is a lower address than the corresponding call. This is usually a problem with your trace.
[BTB] WARNING: target of return is a lower address than the corresponding call. This is usually a problem with your trace.
[BTB] WARNING: target of return is a lower address than the corresponding call. This is usually a problem with your trace.
[BTB] WARNING: target of return is a lower address than the corresponding call. This is usually a problem with your trace.
[BTB] WARNING: target of return is a lower address than the corresponding call. This is usually a problem with your trace.
[BTB] WARNING: target of return is a lower address than the corresponding call. This is usually a problem with your trace.
[BTB] WARNING: target of return is a lower address than the corresponding call. This is usually a problem with your trace.
[BTB] WARNING: target of return is a lower address than the corresponding call. This is usually a problem with your trace.
Warmup halting CPU 0 at instruction 20000005 cycle 4096742 for remainder of phase
Warmup finished CPU 0 instructions: 20000005 cycles: 4096742 cumulative IPC: 4.882 (Simulation time: 00 hr 00 min 55 sec)
Warmup complete CPU 0 instructions: 20000005 cycles: 4096742 cumulative IPC: 4.882 (Simulation time: 00 hr 00 min 55 sec)
*** Reached end of trace: (0, "/data0/tzh/champsim_traces/QMM/srv_64_new.xz")
*** Reached end of trace: (0, "/data0/tzh/champsim_traces/QMM/srv_64_new.xz")
Simulation finished CPU 0 instructions: 50000000 cycles: 23856838 cumulative IPC: 2.096 (Simulation time: 00 hr 04 min 44 sec)
Simulation complete CPU 0 instructions: 50000000 cycles: 23856838 cumulative IPC: 2.096 (Simulation time: 00 hr 04 min 44 sec)

ChampSim completed all CPUs

=== Simulation ===
CPU 0 runs /data0/tzh/champsim_traces/QMM/srv_64_new.xz

Region of Interest Statistics

CPU 0 cumulative IPC: 2.096 instructions: 50000000 cycles: 23856838
CPU 0 Branch Prediction Accuracy: 98.76% MPKI: 2.221 Average ROB Occupancy at Mispredict: 129.6
Branch type MPKI
BRANCH_DIRECT_JUMP: 0.1316
BRANCH_INDIRECT: 0.1672
BRANCH_CONDITIONAL: 1.364
BRANCH_DIRECT_CALL: 0.2412
BRANCH_INDIRECT_CALL: 0.07586
BRANCH_RETURN: 0.2411

cpu0->cpu0_STLB TOTAL        ACCESS:     829399 HIT:     829399 MISS:          0 MSHR_MERGE:          0
cpu0->cpu0_STLB LOAD         ACCESS:     829399 HIT:     829399 MISS:          0 MSHR_MERGE:          0
cpu0->cpu0_STLB RFO          ACCESS:          0 HIT:          0 MISS:          0 MSHR_MERGE:          0
cpu0->cpu0_STLB PREFETCH     ACCESS:          0 HIT:          0 MISS:          0 MSHR_MERGE:          0
cpu0->cpu0_STLB WRITE        ACCESS:          0 HIT:          0 MISS:          0 MSHR_MERGE:          0
cpu0->cpu0_STLB TRANSLATION  ACCESS:          0 HIT:          0 MISS:          0 MSHR_MERGE:          0
cpu0->cpu0_STLB PREFETCH REQUESTED:          0 ISSUED:          0 USEFUL:          0 USELESS:          0 LATE:          0
cpu0->cpu0_STLB AVERAGE MISS LATENCY: - cycles
cpu0->cpu0_L2C TOTAL        ACCESS:    2381498 HIT:    1505378 MISS:     876120 MSHR_MERGE:      15920
cpu0->cpu0_L2C LOAD         ACCESS:    1755331 HIT:    1086485 MISS:     668846 MSHR_MERGE:        197
cpu0->cpu0_L2C RFO          ACCESS:      75311 HIT:      39417 MISS:      35894 MSHR_MERGE:         21
cpu0->cpu0_L2C PREFETCH     ACCESS:     284639 HIT:     114681 MISS:     169958 MSHR_MERGE:      15702
cpu0->cpu0_L2C WRITE        ACCESS:     266217 HIT:     264795 MISS:       1422 MSHR_MERGE:          0
cpu0->cpu0_L2C TRANSLATION  ACCESS:          0 HIT:          0 MISS:          0 MSHR_MERGE:          0
cpu0->cpu0_L2C PREFETCH REQUESTED:      46994 ISSUED:      46984 USEFUL:      15835 USELESS:       6137 LATE:        218
cpu0->cpu0_L2C AVERAGE MISS LATENCY: 25.93 cycles
cpu0->cpu0_L1I TOTAL        ACCESS:    7876252 HIT:    5770946 MISS:    2105306 MSHR_MERGE:     822251
cpu0->cpu0_L1I LOAD         ACCESS:    7876252 HIT:    5770946 MISS:    2105306 MSHR_MERGE:     822251
cpu0->cpu0_L1I RFO          ACCESS:          0 HIT:          0 MISS:          0 MSHR_MERGE:          0
cpu0->cpu0_L1I PREFETCH     ACCESS:          0 HIT:          0 MISS:          0 MSHR_MERGE:          0
cpu0->cpu0_L1I WRITE        ACCESS:          0 HIT:          0 MISS:          0 MSHR_MERGE:          0
cpu0->cpu0_L1I TRANSLATION  ACCESS:          0 HIT:          0 MISS:          0 MSHR_MERGE:          0
cpu0->cpu0_L1I PREFETCH REQUESTED:          0 ISSUED:          0 USEFUL:          0 USELESS:          0 LATE:          0
cpu0->cpu0_L1I AVERAGE MISS LATENCY: 13.53 cycles
cpu0->cpu0_L1D TOTAL        ACCESS:   11789017 HIT:   10696893 MISS:    1092124 MSHR_MERGE:     306868
cpu0->cpu0_L1D LOAD         ACCESS:    6449383 HIT:    5808977 MISS:     640406 MSHR_MERGE:     168125
cpu0->cpu0_L1D RFO          ACCESS:          0 HIT:          0 MISS:          0 MSHR_MERGE:          0
cpu0->cpu0_L1D PREFETCH     ACCESS:     406123 HIT:     152493 MISS:     253630 MSHR_MERGE:      15972
cpu0->cpu0_L1D WRITE        ACCESS:    4933511 HIT:    4735423 MISS:     198088 MSHR_MERGE:     122771
cpu0->cpu0_L1D TRANSLATION  ACCESS:          0 HIT:          0 MISS:          0 MSHR_MERGE:          0
cpu0->cpu0_L1D PREFETCH REQUESTED:     408346 ISSUED:     406123 USEFUL:     101081 USELESS:     136529 LATE:      10218
cpu0->cpu0_L1D AVERAGE MISS LATENCY: 28.77 cycles
cpu0->cpu0_ITLB TOTAL        ACCESS:    6697813 HIT:    6227495 MISS:     470318 MSHR_MERGE:     280002
cpu0->cpu0_ITLB LOAD         ACCESS:    6697813 HIT:    6227495 MISS:     470318 MSHR_MERGE:     280002
cpu0->cpu0_ITLB RFO          ACCESS:          0 HIT:          0 MISS:          0 MSHR_MERGE:          0
cpu0->cpu0_ITLB PREFETCH     ACCESS:          0 HIT:          0 MISS:          0 MSHR_MERGE:          0
cpu0->cpu0_ITLB WRITE        ACCESS:          0 HIT:          0 MISS:          0 MSHR_MERGE:          0
cpu0->cpu0_ITLB TRANSLATION  ACCESS:          0 HIT:          0 MISS:          0 MSHR_MERGE:          0
cpu0->cpu0_ITLB PREFETCH REQUESTED:          0 ISSUED:          0 USEFUL:          0 USELESS:          0 LATE:          0
cpu0->cpu0_ITLB AVERAGE MISS LATENCY: 5.031 cycles
cpu0->cpu0_DTLB TOTAL        ACCESS:   11001490 HIT:   10154859 MISS:     846631 MSHR_MERGE:     207548
cpu0->cpu0_DTLB LOAD         ACCESS:   11001490 HIT:   10154859 MISS:     846631 MSHR_MERGE:     207548
cpu0->cpu0_DTLB RFO          ACCESS:          0 HIT:          0 MISS:          0 MSHR_MERGE:          0
cpu0->cpu0_DTLB PREFETCH     ACCESS:          0 HIT:          0 MISS:          0 MSHR_MERGE:          0
cpu0->cpu0_DTLB WRITE        ACCESS:          0 HIT:          0 MISS:          0 MSHR_MERGE:          0
cpu0->cpu0_DTLB TRANSLATION  ACCESS:          0 HIT:          0 MISS:          0 MSHR_MERGE:          0
cpu0->cpu0_DTLB PREFETCH REQUESTED:          0 ISSUED:          0 USEFUL:          0 USELESS:          0 LATE:          0
cpu0->cpu0_DTLB AVERAGE MISS LATENCY: 5.007 cycles
cpu0->LLC TOTAL        ACCESS:     993439 HIT:     893460 MISS:      99979 MSHR_MERGE:         24
cpu0->LLC LOAD         ACCESS:     668649 HIT:     638462 MISS:      30187 MSHR_MERGE:          0
cpu0->LLC RFO          ACCESS:      35873 HIT:      27106 MISS:       8767 MSHR_MERGE:          0
cpu0->LLC PREFETCH     ACCESS:     154255 HIT:      96089 MISS:      58166 MSHR_MERGE:         24
cpu0->LLC WRITE        ACCESS:     134662 HIT:     131803 MISS:       2859 MSHR_MERGE:          0
cpu0->LLC TRANSLATION  ACCESS:          0 HIT:          0 MISS:          0 MSHR_MERGE:          0
cpu0->LLC PREFETCH REQUESTED:          0 ISSUED:          0 USEFUL:          0 USELESS:          0 LATE:          0
cpu0->LLC AVERAGE MISS LATENCY: 183.9 cycles

DRAM Statistics

Channel 0 RQ ROW_BUFFER_HIT:       4029
  ROW_BUFFER_MISS:      93055
  AVG DBUS CONGESTED CYCLE: 13.84
Channel 0 WQ ROW_BUFFER_HIT:      11322
  ROW_BUFFER_MISS:      45910
  FULL:          0
Channel 0 REFRESHES ISSUED:       1988

[ROI Statistics]
[System Configuration]
num_cpus 1
cpu_freq 4000
fetch_width 6
decode_width 6
dispatch_width 6
execute_width 6
lq_width 2
sq_width 2
retire_width 6
scheduler_size 128
branch_mispredict_penalty 15
rob_size 352
lq_size 128
sq_size 72
ifetch_buffer_size 64
decode_buffer_size 32
dispatch_buffer_size 32
register_file_size 288
decode_latency 1
dispatch_latency 1
schedule_latency 1
execute_latency 1
page_size 4096
block_size 64
core_0_itlb_set 16
core_0_itlb_way 4
core_0_itlb_rq_size 16
core_0_itlb_wq_size 16
core_0_itlb_pq_size 0
core_0_itlb_mshr_size 8
core_0_itlb_hit_latency 1
core_0_itlb_fill_latency 1
core_0_itlb_max_tag_check 2
core_0_itlb_max_fill 2
core_0_dtlb_set 16
core_0_dtlb_way 4
core_0_dtlb_rq_size 16
core_0_dtlb_wq_size 16
core_0_dtlb_pq_size 0
core_0_dtlb_mshr_size 8
core_0_dtlb_hit_latency 1
core_0_dtlb_fill_latency 1
core_0_dtlb_max_tag_check 2
core_0_dtlb_max_fill 2
core_0_stlb_set 128
core_0_stlb_way 12
core_0_stlb_rq_size 32
core_0_stlb_wq_size 32
core_0_stlb_pq_size 0
core_0_stlb_mshr_size 16
core_0_stlb_hit_latency 4
core_0_stlb_fill_latency 4
core_0_stlb_max_tag_check 1
core_0_stlb_max_fill 1
core_0_l1i_set 64
core_0_l1i_way 8
core_0_l1i_rq_size 64
core_0_l1i_wq_size 64
core_0_l1i_pq_size 32
core_0_l1i_mshr_size 8
core_0_l1i_hit_latency 2
core_0_l1i_fill_latency 2
core_0_l1i_max_tag_check 2
core_0_l1i_max_fill 2
core_0_l1d_set 64
core_0_l1d_way 12
core_0_l1d_rq_size 64
core_0_l1d_wq_size 64
core_0_l1d_pq_size 8
core_0_l1d_mshr_size 16
core_0_l1d_hit_latency 2
core_0_l1d_fill_latency 3
core_0_l1d_max_tag_check 2
core_0_l1d_max_fill 2
core_0_l2c_set 1024
core_0_l2c_way 8
core_0_l2c_rq_size 32
core_0_l2c_wq_size 32
core_0_l2c_pq_size 16
core_0_l2c_mshr_size 32
core_0_l2c_hit_latency 5
core_0_l2c_fill_latency 5
core_0_l2c_max_tag_check 1
core_0_l2c_max_fill 1
llc_set 2048
llc_way 16
llc_rq_size 32
llc_wq_size 32
llc_pq_size 32
llc_mshr_size 64
llc_hit_latency 10
llc_fill_latency 10
llc_max_tag_check 1
llc_max_fill 1
dram_channels 1
dram_ranks 1
dram_bankgroups 8
dram_banks 4
dram_rows 65536
dram_columns 1024
dram_channel_width 8
dram_rq_size 64
dram_wq_size 64
dram_size 17179869184
core_0_itlb_prefetcher no
core_0_dtlb_prefetcher no
core_0_stlb_prefetcher no
core_0_l1i_prefetcher next_line
core_0_l1d_prefetcher berti
core_0_l2c_prefetcher ip_stride
llc_prefetcher no
llc_replacement drrip

Core_0_instructions 50000000
Core_0_cycles 23856838
Core_0_IPC 2.09584
Core_0_branch_prediction_accuracy 98.7618
Core_0_branch_MPKI 2.2208
Core_0_average_ROB_occupancy_at_mispredict 129.624

Core_0_ITLB_total_access 6697813
Core_0_ITLB_total_hit 6227495
Core_0_ITLB_total_miss 470318
Core_0_ITLB_total_MPKI 9.40636
Core_0_ITLB_total_miss_rate 0.0702196
Core_0_ITLB_demand_access 6697813
Core_0_ITLB_demand_hit 6227495
Core_0_ITLB_demand_miss 470318
Core_0_ITLB_demand_MPKI 9.40636
Core_0_ITLB_demand_miss_rate 0.0702196
Core_0_ITLB_load_access 6697813
Core_0_ITLB_load_hit 6227495
Core_0_ITLB_load_miss 470318
Core_0_ITLB_load_MPKI 9.40636
Core_0_ITLB_load_miss_rate 0.0702196
Core_0_ITLB_rfo_access 0
Core_0_ITLB_rfo_hit 0
Core_0_ITLB_rfo_miss 0
Core_0_ITLB_rfo_MPKI 0
Core_0_ITLB_rfo_miss_rate 0
Core_0_ITLB_prefetch_access 0
Core_0_ITLB_prefetch_hit 0
Core_0_ITLB_prefetch_miss 0
Core_0_ITLB_prefetch_MPKI 0
Core_0_ITLB_prefetch_miss_rate 0
Core_0_ITLB_writeback_access 0
Core_0_ITLB_writeback_hit 0
Core_0_ITLB_writeback_miss 0
Core_0_ITLB_writeback_MPKI 0
Core_0_ITLB_writeback_miss_rate 0
Core_0_ITLB_prefetch_requested 0
Core_0_ITLB_prefetch_issued 0
Core_0_ITLB_prefetch_useful 0
Core_0_ITLB_prefetch_useless 0
Core_0_ITLB_prefetch_late 0
Core_0_ITLB_prefetch_accuracy 0
Core_0_ITLB_prefetch_coverage 0
Core_0_ITLB_total_eviction 0

Core_0_DTLB_total_access 11001490
Core_0_DTLB_total_hit 10154859
Core_0_DTLB_total_miss 846631
Core_0_DTLB_total_MPKI 16.9326
Core_0_DTLB_total_miss_rate 0.076956
Core_0_DTLB_demand_access 11001490
Core_0_DTLB_demand_hit 10154859
Core_0_DTLB_demand_miss 846631
Core_0_DTLB_demand_MPKI 16.9326
Core_0_DTLB_demand_miss_rate 0.076956
Core_0_DTLB_load_access 11001490
Core_0_DTLB_load_hit 10154859
Core_0_DTLB_load_miss 846631
Core_0_DTLB_load_MPKI 16.9326
Core_0_DTLB_load_miss_rate 0.076956
Core_0_DTLB_rfo_access 0
Core_0_DTLB_rfo_hit 0
Core_0_DTLB_rfo_miss 0
Core_0_DTLB_rfo_MPKI 0
Core_0_DTLB_rfo_miss_rate 0
Core_0_DTLB_prefetch_access 0
Core_0_DTLB_prefetch_hit 0
Core_0_DTLB_prefetch_miss 0
Core_0_DTLB_prefetch_MPKI 0
Core_0_DTLB_prefetch_miss_rate 0
Core_0_DTLB_writeback_access 0
Core_0_DTLB_writeback_hit 0
Core_0_DTLB_writeback_miss 0
Core_0_DTLB_writeback_MPKI 0
Core_0_DTLB_writeback_miss_rate 0
Core_0_DTLB_prefetch_requested 0
Core_0_DTLB_prefetch_issued 0
Core_0_DTLB_prefetch_useful 0
Core_0_DTLB_prefetch_useless 0
Core_0_DTLB_prefetch_late 0
Core_0_DTLB_prefetch_accuracy 0
Core_0_DTLB_prefetch_coverage 0
Core_0_DTLB_total_eviction 0

Core_0_STLB_total_access 829399
Core_0_STLB_total_hit 829399
Core_0_STLB_total_miss 0
Core_0_STLB_total_MPKI 0
Core_0_STLB_total_miss_rate 0
Core_0_STLB_demand_access 829399
Core_0_STLB_demand_hit 829399
Core_0_STLB_demand_miss 0
Core_0_STLB_demand_MPKI 0
Core_0_STLB_demand_miss_rate 0
Core_0_STLB_load_access 829399
Core_0_STLB_load_hit 829399
Core_0_STLB_load_miss 0
Core_0_STLB_load_MPKI 0
Core_0_STLB_load_miss_rate 0
Core_0_STLB_rfo_access 0
Core_0_STLB_rfo_hit 0
Core_0_STLB_rfo_miss 0
Core_0_STLB_rfo_MPKI 0
Core_0_STLB_rfo_miss_rate 0
Core_0_STLB_prefetch_access 0
Core_0_STLB_prefetch_hit 0
Core_0_STLB_prefetch_miss 0
Core_0_STLB_prefetch_MPKI 0
Core_0_STLB_prefetch_miss_rate 0
Core_0_STLB_writeback_access 0
Core_0_STLB_writeback_hit 0
Core_0_STLB_writeback_miss 0
Core_0_STLB_writeback_MPKI 0
Core_0_STLB_writeback_miss_rate 0
Core_0_STLB_prefetch_requested 0
Core_0_STLB_prefetch_issued 0
Core_0_STLB_prefetch_useful 0
Core_0_STLB_prefetch_useless 0
Core_0_STLB_prefetch_late 0
Core_0_STLB_prefetch_accuracy 0
Core_0_STLB_prefetch_coverage 0
Core_0_STLB_total_eviction 0

Core_0_L1I_total_access 7876252
Core_0_L1I_total_hit 5770946
Core_0_L1I_total_miss 2105306
Core_0_L1I_total_MPKI 42.1061
Core_0_L1I_total_miss_rate 0.267298
Core_0_L1I_demand_access 7876252
Core_0_L1I_demand_hit 5770946
Core_0_L1I_demand_miss 2105306
Core_0_L1I_demand_MPKI 42.1061
Core_0_L1I_demand_miss_rate 0.267298
Core_0_L1I_load_access 7876252
Core_0_L1I_load_hit 5770946
Core_0_L1I_load_miss 2105306
Core_0_L1I_load_MPKI 42.1061
Core_0_L1I_load_miss_rate 0.267298
Core_0_L1I_rfo_access 0
Core_0_L1I_rfo_hit 0
Core_0_L1I_rfo_miss 0
Core_0_L1I_rfo_MPKI 0
Core_0_L1I_rfo_miss_rate 0
Core_0_L1I_prefetch_access 0
Core_0_L1I_prefetch_hit 0
Core_0_L1I_prefetch_miss 0
Core_0_L1I_prefetch_MPKI 0
Core_0_L1I_prefetch_miss_rate 0
Core_0_L1I_writeback_access 0
Core_0_L1I_writeback_hit 0
Core_0_L1I_writeback_miss 0
Core_0_L1I_writeback_MPKI 0
Core_0_L1I_writeback_miss_rate 0
Core_0_L1I_prefetch_requested 0
Core_0_L1I_prefetch_issued 0
Core_0_L1I_prefetch_useful 0
Core_0_L1I_prefetch_useless 0
Core_0_L1I_prefetch_late 0
Core_0_L1I_prefetch_accuracy 0
Core_0_L1I_prefetch_coverage 0
Core_0_L1I_total_eviction 0

Core_0_L1D_total_access 11789017
Core_0_L1D_total_hit 10696893
Core_0_L1D_total_miss 1092124
Core_0_L1D_total_MPKI 21.8425
Core_0_L1D_total_miss_rate 0.0926391
Core_0_L1D_demand_access 6449383
Core_0_L1D_demand_hit 5808977
Core_0_L1D_demand_miss 640406
Core_0_L1D_demand_MPKI 12.8081
Core_0_L1D_demand_miss_rate 0.0992973
Core_0_L1D_load_access 6449383
Core_0_L1D_load_hit 5808977
Core_0_L1D_load_miss 640406
Core_0_L1D_load_MPKI 12.8081
Core_0_L1D_load_miss_rate 0.0992973
Core_0_L1D_rfo_access 0
Core_0_L1D_rfo_hit 0
Core_0_L1D_rfo_miss 0
Core_0_L1D_rfo_MPKI 0
Core_0_L1D_rfo_miss_rate 0
Core_0_L1D_prefetch_access 406123
Core_0_L1D_prefetch_hit 152493
Core_0_L1D_prefetch_miss 253630
Core_0_L1D_prefetch_MPKI 5.0726
Core_0_L1D_prefetch_miss_rate 0.624515
Core_0_L1D_writeback_access 4933511
Core_0_L1D_writeback_hit 4735423
Core_0_L1D_writeback_miss 198088
Core_0_L1D_writeback_MPKI 3.96176
Core_0_L1D_writeback_miss_rate 0.0401515
Core_0_L1D_prefetch_requested 408346
Core_0_L1D_prefetch_issued 406123
Core_0_L1D_prefetch_useful 101081
Core_0_L1D_prefetch_useless 136529
Core_0_L1D_prefetch_late 10218
Core_0_L1D_prefetch_accuracy 0.248893
Core_0_L1D_prefetch_coverage 0.136322
Core_0_L1D_total_eviction 0

Core_0_L2C_total_access 2381498
Core_0_L2C_total_hit 1505378
Core_0_L2C_total_miss 876120
Core_0_L2C_total_MPKI 17.5224
Core_0_L2C_total_miss_rate 0.367886
Core_0_L2C_demand_access 1830642
Core_0_L2C_demand_hit 1125902
Core_0_L2C_demand_miss 704740
Core_0_L2C_demand_MPKI 14.0948
Core_0_L2C_demand_miss_rate 0.384969
Core_0_L2C_load_access 1755331
Core_0_L2C_load_hit 1086485
Core_0_L2C_load_miss 668846
Core_0_L2C_load_MPKI 13.3769
Core_0_L2C_load_miss_rate 0.381037
Core_0_L2C_rfo_access 75311
Core_0_L2C_rfo_hit 39417
Core_0_L2C_rfo_miss 35894
Core_0_L2C_rfo_MPKI 0.71788
Core_0_L2C_rfo_miss_rate 0.47661
Core_0_L2C_prefetch_access 284639
Core_0_L2C_prefetch_hit 114681
Core_0_L2C_prefetch_miss 169958
Core_0_L2C_prefetch_MPKI 3.39916
Core_0_L2C_prefetch_miss_rate 0.5971
Core_0_L2C_writeback_access 266217
Core_0_L2C_writeback_hit 264795
Core_0_L2C_writeback_miss 1422
Core_0_L2C_writeback_MPKI 0.02844
Core_0_L2C_writeback_miss_rate 0.00534151
Core_0_L2C_prefetch_requested 46994
Core_0_L2C_prefetch_issued 46984
Core_0_L2C_prefetch_useful 15835
Core_0_L2C_prefetch_useless 6137
Core_0_L2C_prefetch_late 218
Core_0_L2C_prefetch_accuracy 0.33703
Core_0_L2C_prefetch_coverage 0.0219755
Core_0_L2C_total_eviction 0

Core_0_LLC_total_access 993439
Core_0_LLC_total_hit 893460
Core_0_LLC_total_miss 99979
Core_0_LLC_total_MPKI 1.99958
Core_0_LLC_total_miss_rate 0.100639
Core_0_LLC_demand_access 704522
Core_0_LLC_demand_hit 665568
Core_0_LLC_demand_miss 38954
Core_0_LLC_demand_MPKI 0.77908
Core_0_LLC_demand_miss_rate 0.0552914
Core_0_LLC_load_access 668649
Core_0_LLC_load_hit 638462
Core_0_LLC_load_miss 30187
Core_0_LLC_load_MPKI 0.60374
Core_0_LLC_load_miss_rate 0.0451463
Core_0_LLC_rfo_access 35873
Core_0_LLC_rfo_hit 27106
Core_0_LLC_rfo_miss 8767
Core_0_LLC_rfo_MPKI 0.17534
Core_0_LLC_rfo_miss_rate 0.24439
Core_0_LLC_prefetch_access 154255
Core_0_LLC_prefetch_hit 96089
Core_0_LLC_prefetch_miss 58166
Core_0_LLC_prefetch_MPKI 1.16332
Core_0_LLC_prefetch_miss_rate 0.377077
Core_0_LLC_writeback_access 134662
Core_0_LLC_writeback_hit 131803
Core_0_LLC_writeback_miss 2859
Core_0_LLC_writeback_MPKI 0.05718
Core_0_LLC_writeback_miss_rate 0.0212309
Core_0_LLC_prefetch_requested 0
Core_0_LLC_prefetch_issued 0
Core_0_LLC_prefetch_useful 0
Core_0_LLC_prefetch_useless 0
Core_0_LLC_prefetch_late 0
Core_0_LLC_prefetch_accuracy 0
Core_0_LLC_prefetch_coverage 0
Core_0_LLC_total_eviction 0

[DRAM Statistics]
Channel_0_RQ_row_buffer_hit 4029
Channel_0_RQ_row_buffer_miss 93055
Channel_0_WQ_row_buffer_hit 11322
Channel_0_WQ_row_buffer_miss 45910
Channel_0_WQ_full 0
Channel_0_dbus_congested 409589
DRAM_total_RQ_row_buffer_hit 4029
DRAM_total_RQ_row_buffer_miss 93055
DRAM_total_WQ_row_buffer_hit 11322
DRAM_total_WQ_row_buffer_miss 45910
DRAM_total_WQ_full 0
DRAM_total_dbus_congested 409589
DRAM_avg_congested_cycle 13.8418

======STLB miss causes ========
Core_0_STLB_miss_cause_breakdown
Core_0_STLB_cause_Demand_Data_miss 0
Core_0_STLB_cause_Demand_Data_miss_rate 0
Core_0_STLB_cause_Demand_Instruction_miss 0
Core_0_STLB_cause_Demand_Instruction_miss_rate 0
Core_0_STLB_cause_L1D_Prefetch_miss 0
Core_0_STLB_cause_L1D_Prefetch_miss_rate 0
Core_0_STLB_cause_L1I_Prefetch_miss 0
Core_0_STLB_cause_L1I_Prefetch_miss_rate 0
Core_0_STLB_cause_Other_miss 0
Core_0_STLB_cause_Other_miss_rate 0
Core_0_STLB_Demand_miss 0
Core_0_STLB_Demand_miss_rate 0
Core_0_STLB_L1D_Prefetch_miss 0
Core_0_STLB_L1D_Prefetch_miss_rate 0
Core_0_STLB_Other_miss 0
Core_0_STLB_Other_miss_rate 0
