[VMEM] WARNING: physical memory size is smaller than virtual memory size.

*** ChampSim Multicore Out-of-Order Simulator ***
Warmup Instructions: 20000000
Simulation Instructions: 50000000
Number of CPUs: 1
Page size: 4096
STLB ideal mode: off
Core 0: /data0/tzh/champsim_traces/SPEC06/433.milc-274B.champsimtrace.xz
 L1D Berti prefetcher
Off-chip DRAM Size: 16 GiB Channels: 1 Width: 64-bit Data Rate: 3205 MT/s
Warmup halting CPU 0 at instruction 20000002 cycle 6917944 for remainder of phase
Warmup finished CPU 0 instructions: 20000002 cycles: 6917944 cumulative IPC: 2.891 (Simulation time: 00 hr 01 min 16 sec)
Warmup complete CPU 0 instructions: 20000002 cycles: 6917944 cumulative IPC: 2.891 (Simulation time: 00 hr 01 min 16 sec)
Simulation finished CPU 0 instructions: 50000003 cycles: 52932259 cumulative IPC: 0.9446 (Simulation time: 00 hr 08 min 46 sec)
Simulation complete CPU 0 instructions: 50000003 cycles: 52932259 cumulative IPC: 0.9446 (Simulation time: 00 hr 08 min 46 sec)

ChampSim completed all CPUs

=== Simulation ===
CPU 0 runs /data0/tzh/champsim_traces/SPEC06/433.milc-274B.champsimtrace.xz

Region of Interest Statistics

CPU 0 cumulative IPC: 0.9446 instructions: 50000003 cycles: 52932259
CPU 0 Branch Prediction Accuracy: 96.62% MPKI: 1.53 Average ROB Occupancy at Mispredict: 193.5
Branch type MPKI
BRANCH_DIRECT_JUMP: 0.00014
BRANCH_INDIRECT: 0
BRANCH_CONDITIONAL: 0.7652
BRANCH_DIRECT_CALL: 0.00018
BRANCH_INDIRECT_CALL: 0
BRANCH_RETURN: 0.7646

cpu0->cpu0_STLB TOTAL        ACCESS:      74227 HIT:      18312 MISS:      55915 MSHR_MERGE:          0
cpu0->cpu0_STLB LOAD         ACCESS:      74227 HIT:      18312 MISS:      55915 MSHR_MERGE:          0
cpu0->cpu0_STLB RFO          ACCESS:          0 HIT:          0 MISS:          0 MSHR_MERGE:          0
cpu0->cpu0_STLB PREFETCH     ACCESS:          0 HIT:          0 MISS:          0 MSHR_MERGE:          0
cpu0->cpu0_STLB WRITE        ACCESS:          0 HIT:          0 MISS:          0 MSHR_MERGE:          0
cpu0->cpu0_STLB TRANSLATION  ACCESS:          0 HIT:          0 MISS:          0 MSHR_MERGE:          0
cpu0->cpu0_STLB PREFETCH REQUESTED:          0 ISSUED:          0 USEFUL:          0 USELESS:          0 LATE:          0
cpu0->cpu0_STLB AVERAGE MISS LATENCY: 243.7 cycles
cpu0->cpu0_L2C TOTAL        ACCESS:    2511048 HIT:     641373 MISS:    1869675 MSHR_MERGE:     611532
cpu0->cpu0_L2C LOAD         ACCESS:     170407 HIT:      31344 MISS:     139063 MSHR_MERGE:      15085
cpu0->cpu0_L2C RFO          ACCESS:     391183 HIT:          2 MISS:     391181 MSHR_MERGE:          1
cpu0->cpu0_L2C PREFETCH     ACCESS:    1436298 HIT:     112873 MISS:    1323425 MSHR_MERGE:     596446
cpu0->cpu0_L2C WRITE        ACCESS:     505834 HIT:     496960 MISS:       8874 MSHR_MERGE:          0
cpu0->cpu0_L2C TRANSLATION  ACCESS:       7326 HIT:        194 MISS:       7132 MSHR_MERGE:          0
cpu0->cpu0_L2C PREFETCH REQUESTED:    1078560 ISSUED:    1078464 USEFUL:     104687 USELESS:     384896 LATE:      15086
cpu0->cpu0_L2C AVERAGE MISS LATENCY: 521.3 cycles
cpu0->cpu0_L1I TOTAL        ACCESS:    6623779 HIT:    6623711 MISS:         68 MSHR_MERGE:         18
cpu0->cpu0_L1I LOAD         ACCESS:    6623779 HIT:    6623711 MISS:         68 MSHR_MERGE:         18
cpu0->cpu0_L1I RFO          ACCESS:          0 HIT:          0 MISS:          0 MSHR_MERGE:          0
cpu0->cpu0_L1I PREFETCH     ACCESS:          0 HIT:          0 MISS:          0 MSHR_MERGE:          0
cpu0->cpu0_L1I WRITE        ACCESS:          0 HIT:          0 MISS:          0 MSHR_MERGE:          0
cpu0->cpu0_L1I TRANSLATION  ACCESS:          0 HIT:          0 MISS:          0 MSHR_MERGE:          0
cpu0->cpu0_L1I PREFETCH REQUESTED:          0 ISSUED:          0 USEFUL:          0 USELESS:          0 LATE:          0
cpu0->cpu0_L1I AVERAGE MISS LATENCY: 259.5 cycles
cpu0->cpu0_L1D TOTAL        ACCESS:   12367515 HIT:    7820464 MISS:    4547051 MSHR_MERGE:    3620347
cpu0->cpu0_L1D LOAD         ACCESS:    6412733 HIT:    5404296 MISS:    1008437 MSHR_MERGE:     838080
cpu0->cpu0_L1D RFO          ACCESS:          0 HIT:          0 MISS:          0 MSHR_MERGE:          0
cpu0->cpu0_L1D PREFETCH     ACCESS:     435513 HIT:      18357 MISS:     417156 MSHR_MERGE:      59318
cpu0->cpu0_L1D WRITE        ACCESS:    5407322 HIT:    2293190 MISS:    3114132 MSHR_MERGE:    2722949
cpu0->cpu0_L1D TRANSLATION  ACCESS:     111947 HIT:     104621 MISS:       7326 MSHR_MERGE:          0
cpu0->cpu0_L1D PREFETCH REQUESTED:     435677 ISSUED:     435516 USEFUL:     353183 USELESS:       4670 LATE:      20576
cpu0->cpu0_L1D AVERAGE MISS LATENCY: 498.1 cycles
cpu0->cpu0_ITLB TOTAL        ACCESS:    5667254 HIT:    5667247 MISS:          7 MSHR_MERGE:          2
cpu0->cpu0_ITLB LOAD         ACCESS:    5667254 HIT:    5667247 MISS:          7 MSHR_MERGE:          2
cpu0->cpu0_ITLB RFO          ACCESS:          0 HIT:          0 MISS:          0 MSHR_MERGE:          0
cpu0->cpu0_ITLB PREFETCH     ACCESS:          0 HIT:          0 MISS:          0 MSHR_MERGE:          0
cpu0->cpu0_ITLB WRITE        ACCESS:          0 HIT:          0 MISS:          0 MSHR_MERGE:          0
cpu0->cpu0_ITLB TRANSLATION  ACCESS:          0 HIT:          0 MISS:          0 MSHR_MERGE:          0
cpu0->cpu0_ITLB PREFETCH REQUESTED:          0 ISSUED:          0 USEFUL:          0 USELESS:          0 LATE:          0
cpu0->cpu0_ITLB AVERAGE MISS LATENCY: 387.4 cycles
cpu0->cpu0_DTLB TOTAL        ACCESS:   11549320 HIT:   10871005 MISS:     678315 MSHR_MERGE:     604093
cpu0->cpu0_DTLB LOAD         ACCESS:   11549320 HIT:   10871005 MISS:     678315 MSHR_MERGE:     604093
cpu0->cpu0_DTLB RFO          ACCESS:          0 HIT:          0 MISS:          0 MSHR_MERGE:          0
cpu0->cpu0_DTLB PREFETCH     ACCESS:          0 HIT:          0 MISS:          0 MSHR_MERGE:          0
cpu0->cpu0_DTLB WRITE        ACCESS:          0 HIT:          0 MISS:          0 MSHR_MERGE:          0
cpu0->cpu0_DTLB TRANSLATION  ACCESS:          0 HIT:          0 MISS:          0 MSHR_MERGE:          0
cpu0->cpu0_DTLB PREFETCH REQUESTED:          0 ISSUED:          0 USEFUL:          0 USELESS:          0 LATE:          0
cpu0->cpu0_DTLB AVERAGE MISS LATENCY: 189.3 cycles
cpu0->LLC TOTAL        ACCESS:    1752354 HIT:     442066 MISS:    1310288 MSHR_MERGE:          0
cpu0->LLC LOAD         ACCESS:     123977 HIT:          6 MISS:     123971 MSHR_MERGE:          0
cpu0->LLC RFO          ACCESS:     391179 HIT:          0 MISS:     391179 MSHR_MERGE:          0
cpu0->LLC PREFETCH     ACCESS:     726978 HIT:        983 MISS:     725995 MSHR_MERGE:          0
cpu0->LLC WRITE        ACCESS:     503088 HIT:     440987 MISS:      62101 MSHR_MERGE:          0
cpu0->LLC TRANSLATION  ACCESS:       7132 HIT:         90 MISS:       7042 MSHR_MERGE:          0
cpu0->LLC PREFETCH REQUESTED:          0 ISSUED:          0 USEFUL:          0 USELESS:          0 LATE:          0
cpu0->LLC AVERAGE MISS LATENCY: 468.2 cycles

DRAM Statistics

Channel 0 RQ ROW_BUFFER_HIT:     241487
  ROW_BUFFER_MISS:    1006699
  AVG DBUS CONGESTED CYCLE: 7.214
Channel 0 WQ ROW_BUFFER_HIT:      67193
  ROW_BUFFER_MISS:     431439
  FULL:          0
Channel 0 REFRESHES ISSUED:       4411

[ROI Statistics]
[System Configuration]
num_cpus 1
cpu_freq 4000
fetch_width 6
decode_width 6
dispatch_width 6
execute_width 6
lq_width 2
sq_width 2
retire_width 6
scheduler_size 128
branch_mispredict_penalty 15
rob_size 352
lq_size 128
sq_size 72
ifetch_buffer_size 64
decode_buffer_size 32
dispatch_buffer_size 32
register_file_size 288
decode_latency 1
dispatch_latency 1
schedule_latency 1
execute_latency 1
page_size 4096
block_size 64
core_0_itlb_set 16
core_0_itlb_way 4
core_0_itlb_rq_size 16
core_0_itlb_wq_size 16
core_0_itlb_pq_size 0
core_0_itlb_mshr_size 8
core_0_itlb_hit_latency 1
core_0_itlb_fill_latency 1
core_0_itlb_max_tag_check 2
core_0_itlb_max_fill 2
core_0_dtlb_set 16
core_0_dtlb_way 4
core_0_dtlb_rq_size 16
core_0_dtlb_wq_size 16
core_0_dtlb_pq_size 0
core_0_dtlb_mshr_size 8
core_0_dtlb_hit_latency 1
core_0_dtlb_fill_latency 1
core_0_dtlb_max_tag_check 2
core_0_dtlb_max_fill 2
core_0_stlb_set 128
core_0_stlb_way 12
core_0_stlb_rq_size 32
core_0_stlb_wq_size 32
core_0_stlb_pq_size 0
core_0_stlb_mshr_size 16
core_0_stlb_hit_latency 4
core_0_stlb_fill_latency 4
core_0_stlb_max_tag_check 1
core_0_stlb_max_fill 1
core_0_l1i_set 64
core_0_l1i_way 8
core_0_l1i_rq_size 64
core_0_l1i_wq_size 64
core_0_l1i_pq_size 32
core_0_l1i_mshr_size 8
core_0_l1i_hit_latency 2
core_0_l1i_fill_latency 2
core_0_l1i_max_tag_check 2
core_0_l1i_max_fill 2
core_0_l1d_set 64
core_0_l1d_way 12
core_0_l1d_rq_size 64
core_0_l1d_wq_size 64
core_0_l1d_pq_size 8
core_0_l1d_mshr_size 16
core_0_l1d_hit_latency 2
core_0_l1d_fill_latency 3
core_0_l1d_max_tag_check 2
core_0_l1d_max_fill 2
core_0_l2c_set 1024
core_0_l2c_way 8
core_0_l2c_rq_size 32
core_0_l2c_wq_size 32
core_0_l2c_pq_size 16
core_0_l2c_mshr_size 32
core_0_l2c_hit_latency 5
core_0_l2c_fill_latency 5
core_0_l2c_max_tag_check 1
core_0_l2c_max_fill 1
llc_set 2048
llc_way 16
llc_rq_size 32
llc_wq_size 32
llc_pq_size 32
llc_mshr_size 64
llc_hit_latency 10
llc_fill_latency 10
llc_max_tag_check 1
llc_max_fill 1
dram_channels 1
dram_ranks 1
dram_bankgroups 8
dram_banks 4
dram_rows 65536
dram_columns 1024
dram_channel_width 8
dram_rq_size 64
dram_wq_size 64
dram_size 17179869184
core_0_itlb_prefetcher no
core_0_dtlb_prefetcher no
core_0_stlb_prefetcher no
core_0_l1i_prefetcher next_line
core_0_l1d_prefetcher berti
core_0_l2c_prefetcher pythia
llc_prefetcher no
llc_replacement drrip

Core_0_instructions 50000003
Core_0_cycles 52932259
Core_0_IPC 0.944604
Core_0_branch_prediction_accuracy 96.6191
Core_0_branch_MPKI 1.53012
Core_0_average_ROB_occupancy_at_mispredict 193.457

Core_0_ITLB_total_access 5667254
Core_0_ITLB_total_hit 5667247
Core_0_ITLB_total_miss 7
Core_0_ITLB_total_MPKI 0.00014
Core_0_ITLB_total_miss_rate 1.23517e-06
Core_0_ITLB_demand_access 5667254
Core_0_ITLB_demand_hit 5667247
Core_0_ITLB_demand_miss 7
Core_0_ITLB_demand_MPKI 0.00014
Core_0_ITLB_demand_miss_rate 1.23517e-06
Core_0_ITLB_load_access 5667254
Core_0_ITLB_load_hit 5667247
Core_0_ITLB_load_miss 7
Core_0_ITLB_load_MPKI 0.00014
Core_0_ITLB_load_miss_rate 1.23517e-06
Core_0_ITLB_rfo_access 0
Core_0_ITLB_rfo_hit 0
Core_0_ITLB_rfo_miss 0
Core_0_ITLB_rfo_MPKI 0
Core_0_ITLB_rfo_miss_rate 0
Core_0_ITLB_prefetch_access 0
Core_0_ITLB_prefetch_hit 0
Core_0_ITLB_prefetch_miss 0
Core_0_ITLB_prefetch_MPKI 0
Core_0_ITLB_prefetch_miss_rate 0
Core_0_ITLB_writeback_access 0
Core_0_ITLB_writeback_hit 0
Core_0_ITLB_writeback_miss 0
Core_0_ITLB_writeback_MPKI 0
Core_0_ITLB_writeback_miss_rate 0
Core_0_ITLB_prefetch_requested 0
Core_0_ITLB_prefetch_issued 0
Core_0_ITLB_prefetch_useful 0
Core_0_ITLB_prefetch_useless 0
Core_0_ITLB_prefetch_late 0
Core_0_ITLB_prefetch_accuracy 0
Core_0_ITLB_prefetch_coverage 0

Core_0_DTLB_total_access 11549320
Core_0_DTLB_total_hit 10871005
Core_0_DTLB_total_miss 678315
Core_0_DTLB_total_MPKI 13.5663
Core_0_DTLB_total_miss_rate 0.058732
Core_0_DTLB_demand_access 11549320
Core_0_DTLB_demand_hit 10871005
Core_0_DTLB_demand_miss 678315
Core_0_DTLB_demand_MPKI 13.5663
Core_0_DTLB_demand_miss_rate 0.058732
Core_0_DTLB_load_access 11549320
Core_0_DTLB_load_hit 10871005
Core_0_DTLB_load_miss 678315
Core_0_DTLB_load_MPKI 13.5663
Core_0_DTLB_load_miss_rate 0.058732
Core_0_DTLB_rfo_access 0
Core_0_DTLB_rfo_hit 0
Core_0_DTLB_rfo_miss 0
Core_0_DTLB_rfo_MPKI 0
Core_0_DTLB_rfo_miss_rate 0
Core_0_DTLB_prefetch_access 0
Core_0_DTLB_prefetch_hit 0
Core_0_DTLB_prefetch_miss 0
Core_0_DTLB_prefetch_MPKI 0
Core_0_DTLB_prefetch_miss_rate 0
Core_0_DTLB_writeback_access 0
Core_0_DTLB_writeback_hit 0
Core_0_DTLB_writeback_miss 0
Core_0_DTLB_writeback_MPKI 0
Core_0_DTLB_writeback_miss_rate 0
Core_0_DTLB_prefetch_requested 0
Core_0_DTLB_prefetch_issued 0
Core_0_DTLB_prefetch_useful 0
Core_0_DTLB_prefetch_useless 0
Core_0_DTLB_prefetch_late 0
Core_0_DTLB_prefetch_accuracy 0
Core_0_DTLB_prefetch_coverage 0

Core_0_STLB_total_access 74227
Core_0_STLB_total_hit 18312
Core_0_STLB_total_miss 55915
Core_0_STLB_total_MPKI 1.1183
Core_0_STLB_total_miss_rate 0.753297
Core_0_STLB_demand_access 74227
Core_0_STLB_demand_hit 18312
Core_0_STLB_demand_miss 55915
Core_0_STLB_demand_MPKI 1.1183
Core_0_STLB_demand_miss_rate 0.753297
Core_0_STLB_load_access 74227
Core_0_STLB_load_hit 18312
Core_0_STLB_load_miss 55915
Core_0_STLB_load_MPKI 1.1183
Core_0_STLB_load_miss_rate 0.753297
Core_0_STLB_rfo_access 0
Core_0_STLB_rfo_hit 0
Core_0_STLB_rfo_miss 0
Core_0_STLB_rfo_MPKI 0
Core_0_STLB_rfo_miss_rate 0
Core_0_STLB_prefetch_access 0
Core_0_STLB_prefetch_hit 0
Core_0_STLB_prefetch_miss 0
Core_0_STLB_prefetch_MPKI 0
Core_0_STLB_prefetch_miss_rate 0
Core_0_STLB_writeback_access 0
Core_0_STLB_writeback_hit 0
Core_0_STLB_writeback_miss 0
Core_0_STLB_writeback_MPKI 0
Core_0_STLB_writeback_miss_rate 0
Core_0_STLB_prefetch_requested 0
Core_0_STLB_prefetch_issued 0
Core_0_STLB_prefetch_useful 0
Core_0_STLB_prefetch_useless 0
Core_0_STLB_prefetch_late 0
Core_0_STLB_prefetch_accuracy 0
Core_0_STLB_prefetch_coverage 0

Core_0_L1I_total_access 6623779
Core_0_L1I_total_hit 6623711
Core_0_L1I_total_miss 68
Core_0_L1I_total_MPKI 0.00136
Core_0_L1I_total_miss_rate 1.0266e-05
Core_0_L1I_demand_access 6623779
Core_0_L1I_demand_hit 6623711
Core_0_L1I_demand_miss 68
Core_0_L1I_demand_MPKI 0.00136
Core_0_L1I_demand_miss_rate 1.0266e-05
Core_0_L1I_load_access 6623779
Core_0_L1I_load_hit 6623711
Core_0_L1I_load_miss 68
Core_0_L1I_load_MPKI 0.00136
Core_0_L1I_load_miss_rate 1.0266e-05
Core_0_L1I_rfo_access 0
Core_0_L1I_rfo_hit 0
Core_0_L1I_rfo_miss 0
Core_0_L1I_rfo_MPKI 0
Core_0_L1I_rfo_miss_rate 0
Core_0_L1I_prefetch_access 0
Core_0_L1I_prefetch_hit 0
Core_0_L1I_prefetch_miss 0
Core_0_L1I_prefetch_MPKI 0
Core_0_L1I_prefetch_miss_rate 0
Core_0_L1I_writeback_access 0
Core_0_L1I_writeback_hit 0
Core_0_L1I_writeback_miss 0
Core_0_L1I_writeback_MPKI 0
Core_0_L1I_writeback_miss_rate 0
Core_0_L1I_prefetch_requested 0
Core_0_L1I_prefetch_issued 0
Core_0_L1I_prefetch_useful 0
Core_0_L1I_prefetch_useless 0
Core_0_L1I_prefetch_late 0
Core_0_L1I_prefetch_accuracy 0
Core_0_L1I_prefetch_coverage 0

Core_0_L1D_total_access 12255568
Core_0_L1D_total_hit 7715843
Core_0_L1D_total_miss 4539725
Core_0_L1D_total_MPKI 90.7945
Core_0_L1D_total_miss_rate 0.370421
Core_0_L1D_demand_access 6412733
Core_0_L1D_demand_hit 5404296
Core_0_L1D_demand_miss 1008437
Core_0_L1D_demand_MPKI 20.1687
Core_0_L1D_demand_miss_rate 0.157255
Core_0_L1D_load_access 6412733
Core_0_L1D_load_hit 5404296
Core_0_L1D_load_miss 1008437
Core_0_L1D_load_MPKI 20.1687
Core_0_L1D_load_miss_rate 0.157255
Core_0_L1D_rfo_access 0
Core_0_L1D_rfo_hit 0
Core_0_L1D_rfo_miss 0
Core_0_L1D_rfo_MPKI 0
Core_0_L1D_rfo_miss_rate 0
Core_0_L1D_prefetch_access 435513
Core_0_L1D_prefetch_hit 18357
Core_0_L1D_prefetch_miss 417156
Core_0_L1D_prefetch_MPKI 8.34312
Core_0_L1D_prefetch_miss_rate 0.95785
Core_0_L1D_writeback_access 5407322
Core_0_L1D_writeback_hit 2293190
Core_0_L1D_writeback_miss 3114132
Core_0_L1D_writeback_MPKI 62.2826
Core_0_L1D_writeback_miss_rate 0.57591
Core_0_L1D_prefetch_requested 435677
Core_0_L1D_prefetch_issued 435516
Core_0_L1D_prefetch_useful 353183
Core_0_L1D_prefetch_useless 4670
Core_0_L1D_prefetch_late 20576
Core_0_L1D_prefetch_accuracy 0.810953
Core_0_L1D_prefetch_coverage 0.259384

Core_0_L2C_total_access 2503722
Core_0_L2C_total_hit 641179
Core_0_L2C_total_miss 1862543
Core_0_L2C_total_MPKI 37.2509
Core_0_L2C_total_miss_rate 0.74391
Core_0_L2C_demand_access 561590
Core_0_L2C_demand_hit 31346
Core_0_L2C_demand_miss 530244
Core_0_L2C_demand_MPKI 10.6049
Core_0_L2C_demand_miss_rate 0.944183
Core_0_L2C_load_access 170407
Core_0_L2C_load_hit 31344
Core_0_L2C_load_miss 139063
Core_0_L2C_load_MPKI 2.78126
Core_0_L2C_load_miss_rate 0.816064
Core_0_L2C_rfo_access 391183
Core_0_L2C_rfo_hit 2
Core_0_L2C_rfo_miss 391181
Core_0_L2C_rfo_MPKI 7.82362
Core_0_L2C_rfo_miss_rate 0.999995
Core_0_L2C_prefetch_access 1436298
Core_0_L2C_prefetch_hit 112873
Core_0_L2C_prefetch_miss 1323425
Core_0_L2C_prefetch_MPKI 26.4685
Core_0_L2C_prefetch_miss_rate 0.921414
Core_0_L2C_writeback_access 505834
Core_0_L2C_writeback_hit 496960
Core_0_L2C_writeback_miss 8874
Core_0_L2C_writeback_MPKI 0.17748
Core_0_L2C_writeback_miss_rate 0.0175433
Core_0_L2C_prefetch_requested 1078560
Core_0_L2C_prefetch_issued 1078464
Core_0_L2C_prefetch_useful 104687
Core_0_L2C_prefetch_useless 384896
Core_0_L2C_prefetch_late 15086
Core_0_L2C_prefetch_accuracy 0.0970705
Core_0_L2C_prefetch_coverage 0.164879

Core_0_LLC_total_access 1745222
Core_0_LLC_total_hit 441976
Core_0_LLC_total_miss 1303246
Core_0_LLC_total_MPKI 26.0649
Core_0_LLC_total_miss_rate 0.746751
Core_0_LLC_demand_access 515156
Core_0_LLC_demand_hit 6
Core_0_LLC_demand_miss 515150
Core_0_LLC_demand_MPKI 10.303
Core_0_LLC_demand_miss_rate 0.999988
Core_0_LLC_load_access 123977
Core_0_LLC_load_hit 6
Core_0_LLC_load_miss 123971
Core_0_LLC_load_MPKI 2.47942
Core_0_LLC_load_miss_rate 0.999952
Core_0_LLC_rfo_access 391179
Core_0_LLC_rfo_hit 0
Core_0_LLC_rfo_miss 391179
Core_0_LLC_rfo_MPKI 7.82358
Core_0_LLC_rfo_miss_rate 1
Core_0_LLC_prefetch_access 726978
Core_0_LLC_prefetch_hit 983
Core_0_LLC_prefetch_miss 725995
Core_0_LLC_prefetch_MPKI 14.5199
Core_0_LLC_prefetch_miss_rate 0.998648
Core_0_LLC_writeback_access 503088
Core_0_LLC_writeback_hit 440987
Core_0_LLC_writeback_miss 62101
Core_0_LLC_writeback_MPKI 1.24202
Core_0_LLC_writeback_miss_rate 0.12344
Core_0_LLC_prefetch_requested 0
Core_0_LLC_prefetch_issued 0
Core_0_LLC_prefetch_useful 0
Core_0_LLC_prefetch_useless 0
Core_0_LLC_prefetch_late 0
Core_0_LLC_prefetch_accuracy 0
Core_0_LLC_prefetch_coverage 0

[DRAM Statistics]
Channel_0_RQ_row_buffer_hit 241487
Channel_0_RQ_row_buffer_miss 1006699
Channel_0_WQ_row_buffer_hit 67193
Channel_0_WQ_row_buffer_miss 431439
Channel_0_WQ_full 0
Channel_0_dbus_congested 5142023
DRAM_total_RQ_row_buffer_hit 241487
DRAM_total_RQ_row_buffer_miss 1006699
DRAM_total_WQ_row_buffer_hit 67193
DRAM_total_WQ_row_buffer_miss 431439
DRAM_total_WQ_full 0
DRAM_total_dbus_congested 5142023
DRAM_avg_congested_cycle 7.21409

======STLB miss causes ========
Core_0_STLB_miss_cause_breakdown
Core_0_STLB_cause_Demand_Data_miss 50918
Core_0_STLB_cause_Demand_Data_miss_rate 0.685977
Core_0_STLB_cause_Demand_Instruction_miss 5
Core_0_STLB_cause_Demand_Instruction_miss_rate 6.73609e-05
Core_0_STLB_cause_L1D_Prefetch_miss 4992
Core_0_STLB_cause_L1D_Prefetch_miss_rate 0.0672532
Core_0_STLB_cause_L1I_Prefetch_miss 0
Core_0_STLB_cause_L1I_Prefetch_miss_rate 0
Core_0_STLB_cause_Other_miss 0
Core_0_STLB_cause_Other_miss_rate 0
Core_0_STLB_Demand_miss 50923
Core_0_STLB_Demand_miss_rate 0.686044
Core_0_STLB_L1D_Prefetch_miss 4992
Core_0_STLB_L1D_Prefetch_miss_rate 0.0672532
Core_0_STLB_Other_miss 0
Core_0_STLB_Other_miss_rate 0
