[VMEM] WARNING: physical memory size is smaller than virtual memory size.

*** ChampSim Multicore Out-of-Order Simulator ***
Warmup Instructions: 20000000
Simulation Instructions: 50000000
Number of CPUs: 1
Page size: 4096
STLB ideal mode: off
Core 0: /data0/tzh/champsim_traces/Ligra/ligra_Radii.com-lj.ungraph.gcc_6.3.0_O3.drop_25000M.length_250M.champsimtrace.xz
 L1D Berti prefetcher
Off-chip DRAM Size: 16 GiB Channels: 1 Width: 64-bit Data Rate: 3205 MT/s
Warmup halting CPU 0 at instruction 20000004 cycle 6863504 for remainder of phase
Warmup finished CPU 0 instructions: 20000004 cycles: 6863504 cumulative IPC: 2.914 (Simulation time: 00 hr 01 min 37 sec)
Warmup complete CPU 0 instructions: 20000004 cycles: 6863504 cumulative IPC: 2.914 (Simulation time: 00 hr 01 min 37 sec)
Simulation finished CPU 0 instructions: 50000000 cycles: 177969599 cumulative IPC: 0.2809 (Simulation time: 00 hr 17 min 57 sec)
Simulation complete CPU 0 instructions: 50000000 cycles: 177969599 cumulative IPC: 0.2809 (Simulation time: 00 hr 17 min 57 sec)

ChampSim completed all CPUs

=== Simulation ===
CPU 0 runs /data0/tzh/champsim_traces/Ligra/ligra_Radii.com-lj.ungraph.gcc_6.3.0_O3.drop_25000M.length_250M.champsimtrace.xz

Region of Interest Statistics

CPU 0 cumulative IPC: 0.2809 instructions: 50000000 cycles: 177969599
CPU 0 Branch Prediction Accuracy: 90.09% MPKI: 16.71 Average ROB Occupancy at Mispredict: 27.45
Branch type MPKI
BRANCH_DIRECT_JUMP: 0.00048
BRANCH_INDIRECT: 0
BRANCH_CONDITIONAL: 16.71
BRANCH_DIRECT_CALL: 0.00038
BRANCH_INDIRECT_CALL: 0
BRANCH_RETURN: 0.0004

cpu0->cpu0_STLB TOTAL        ACCESS:    1190439 HIT:     246448 MISS:     943991 MSHR_MERGE:          0
cpu0->cpu0_STLB LOAD         ACCESS:    1190439 HIT:     246448 MISS:     943991 MSHR_MERGE:          0
cpu0->cpu0_STLB RFO          ACCESS:          0 HIT:          0 MISS:          0 MSHR_MERGE:          0
cpu0->cpu0_STLB PREFETCH     ACCESS:          0 HIT:          0 MISS:          0 MSHR_MERGE:          0
cpu0->cpu0_STLB WRITE        ACCESS:          0 HIT:          0 MISS:          0 MSHR_MERGE:          0
cpu0->cpu0_STLB TRANSLATION  ACCESS:          0 HIT:          0 MISS:          0 MSHR_MERGE:          0
cpu0->cpu0_STLB PREFETCH REQUESTED:          0 ISSUED:          0 USEFUL:          0 USELESS:          0 LATE:          0
cpu0->cpu0_STLB AVERAGE MISS LATENCY: 89.85 cycles
cpu0->cpu0_L2C TOTAL        ACCESS:    7703469 HIT:    3148249 MISS:    4555220 MSHR_MERGE:     612799
cpu0->cpu0_L2C LOAD         ACCESS:    1498422 HIT:     186902 MISS:    1311520 MSHR_MERGE:      50785
cpu0->cpu0_L2C RFO          ACCESS:     355730 HIT:       2738 MISS:     352992 MSHR_MERGE:          0
cpu0->cpu0_L2C PREFETCH     ACCESS:    4315764 HIT:    1718424 MISS:    2597340 MSHR_MERGE:     562014
cpu0->cpu0_L2C WRITE        ACCESS:     760656 HIT:     760548 MISS:        108 MSHR_MERGE:          0
cpu0->cpu0_L2C TRANSLATION  ACCESS:     772897 HIT:     479637 MISS:     293260 MSHR_MERGE:          0
cpu0->cpu0_L2C PREFETCH REQUESTED:    3806013 ISSUED:    3774271 USEFUL:     533513 USELESS:    1314663 LATE:      50785
cpu0->cpu0_L2C AVERAGE MISS LATENCY: 301.6 cycles
cpu0->cpu0_L1I TOTAL        ACCESS:    2377911 HIT:    2377831 MISS:         80 MSHR_MERGE:         13
cpu0->cpu0_L1I LOAD         ACCESS:    2377911 HIT:    2377831 MISS:         80 MSHR_MERGE:         13
cpu0->cpu0_L1I RFO          ACCESS:          0 HIT:          0 MISS:          0 MSHR_MERGE:          0
cpu0->cpu0_L1I PREFETCH     ACCESS:          0 HIT:          0 MISS:          0 MSHR_MERGE:          0
cpu0->cpu0_L1I WRITE        ACCESS:          0 HIT:          0 MISS:          0 MSHR_MERGE:          0
cpu0->cpu0_L1I TRANSLATION  ACCESS:          0 HIT:          0 MISS:          0 MSHR_MERGE:          0
cpu0->cpu0_L1I PREFETCH REQUESTED:          0 ISSUED:          0 USEFUL:          0 USELESS:          0 LATE:          0
cpu0->cpu0_L1I AVERAGE MISS LATENCY: 234.2 cycles
cpu0->cpu0_L1D TOTAL        ACCESS:   17257534 HIT:   12096968 MISS:    5160566 MSHR_MERGE:    1992097
cpu0->cpu0_L1D LOAD         ACCESS:   10261760 HIT:    8285446 MISS:    1976314 MSHR_MERGE:     477958
cpu0->cpu0_L1D RFO          ACCESS:          0 HIT:          0 MISS:          0 MSHR_MERGE:          0
cpu0->cpu0_L1D PREFETCH     ACCESS:     625616 HIT:      71732 MISS:     553884 MSHR_MERGE:      12404
cpu0->cpu0_L1D WRITE        ACCESS:    4448319 HIT:    2594507 MISS:    1853812 MSHR_MERGE:    1498075
cpu0->cpu0_L1D TRANSLATION  ACCESS:    1921839 HIT:    1145283 MISS:     776556 MSHR_MERGE:       3660
cpu0->cpu0_L1D PREFETCH REQUESTED:     631622 ISSUED:     625608 USEFUL:     334522 USELESS:     206924 LATE:      17862
cpu0->cpu0_L1D AVERAGE MISS LATENCY: 232.9 cycles
cpu0->cpu0_ITLB TOTAL        ACCESS:    2038962 HIT:    2038956 MISS:          6 MSHR_MERGE:          2
cpu0->cpu0_ITLB LOAD         ACCESS:    2038962 HIT:    2038956 MISS:          6 MSHR_MERGE:          2
cpu0->cpu0_ITLB RFO          ACCESS:          0 HIT:          0 MISS:          0 MSHR_MERGE:          0
cpu0->cpu0_ITLB PREFETCH     ACCESS:          0 HIT:          0 MISS:          0 MSHR_MERGE:          0
cpu0->cpu0_ITLB WRITE        ACCESS:          0 HIT:          0 MISS:          0 MSHR_MERGE:          0
cpu0->cpu0_ITLB TRANSLATION  ACCESS:          0 HIT:          0 MISS:          0 MSHR_MERGE:          0
cpu0->cpu0_ITLB PREFETCH REQUESTED:          0 ISSUED:          0 USEFUL:          0 USELESS:          0 LATE:          0
cpu0->cpu0_ITLB AVERAGE MISS LATENCY: 476.8 cycles
cpu0->cpu0_DTLB TOTAL        ACCESS:   14868137 HIT:   13312427 MISS:    1555710 MSHR_MERGE:     365275
cpu0->cpu0_DTLB LOAD         ACCESS:   14868137 HIT:   13312427 MISS:    1555710 MSHR_MERGE:     365275
cpu0->cpu0_DTLB RFO          ACCESS:          0 HIT:          0 MISS:          0 MSHR_MERGE:          0
cpu0->cpu0_DTLB PREFETCH     ACCESS:          0 HIT:          0 MISS:          0 MSHR_MERGE:          0
cpu0->cpu0_DTLB WRITE        ACCESS:          0 HIT:          0 MISS:          0 MSHR_MERGE:          0
cpu0->cpu0_DTLB TRANSLATION  ACCESS:          0 HIT:          0 MISS:          0 MSHR_MERGE:          0
cpu0->cpu0_DTLB PREFETCH REQUESTED:          0 ISSUED:          0 USEFUL:          0 USELESS:          0 LATE:          0
cpu0->cpu0_DTLB AVERAGE MISS LATENCY: 77.05 cycles
cpu0->LLC TOTAL        ACCESS:    4697505 HIT:     726854 MISS:    3970651 MSHR_MERGE:          0
cpu0->LLC LOAD         ACCESS:    1260735 HIT:      44083 MISS:    1216652 MSHR_MERGE:          0
cpu0->LLC RFO          ACCESS:     352992 HIT:      12518 MISS:     340474 MSHR_MERGE:          0
cpu0->LLC PREFETCH     ACCESS:    2035326 HIT:      93844 MISS:    1941482 MSHR_MERGE:          0
cpu0->LLC WRITE        ACCESS:     755192 HIT:     325848 MISS:     429344 MSHR_MERGE:          0
cpu0->LLC TRANSLATION  ACCESS:     293260 HIT:     250561 MISS:      42699 MSHR_MERGE:          0
cpu0->LLC PREFETCH REQUESTED:          0 ISSUED:          0 USEFUL:          0 USELESS:          0 LATE:          0
cpu0->LLC AVERAGE MISS LATENCY: 269.9 cycles

DRAM Statistics

Channel 0 RQ ROW_BUFFER_HIT:      64670
  ROW_BUFFER_MISS:    3476424
  AVG DBUS CONGESTED CYCLE: 5.627
Channel 0 WQ ROW_BUFFER_HIT:     149881
  ROW_BUFFER_MISS:     572428
  FULL:        158
Channel 0 REFRESHES ISSUED:      14831

[ROI Statistics]
[System Configuration]
num_cpus 1
cpu_freq 4000
fetch_width 6
decode_width 6
dispatch_width 6
execute_width 6
lq_width 2
sq_width 2
retire_width 6
scheduler_size 128
branch_mispredict_penalty 15
rob_size 352
lq_size 128
sq_size 72
ifetch_buffer_size 64
decode_buffer_size 32
dispatch_buffer_size 32
register_file_size 288
decode_latency 1
dispatch_latency 1
schedule_latency 1
execute_latency 1
page_size 4096
block_size 64
core_0_itlb_set 16
core_0_itlb_way 4
core_0_itlb_rq_size 16
core_0_itlb_wq_size 16
core_0_itlb_pq_size 0
core_0_itlb_mshr_size 8
core_0_itlb_hit_latency 1
core_0_itlb_fill_latency 1
core_0_itlb_max_tag_check 2
core_0_itlb_max_fill 2
core_0_dtlb_set 16
core_0_dtlb_way 4
core_0_dtlb_rq_size 16
core_0_dtlb_wq_size 16
core_0_dtlb_pq_size 0
core_0_dtlb_mshr_size 8
core_0_dtlb_hit_latency 1
core_0_dtlb_fill_latency 1
core_0_dtlb_max_tag_check 2
core_0_dtlb_max_fill 2
core_0_stlb_set 128
core_0_stlb_way 12
core_0_stlb_rq_size 32
core_0_stlb_wq_size 32
core_0_stlb_pq_size 0
core_0_stlb_mshr_size 16
core_0_stlb_hit_latency 4
core_0_stlb_fill_latency 4
core_0_stlb_max_tag_check 1
core_0_stlb_max_fill 1
core_0_l1i_set 64
core_0_l1i_way 8
core_0_l1i_rq_size 64
core_0_l1i_wq_size 64
core_0_l1i_pq_size 32
core_0_l1i_mshr_size 8
core_0_l1i_hit_latency 2
core_0_l1i_fill_latency 2
core_0_l1i_max_tag_check 2
core_0_l1i_max_fill 2
core_0_l1d_set 64
core_0_l1d_way 12
core_0_l1d_rq_size 64
core_0_l1d_wq_size 64
core_0_l1d_pq_size 8
core_0_l1d_mshr_size 16
core_0_l1d_hit_latency 2
core_0_l1d_fill_latency 3
core_0_l1d_max_tag_check 2
core_0_l1d_max_fill 2
core_0_l2c_set 1024
core_0_l2c_way 8
core_0_l2c_rq_size 32
core_0_l2c_wq_size 32
core_0_l2c_pq_size 16
core_0_l2c_mshr_size 32
core_0_l2c_hit_latency 5
core_0_l2c_fill_latency 5
core_0_l2c_max_tag_check 1
core_0_l2c_max_fill 1
llc_set 2048
llc_way 16
llc_rq_size 32
llc_wq_size 32
llc_pq_size 32
llc_mshr_size 64
llc_hit_latency 10
llc_fill_latency 10
llc_max_tag_check 1
llc_max_fill 1
dram_channels 1
dram_ranks 1
dram_bankgroups 8
dram_banks 4
dram_rows 65536
dram_columns 1024
dram_channel_width 8
dram_rq_size 64
dram_wq_size 64
dram_size 17179869184
core_0_itlb_prefetcher no
core_0_dtlb_prefetcher no
core_0_stlb_prefetcher no
core_0_l1i_prefetcher next_line
core_0_l1d_prefetcher berti
core_0_l2c_prefetcher pythia
llc_prefetcher no
llc_replacement drrip

Core_0_instructions 50000000
Core_0_cycles 177969599
Core_0_IPC 0.280947
Core_0_branch_prediction_accuracy 90.0858
Core_0_branch_MPKI 16.7121
Core_0_average_ROB_occupancy_at_mispredict 27.4508

Core_0_ITLB_total_access 2038962
Core_0_ITLB_total_hit 2038956
Core_0_ITLB_total_miss 6
Core_0_ITLB_total_MPKI 0.00012
Core_0_ITLB_total_miss_rate 2.94267e-06
Core_0_ITLB_demand_access 2038962
Core_0_ITLB_demand_hit 2038956
Core_0_ITLB_demand_miss 6
Core_0_ITLB_demand_MPKI 0.00012
Core_0_ITLB_demand_miss_rate 2.94267e-06
Core_0_ITLB_load_access 2038962
Core_0_ITLB_load_hit 2038956
Core_0_ITLB_load_miss 6
Core_0_ITLB_load_MPKI 0.00012
Core_0_ITLB_load_miss_rate 2.94267e-06
Core_0_ITLB_rfo_access 0
Core_0_ITLB_rfo_hit 0
Core_0_ITLB_rfo_miss 0
Core_0_ITLB_rfo_MPKI 0
Core_0_ITLB_rfo_miss_rate 0
Core_0_ITLB_prefetch_access 0
Core_0_ITLB_prefetch_hit 0
Core_0_ITLB_prefetch_miss 0
Core_0_ITLB_prefetch_MPKI 0
Core_0_ITLB_prefetch_miss_rate 0
Core_0_ITLB_writeback_access 0
Core_0_ITLB_writeback_hit 0
Core_0_ITLB_writeback_miss 0
Core_0_ITLB_writeback_MPKI 0
Core_0_ITLB_writeback_miss_rate 0
Core_0_ITLB_prefetch_requested 0
Core_0_ITLB_prefetch_issued 0
Core_0_ITLB_prefetch_useful 0
Core_0_ITLB_prefetch_useless 0
Core_0_ITLB_prefetch_late 0
Core_0_ITLB_prefetch_accuracy 0
Core_0_ITLB_prefetch_coverage 0

Core_0_DTLB_total_access 14868137
Core_0_DTLB_total_hit 13312427
Core_0_DTLB_total_miss 1555710
Core_0_DTLB_total_MPKI 31.1142
Core_0_DTLB_total_miss_rate 0.104634
Core_0_DTLB_demand_access 14868137
Core_0_DTLB_demand_hit 13312427
Core_0_DTLB_demand_miss 1555710
Core_0_DTLB_demand_MPKI 31.1142
Core_0_DTLB_demand_miss_rate 0.104634
Core_0_DTLB_load_access 14868137
Core_0_DTLB_load_hit 13312427
Core_0_DTLB_load_miss 1555710
Core_0_DTLB_load_MPKI 31.1142
Core_0_DTLB_load_miss_rate 0.104634
Core_0_DTLB_rfo_access 0
Core_0_DTLB_rfo_hit 0
Core_0_DTLB_rfo_miss 0
Core_0_DTLB_rfo_MPKI 0
Core_0_DTLB_rfo_miss_rate 0
Core_0_DTLB_prefetch_access 0
Core_0_DTLB_prefetch_hit 0
Core_0_DTLB_prefetch_miss 0
Core_0_DTLB_prefetch_MPKI 0
Core_0_DTLB_prefetch_miss_rate 0
Core_0_DTLB_writeback_access 0
Core_0_DTLB_writeback_hit 0
Core_0_DTLB_writeback_miss 0
Core_0_DTLB_writeback_MPKI 0
Core_0_DTLB_writeback_miss_rate 0
Core_0_DTLB_prefetch_requested 0
Core_0_DTLB_prefetch_issued 0
Core_0_DTLB_prefetch_useful 0
Core_0_DTLB_prefetch_useless 0
Core_0_DTLB_prefetch_late 0
Core_0_DTLB_prefetch_accuracy 0
Core_0_DTLB_prefetch_coverage 0

Core_0_STLB_total_access 1190439
Core_0_STLB_total_hit 246448
Core_0_STLB_total_miss 943991
Core_0_STLB_total_MPKI 18.8798
Core_0_STLB_total_miss_rate 0.792977
Core_0_STLB_demand_access 1190439
Core_0_STLB_demand_hit 246448
Core_0_STLB_demand_miss 943991
Core_0_STLB_demand_MPKI 18.8798
Core_0_STLB_demand_miss_rate 0.792977
Core_0_STLB_load_access 1190439
Core_0_STLB_load_hit 246448
Core_0_STLB_load_miss 943991
Core_0_STLB_load_MPKI 18.8798
Core_0_STLB_load_miss_rate 0.792977
Core_0_STLB_rfo_access 0
Core_0_STLB_rfo_hit 0
Core_0_STLB_rfo_miss 0
Core_0_STLB_rfo_MPKI 0
Core_0_STLB_rfo_miss_rate 0
Core_0_STLB_prefetch_access 0
Core_0_STLB_prefetch_hit 0
Core_0_STLB_prefetch_miss 0
Core_0_STLB_prefetch_MPKI 0
Core_0_STLB_prefetch_miss_rate 0
Core_0_STLB_writeback_access 0
Core_0_STLB_writeback_hit 0
Core_0_STLB_writeback_miss 0
Core_0_STLB_writeback_MPKI 0
Core_0_STLB_writeback_miss_rate 0
Core_0_STLB_prefetch_requested 0
Core_0_STLB_prefetch_issued 0
Core_0_STLB_prefetch_useful 0
Core_0_STLB_prefetch_useless 0
Core_0_STLB_prefetch_late 0
Core_0_STLB_prefetch_accuracy 0
Core_0_STLB_prefetch_coverage 0

Core_0_L1I_total_access 2377911
Core_0_L1I_total_hit 2377831
Core_0_L1I_total_miss 80
Core_0_L1I_total_MPKI 0.0016
Core_0_L1I_total_miss_rate 3.3643e-05
Core_0_L1I_demand_access 2377911
Core_0_L1I_demand_hit 2377831
Core_0_L1I_demand_miss 80
Core_0_L1I_demand_MPKI 0.0016
Core_0_L1I_demand_miss_rate 3.3643e-05
Core_0_L1I_load_access 2377911
Core_0_L1I_load_hit 2377831
Core_0_L1I_load_miss 80
Core_0_L1I_load_MPKI 0.0016
Core_0_L1I_load_miss_rate 3.3643e-05
Core_0_L1I_rfo_access 0
Core_0_L1I_rfo_hit 0
Core_0_L1I_rfo_miss 0
Core_0_L1I_rfo_MPKI 0
Core_0_L1I_rfo_miss_rate 0
Core_0_L1I_prefetch_access 0
Core_0_L1I_prefetch_hit 0
Core_0_L1I_prefetch_miss 0
Core_0_L1I_prefetch_MPKI 0
Core_0_L1I_prefetch_miss_rate 0
Core_0_L1I_writeback_access 0
Core_0_L1I_writeback_hit 0
Core_0_L1I_writeback_miss 0
Core_0_L1I_writeback_MPKI 0
Core_0_L1I_writeback_miss_rate 0
Core_0_L1I_prefetch_requested 0
Core_0_L1I_prefetch_issued 0
Core_0_L1I_prefetch_useful 0
Core_0_L1I_prefetch_useless 0
Core_0_L1I_prefetch_late 0
Core_0_L1I_prefetch_accuracy 0
Core_0_L1I_prefetch_coverage 0

Core_0_L1D_total_access 15335695
Core_0_L1D_total_hit 10951685
Core_0_L1D_total_miss 4384010
Core_0_L1D_total_MPKI 87.6802
Core_0_L1D_total_miss_rate 0.28587
Core_0_L1D_demand_access 10261760
Core_0_L1D_demand_hit 8285446
Core_0_L1D_demand_miss 1976314
Core_0_L1D_demand_MPKI 39.5263
Core_0_L1D_demand_miss_rate 0.19259
Core_0_L1D_load_access 10261760
Core_0_L1D_load_hit 8285446
Core_0_L1D_load_miss 1976314
Core_0_L1D_load_MPKI 39.5263
Core_0_L1D_load_miss_rate 0.19259
Core_0_L1D_rfo_access 0
Core_0_L1D_rfo_hit 0
Core_0_L1D_rfo_miss 0
Core_0_L1D_rfo_MPKI 0
Core_0_L1D_rfo_miss_rate 0
Core_0_L1D_prefetch_access 625616
Core_0_L1D_prefetch_hit 71732
Core_0_L1D_prefetch_miss 553884
Core_0_L1D_prefetch_MPKI 11.0777
Core_0_L1D_prefetch_miss_rate 0.885342
Core_0_L1D_writeback_access 4448319
Core_0_L1D_writeback_hit 2594507
Core_0_L1D_writeback_miss 1853812
Core_0_L1D_writeback_MPKI 37.0762
Core_0_L1D_writeback_miss_rate 0.416744
Core_0_L1D_prefetch_requested 631622
Core_0_L1D_prefetch_issued 625608
Core_0_L1D_prefetch_useful 334522
Core_0_L1D_prefetch_useless 206924
Core_0_L1D_prefetch_late 17862
Core_0_L1D_prefetch_accuracy 0.534715
Core_0_L1D_prefetch_coverage 0.144762

Core_0_L2C_total_access 6930572
Core_0_L2C_total_hit 2668612
Core_0_L2C_total_miss 4261960
Core_0_L2C_total_MPKI 85.2392
Core_0_L2C_total_miss_rate 0.614951
Core_0_L2C_demand_access 1854152
Core_0_L2C_demand_hit 189640
Core_0_L2C_demand_miss 1664512
Core_0_L2C_demand_MPKI 33.2902
Core_0_L2C_demand_miss_rate 0.897721
Core_0_L2C_load_access 1498422
Core_0_L2C_load_hit 186902
Core_0_L2C_load_miss 1311520
Core_0_L2C_load_MPKI 26.2304
Core_0_L2C_load_miss_rate 0.875267
Core_0_L2C_rfo_access 355730
Core_0_L2C_rfo_hit 2738
Core_0_L2C_rfo_miss 352992
Core_0_L2C_rfo_MPKI 7.05984
Core_0_L2C_rfo_miss_rate 0.992303
Core_0_L2C_prefetch_access 4315764
Core_0_L2C_prefetch_hit 1718424
Core_0_L2C_prefetch_miss 2597340
Core_0_L2C_prefetch_MPKI 51.9468
Core_0_L2C_prefetch_miss_rate 0.601826
Core_0_L2C_writeback_access 760656
Core_0_L2C_writeback_hit 760548
Core_0_L2C_writeback_miss 108
Core_0_L2C_writeback_MPKI 0.00216
Core_0_L2C_writeback_miss_rate 0.000141983
Core_0_L2C_prefetch_requested 3806013
Core_0_L2C_prefetch_issued 3774271
Core_0_L2C_prefetch_useful 533513
Core_0_L2C_prefetch_useless 1314663
Core_0_L2C_prefetch_late 50785
Core_0_L2C_prefetch_accuracy 0.141355
Core_0_L2C_prefetch_coverage 0.242724

Core_0_LLC_total_access 4404245
Core_0_LLC_total_hit 476293
Core_0_LLC_total_miss 3927952
Core_0_LLC_total_MPKI 78.559
Core_0_LLC_total_miss_rate 0.891856
Core_0_LLC_demand_access 1613727
Core_0_LLC_demand_hit 56601
Core_0_LLC_demand_miss 1557126
Core_0_LLC_demand_MPKI 31.1425
Core_0_LLC_demand_miss_rate 0.964925
Core_0_LLC_load_access 1260735
Core_0_LLC_load_hit 44083
Core_0_LLC_load_miss 1216652
Core_0_LLC_load_MPKI 24.333
Core_0_LLC_load_miss_rate 0.965034
Core_0_LLC_rfo_access 352992
Core_0_LLC_rfo_hit 12518
Core_0_LLC_rfo_miss 340474
Core_0_LLC_rfo_MPKI 6.80948
Core_0_LLC_rfo_miss_rate 0.964537
Core_0_LLC_prefetch_access 2035326
Core_0_LLC_prefetch_hit 93844
Core_0_LLC_prefetch_miss 1941482
Core_0_LLC_prefetch_MPKI 38.8296
Core_0_LLC_prefetch_miss_rate 0.953892
Core_0_LLC_writeback_access 755192
Core_0_LLC_writeback_hit 325848
Core_0_LLC_writeback_miss 429344
Core_0_LLC_writeback_MPKI 8.58688
Core_0_LLC_writeback_miss_rate 0.568523
Core_0_LLC_prefetch_requested 0
Core_0_LLC_prefetch_issued 0
Core_0_LLC_prefetch_useful 0
Core_0_LLC_prefetch_useless 0
Core_0_LLC_prefetch_late 0
Core_0_LLC_prefetch_accuracy 0
Core_0_LLC_prefetch_coverage 0

[DRAM Statistics]
Channel_0_RQ_row_buffer_hit 64670
Channel_0_RQ_row_buffer_miss 3476424
Channel_0_WQ_row_buffer_hit 149881
Channel_0_WQ_row_buffer_miss 572428
Channel_0_WQ_full 158
Channel_0_dbus_congested 11069592
DRAM_total_RQ_row_buffer_hit 64670
DRAM_total_RQ_row_buffer_miss 3476424
DRAM_total_WQ_row_buffer_hit 149881
DRAM_total_WQ_row_buffer_miss 572428
DRAM_total_WQ_full 158
DRAM_total_dbus_congested 11069592
DRAM_avg_congested_cycle 5.62692

======STLB miss causes ========
Core_0_STLB_miss_cause_breakdown
Core_0_STLB_cause_Demand_Data_miss 931253
Core_0_STLB_cause_Demand_Data_miss_rate 0.782277
Core_0_STLB_cause_Demand_Instruction_miss 4
Core_0_STLB_cause_Demand_Instruction_miss_rate 3.3601e-06
Core_0_STLB_cause_L1D_Prefetch_miss 12734
Core_0_STLB_cause_L1D_Prefetch_miss_rate 0.0106969
Core_0_STLB_cause_L1I_Prefetch_miss 0
Core_0_STLB_cause_L1I_Prefetch_miss_rate 0
Core_0_STLB_cause_Other_miss 0
Core_0_STLB_cause_Other_miss_rate 0
Core_0_STLB_Demand_miss 931257
Core_0_STLB_Demand_miss_rate 0.78228
Core_0_STLB_L1D_Prefetch_miss 12734
Core_0_STLB_L1D_Prefetch_miss_rate 0.0106969
Core_0_STLB_Other_miss 0
Core_0_STLB_Other_miss_rate 0
