[VMEM] WARNING: physical memory size is smaller than virtual memory size.

*** ChampSim Multicore Out-of-Order Simulator ***
Warmup Instructions: 20000000
Simulation Instructions: 50000000
Number of CPUs: 1
Page size: 4096
STLB ideal mode: off
Core 0: /data0/tzh/champsim_traces/SPEC06/403.gcc-17B.champsimtrace.xz
 L1D Berti prefetcher
Off-chip DRAM Size: 16 GiB Channels: 1 Width: 64-bit Data Rate: 3205 MT/s
Warmup halting CPU 0 at instruction 20000000 cycle 5610892 for remainder of phase
Warmup finished CPU 0 instructions: 20000000 cycles: 5610892 cumulative IPC: 3.564 (Simulation time: 00 hr 01 min 08 sec)
Warmup complete CPU 0 instructions: 20000000 cycles: 5610892 cumulative IPC: 3.564 (Simulation time: 00 hr 01 min 08 sec)
Simulation finished CPU 0 instructions: 50000000 cycles: 87367732 cumulative IPC: 0.5723 (Simulation time: 00 hr 11 min 16 sec)
Simulation complete CPU 0 instructions: 50000000 cycles: 87367732 cumulative IPC: 0.5723 (Simulation time: 00 hr 11 min 16 sec)

ChampSim completed all CPUs

=== Simulation ===
CPU 0 runs /data0/tzh/champsim_traces/SPEC06/403.gcc-17B.champsimtrace.xz

Region of Interest Statistics

CPU 0 cumulative IPC: 0.5723 instructions: 50000000 cycles: 87367732
CPU 0 Branch Prediction Accuracy: 99.25% MPKI: 1.617 Average ROB Occupancy at Mispredict: 181
Branch type MPKI
BRANCH_DIRECT_JUMP: 0.07566
BRANCH_INDIRECT: 0.5459
BRANCH_CONDITIONAL: 0.9508
BRANCH_DIRECT_CALL: 0.0364
BRANCH_INDIRECT_CALL: 0.00216
BRANCH_RETURN: 0.00592

cpu0->cpu0_STLB TOTAL        ACCESS:     722346 HIT:     676168 MISS:      46178 MSHR_MERGE:          0
cpu0->cpu0_STLB LOAD         ACCESS:     722346 HIT:     676168 MISS:      46178 MSHR_MERGE:          0
cpu0->cpu0_STLB RFO          ACCESS:          0 HIT:          0 MISS:          0 MSHR_MERGE:          0
cpu0->cpu0_STLB PREFETCH     ACCESS:          0 HIT:          0 MISS:          0 MSHR_MERGE:          0
cpu0->cpu0_STLB WRITE        ACCESS:          0 HIT:          0 MISS:          0 MSHR_MERGE:          0
cpu0->cpu0_STLB TRANSLATION  ACCESS:          0 HIT:          0 MISS:          0 MSHR_MERGE:          0
cpu0->cpu0_STLB PREFETCH REQUESTED:          0 ISSUED:          0 USEFUL:          0 USELESS:          0 LATE:          0
cpu0->cpu0_STLB AVERAGE MISS LATENCY: 147.2 cycles
cpu0->cpu0_L2C TOTAL        ACCESS:    2984394 HIT:    1612163 MISS:    1372231 MSHR_MERGE:       3054
cpu0->cpu0_L2C LOAD         ACCESS:     656012 HIT:     445096 MISS:     210916 MSHR_MERGE:        461
cpu0->cpu0_L2C RFO          ACCESS:     943451 HIT:       3973 MISS:     939478 MSHR_MERGE:          0
cpu0->cpu0_L2C PREFETCH     ACCESS:     370781 HIT:     160678 MISS:     210103 MSHR_MERGE:       2593
cpu0->cpu0_L2C WRITE        ACCESS:     998472 HIT:     998305 MISS:        167 MSHR_MERGE:          0
cpu0->cpu0_L2C TRANSLATION  ACCESS:      15678 HIT:       4111 MISS:      11567 MSHR_MERGE:          0
cpu0->cpu0_L2C PREFETCH REQUESTED:      52406 ISSUED:      52406 USEFUL:      15363 USELESS:       8541 LATE:        461
cpu0->cpu0_L2C AVERAGE MISS LATENCY: 552.9 cycles
cpu0->cpu0_L1I TOTAL        ACCESS:    9862695 HIT:    9860025 MISS:       2670 MSHR_MERGE:        618
cpu0->cpu0_L1I LOAD         ACCESS:    9862695 HIT:    9860025 MISS:       2670 MSHR_MERGE:        618
cpu0->cpu0_L1I RFO          ACCESS:          0 HIT:          0 MISS:          0 MSHR_MERGE:          0
cpu0->cpu0_L1I PREFETCH     ACCESS:          0 HIT:          0 MISS:          0 MSHR_MERGE:          0
cpu0->cpu0_L1I WRITE        ACCESS:          0 HIT:          0 MISS:          0 MSHR_MERGE:          0
cpu0->cpu0_L1I TRANSLATION  ACCESS:          0 HIT:          0 MISS:          0 MSHR_MERGE:          0
cpu0->cpu0_L1I PREFETCH REQUESTED:          0 ISSUED:          0 USEFUL:          0 USELESS:          0 LATE:          0
cpu0->cpu0_L1I AVERAGE MISS LATENCY: 76.36 cycles
cpu0->cpu0_L1D TOTAL        ACCESS:   18426362 HIT:    9768725 MISS:    8657637 MSHR_MERGE:    6726166
cpu0->cpu0_L1D LOAD         ACCESS:    5888086 HIT:    5032481 MISS:     855605 MSHR_MERGE:     201644
cpu0->cpu0_L1D RFO          ACCESS:          0 HIT:          0 MISS:          0 MSHR_MERGE:          0
cpu0->cpu0_L1D PREFETCH     ACCESS:     495808 HIT:     162961 MISS:     332847 MSHR_MERGE:      14472
cpu0->cpu0_L1D WRITE        ACCESS:   11949731 HIT:    4496411 MISS:    7453320 MSHR_MERGE:    6509863
cpu0->cpu0_L1D TRANSLATION  ACCESS:      92737 HIT:      76872 MISS:      15865 MSHR_MERGE:        187
cpu0->cpu0_L1D PREFETCH REQUESTED:     495853 ISSUED:     495800 USEFUL:     139314 USELESS:     179080 LATE:      20296
cpu0->cpu0_L1D AVERAGE MISS LATENCY: 403 cycles
cpu0->cpu0_ITLB TOTAL        ACCESS:    9215307 HIT:    9211407 MISS:       3900 MSHR_MERGE:       2372
cpu0->cpu0_ITLB LOAD         ACCESS:    9215307 HIT:    9211407 MISS:       3900 MSHR_MERGE:       2372
cpu0->cpu0_ITLB RFO          ACCESS:          0 HIT:          0 MISS:          0 MSHR_MERGE:          0
cpu0->cpu0_ITLB PREFETCH     ACCESS:          0 HIT:          0 MISS:          0 MSHR_MERGE:          0
cpu0->cpu0_ITLB WRITE        ACCESS:          0 HIT:          0 MISS:          0 MSHR_MERGE:          0
cpu0->cpu0_ITLB TRANSLATION  ACCESS:          0 HIT:          0 MISS:          0 MSHR_MERGE:          0
cpu0->cpu0_ITLB PREFETCH REQUESTED:          0 ISSUED:          0 USEFUL:          0 USELESS:          0 LATE:          0
cpu0->cpu0_ITLB AVERAGE MISS LATENCY: 15.73 cycles
cpu0->cpu0_DTLB TOTAL        ACCESS:   17667000 HIT:   16583037 MISS:    1083963 MSHR_MERGE:     363144
cpu0->cpu0_DTLB LOAD         ACCESS:   17667000 HIT:   16583037 MISS:    1083963 MSHR_MERGE:     363144
cpu0->cpu0_DTLB RFO          ACCESS:          0 HIT:          0 MISS:          0 MSHR_MERGE:          0
cpu0->cpu0_DTLB PREFETCH     ACCESS:          0 HIT:          0 MISS:          0 MSHR_MERGE:          0
cpu0->cpu0_DTLB WRITE        ACCESS:          0 HIT:          0 MISS:          0 MSHR_MERGE:          0
cpu0->cpu0_DTLB TRANSLATION  ACCESS:          0 HIT:          0 MISS:          0 MSHR_MERGE:          0
cpu0->cpu0_DTLB PREFETCH REQUESTED:          0 ISSUED:          0 USEFUL:          0 USELESS:          0 LATE:          0
cpu0->cpu0_DTLB AVERAGE MISS LATENCY: 14.47 cycles
cpu0->LLC TOTAL        ACCESS:    2352306 HIT:     210502 MISS:    2141804 MSHR_MERGE:          0
cpu0->LLC LOAD         ACCESS:     210455 HIT:      24585 MISS:     185870 MSHR_MERGE:          0
cpu0->LLC RFO          ACCESS:     939478 HIT:        507 MISS:     938971 MSHR_MERGE:          0
cpu0->LLC PREFETCH     ACCESS:     207510 HIT:      13415 MISS:     194095 MSHR_MERGE:          0
cpu0->LLC WRITE        ACCESS:     983296 HIT:     170065 MISS:     813231 MSHR_MERGE:          0
cpu0->LLC TRANSLATION  ACCESS:      11567 HIT:       1930 MISS:       9637 MSHR_MERGE:          0
cpu0->LLC PREFETCH REQUESTED:          0 ISSUED:          0 USEFUL:          0 USELESS:          0 LATE:          0
cpu0->LLC AVERAGE MISS LATENCY: 323.8 cycles

DRAM Statistics

Channel 0 RQ ROW_BUFFER_HIT:     123585
  ROW_BUFFER_MISS:    1204986
  AVG DBUS CONGESTED CYCLE: 7.566
Channel 0 WQ ROW_BUFFER_HIT:      89061
  ROW_BUFFER_MISS:     880485
  FULL:          0
Channel 0 REFRESHES ISSUED:       7281

[ROI Statistics]
[System Configuration]
num_cpus 1
cpu_freq 4000
fetch_width 6
decode_width 6
dispatch_width 6
execute_width 6
lq_width 2
sq_width 2
retire_width 6
scheduler_size 128
branch_mispredict_penalty 15
rob_size 352
lq_size 128
sq_size 72
ifetch_buffer_size 64
decode_buffer_size 32
dispatch_buffer_size 32
register_file_size 288
decode_latency 1
dispatch_latency 1
schedule_latency 1
execute_latency 1
page_size 4096
block_size 64
core_0_itlb_set 16
core_0_itlb_way 4
core_0_itlb_rq_size 16
core_0_itlb_wq_size 16
core_0_itlb_pq_size 0
core_0_itlb_mshr_size 8
core_0_itlb_hit_latency 1
core_0_itlb_fill_latency 1
core_0_itlb_max_tag_check 2
core_0_itlb_max_fill 2
core_0_dtlb_set 16
core_0_dtlb_way 4
core_0_dtlb_rq_size 16
core_0_dtlb_wq_size 16
core_0_dtlb_pq_size 0
core_0_dtlb_mshr_size 8
core_0_dtlb_hit_latency 1
core_0_dtlb_fill_latency 1
core_0_dtlb_max_tag_check 2
core_0_dtlb_max_fill 2
core_0_stlb_set 128
core_0_stlb_way 12
core_0_stlb_rq_size 32
core_0_stlb_wq_size 32
core_0_stlb_pq_size 0
core_0_stlb_mshr_size 16
core_0_stlb_hit_latency 4
core_0_stlb_fill_latency 4
core_0_stlb_max_tag_check 1
core_0_stlb_max_fill 1
core_0_l1i_set 64
core_0_l1i_way 8
core_0_l1i_rq_size 64
core_0_l1i_wq_size 64
core_0_l1i_pq_size 32
core_0_l1i_mshr_size 8
core_0_l1i_hit_latency 2
core_0_l1i_fill_latency 2
core_0_l1i_max_tag_check 2
core_0_l1i_max_fill 2
core_0_l1d_set 64
core_0_l1d_way 12
core_0_l1d_rq_size 64
core_0_l1d_wq_size 64
core_0_l1d_pq_size 8
core_0_l1d_mshr_size 16
core_0_l1d_hit_latency 2
core_0_l1d_fill_latency 3
core_0_l1d_max_tag_check 2
core_0_l1d_max_fill 2
core_0_l2c_set 1024
core_0_l2c_way 8
core_0_l2c_rq_size 32
core_0_l2c_wq_size 32
core_0_l2c_pq_size 16
core_0_l2c_mshr_size 32
core_0_l2c_hit_latency 5
core_0_l2c_fill_latency 5
core_0_l2c_max_tag_check 1
core_0_l2c_max_fill 1
llc_set 2048
llc_way 16
llc_rq_size 32
llc_wq_size 32
llc_pq_size 32
llc_mshr_size 64
llc_hit_latency 10
llc_fill_latency 10
llc_max_tag_check 1
llc_max_fill 1
dram_channels 1
dram_ranks 1
dram_bankgroups 8
dram_banks 4
dram_rows 65536
dram_columns 1024
dram_channel_width 8
dram_rq_size 64
dram_wq_size 64
dram_size 17179869184
core_0_itlb_prefetcher no
core_0_dtlb_prefetcher no
core_0_stlb_prefetcher no
core_0_l1i_prefetcher next_line
core_0_l1d_prefetcher berti
core_0_l2c_prefetcher ip_stride
llc_prefetcher no
llc_replacement drrip

Core_0_instructions 50000000
Core_0_cycles 87367732
Core_0_IPC 0.572294
Core_0_branch_prediction_accuracy 99.2543
Core_0_branch_MPKI 1.61686
Core_0_average_ROB_occupancy_at_mispredict 180.998

Core_0_ITLB_total_access 9215307
Core_0_ITLB_total_hit 9211407
Core_0_ITLB_total_miss 3900
Core_0_ITLB_total_MPKI 0.078
Core_0_ITLB_total_miss_rate 0.000423209
Core_0_ITLB_demand_access 9215307
Core_0_ITLB_demand_hit 9211407
Core_0_ITLB_demand_miss 3900
Core_0_ITLB_demand_MPKI 0.078
Core_0_ITLB_demand_miss_rate 0.000423209
Core_0_ITLB_load_access 9215307
Core_0_ITLB_load_hit 9211407
Core_0_ITLB_load_miss 3900
Core_0_ITLB_load_MPKI 0.078
Core_0_ITLB_load_miss_rate 0.000423209
Core_0_ITLB_rfo_access 0
Core_0_ITLB_rfo_hit 0
Core_0_ITLB_rfo_miss 0
Core_0_ITLB_rfo_MPKI 0
Core_0_ITLB_rfo_miss_rate 0
Core_0_ITLB_prefetch_access 0
Core_0_ITLB_prefetch_hit 0
Core_0_ITLB_prefetch_miss 0
Core_0_ITLB_prefetch_MPKI 0
Core_0_ITLB_prefetch_miss_rate 0
Core_0_ITLB_writeback_access 0
Core_0_ITLB_writeback_hit 0
Core_0_ITLB_writeback_miss 0
Core_0_ITLB_writeback_MPKI 0
Core_0_ITLB_writeback_miss_rate 0
Core_0_ITLB_prefetch_requested 0
Core_0_ITLB_prefetch_issued 0
Core_0_ITLB_prefetch_useful 0
Core_0_ITLB_prefetch_useless 0
Core_0_ITLB_prefetch_late 0
Core_0_ITLB_prefetch_accuracy 0
Core_0_ITLB_prefetch_coverage 0

Core_0_DTLB_total_access 17667000
Core_0_DTLB_total_hit 16583037
Core_0_DTLB_total_miss 1083963
Core_0_DTLB_total_MPKI 21.6793
Core_0_DTLB_total_miss_rate 0.0613552
Core_0_DTLB_demand_access 17667000
Core_0_DTLB_demand_hit 16583037
Core_0_DTLB_demand_miss 1083963
Core_0_DTLB_demand_MPKI 21.6793
Core_0_DTLB_demand_miss_rate 0.0613552
Core_0_DTLB_load_access 17667000
Core_0_DTLB_load_hit 16583037
Core_0_DTLB_load_miss 1083963
Core_0_DTLB_load_MPKI 21.6793
Core_0_DTLB_load_miss_rate 0.0613552
Core_0_DTLB_rfo_access 0
Core_0_DTLB_rfo_hit 0
Core_0_DTLB_rfo_miss 0
Core_0_DTLB_rfo_MPKI 0
Core_0_DTLB_rfo_miss_rate 0
Core_0_DTLB_prefetch_access 0
Core_0_DTLB_prefetch_hit 0
Core_0_DTLB_prefetch_miss 0
Core_0_DTLB_prefetch_MPKI 0
Core_0_DTLB_prefetch_miss_rate 0
Core_0_DTLB_writeback_access 0
Core_0_DTLB_writeback_hit 0
Core_0_DTLB_writeback_miss 0
Core_0_DTLB_writeback_MPKI 0
Core_0_DTLB_writeback_miss_rate 0
Core_0_DTLB_prefetch_requested 0
Core_0_DTLB_prefetch_issued 0
Core_0_DTLB_prefetch_useful 0
Core_0_DTLB_prefetch_useless 0
Core_0_DTLB_prefetch_late 0
Core_0_DTLB_prefetch_accuracy 0
Core_0_DTLB_prefetch_coverage 0

Core_0_STLB_total_access 722346
Core_0_STLB_total_hit 676168
Core_0_STLB_total_miss 46178
Core_0_STLB_total_MPKI 0.92356
Core_0_STLB_total_miss_rate 0.0639278
Core_0_STLB_demand_access 722346
Core_0_STLB_demand_hit 676168
Core_0_STLB_demand_miss 46178
Core_0_STLB_demand_MPKI 0.92356
Core_0_STLB_demand_miss_rate 0.0639278
Core_0_STLB_load_access 722346
Core_0_STLB_load_hit 676168
Core_0_STLB_load_miss 46178
Core_0_STLB_load_MPKI 0.92356
Core_0_STLB_load_miss_rate 0.0639278
Core_0_STLB_rfo_access 0
Core_0_STLB_rfo_hit 0
Core_0_STLB_rfo_miss 0
Core_0_STLB_rfo_MPKI 0
Core_0_STLB_rfo_miss_rate 0
Core_0_STLB_prefetch_access 0
Core_0_STLB_prefetch_hit 0
Core_0_STLB_prefetch_miss 0
Core_0_STLB_prefetch_MPKI 0
Core_0_STLB_prefetch_miss_rate 0
Core_0_STLB_writeback_access 0
Core_0_STLB_writeback_hit 0
Core_0_STLB_writeback_miss 0
Core_0_STLB_writeback_MPKI 0
Core_0_STLB_writeback_miss_rate 0
Core_0_STLB_prefetch_requested 0
Core_0_STLB_prefetch_issued 0
Core_0_STLB_prefetch_useful 0
Core_0_STLB_prefetch_useless 0
Core_0_STLB_prefetch_late 0
Core_0_STLB_prefetch_accuracy 0
Core_0_STLB_prefetch_coverage 0

Core_0_L1I_total_access 9862695
Core_0_L1I_total_hit 9860025
Core_0_L1I_total_miss 2670
Core_0_L1I_total_MPKI 0.0534
Core_0_L1I_total_miss_rate 0.000270717
Core_0_L1I_demand_access 9862695
Core_0_L1I_demand_hit 9860025
Core_0_L1I_demand_miss 2670
Core_0_L1I_demand_MPKI 0.0534
Core_0_L1I_demand_miss_rate 0.000270717
Core_0_L1I_load_access 9862695
Core_0_L1I_load_hit 9860025
Core_0_L1I_load_miss 2670
Core_0_L1I_load_MPKI 0.0534
Core_0_L1I_load_miss_rate 0.000270717
Core_0_L1I_rfo_access 0
Core_0_L1I_rfo_hit 0
Core_0_L1I_rfo_miss 0
Core_0_L1I_rfo_MPKI 0
Core_0_L1I_rfo_miss_rate 0
Core_0_L1I_prefetch_access 0
Core_0_L1I_prefetch_hit 0
Core_0_L1I_prefetch_miss 0
Core_0_L1I_prefetch_MPKI 0
Core_0_L1I_prefetch_miss_rate 0
Core_0_L1I_writeback_access 0
Core_0_L1I_writeback_hit 0
Core_0_L1I_writeback_miss 0
Core_0_L1I_writeback_MPKI 0
Core_0_L1I_writeback_miss_rate 0
Core_0_L1I_prefetch_requested 0
Core_0_L1I_prefetch_issued 0
Core_0_L1I_prefetch_useful 0
Core_0_L1I_prefetch_useless 0
Core_0_L1I_prefetch_late 0
Core_0_L1I_prefetch_accuracy 0
Core_0_L1I_prefetch_coverage 0

Core_0_L1D_total_access 18333625
Core_0_L1D_total_hit 9691853
Core_0_L1D_total_miss 8641772
Core_0_L1D_total_MPKI 172.835
Core_0_L1D_total_miss_rate 0.471362
Core_0_L1D_demand_access 5888086
Core_0_L1D_demand_hit 5032481
Core_0_L1D_demand_miss 855605
Core_0_L1D_demand_MPKI 17.1121
Core_0_L1D_demand_miss_rate 0.145311
Core_0_L1D_load_access 5888086
Core_0_L1D_load_hit 5032481
Core_0_L1D_load_miss 855605
Core_0_L1D_load_MPKI 17.1121
Core_0_L1D_load_miss_rate 0.145311
Core_0_L1D_rfo_access 0
Core_0_L1D_rfo_hit 0
Core_0_L1D_rfo_miss 0
Core_0_L1D_rfo_MPKI 0
Core_0_L1D_rfo_miss_rate 0
Core_0_L1D_prefetch_access 495808
Core_0_L1D_prefetch_hit 162961
Core_0_L1D_prefetch_miss 332847
Core_0_L1D_prefetch_MPKI 6.65694
Core_0_L1D_prefetch_miss_rate 0.671322
Core_0_L1D_writeback_access 11949731
Core_0_L1D_writeback_hit 4496411
Core_0_L1D_writeback_miss 7453320
Core_0_L1D_writeback_MPKI 149.066
Core_0_L1D_writeback_miss_rate 0.623723
Core_0_L1D_prefetch_requested 495853
Core_0_L1D_prefetch_issued 495800
Core_0_L1D_prefetch_useful 139314
Core_0_L1D_prefetch_useless 179080
Core_0_L1D_prefetch_late 20296
Core_0_L1D_prefetch_accuracy 0.280988
Core_0_L1D_prefetch_coverage 0.140025

Core_0_L2C_total_access 2968716
Core_0_L2C_total_hit 1608052
Core_0_L2C_total_miss 1360664
Core_0_L2C_total_MPKI 27.2133
Core_0_L2C_total_miss_rate 0.458334
Core_0_L2C_demand_access 1599463
Core_0_L2C_demand_hit 449069
Core_0_L2C_demand_miss 1150394
Core_0_L2C_demand_MPKI 23.0079
Core_0_L2C_demand_miss_rate 0.719238
Core_0_L2C_load_access 656012
Core_0_L2C_load_hit 445096
Core_0_L2C_load_miss 210916
Core_0_L2C_load_MPKI 4.21832
Core_0_L2C_load_miss_rate 0.321512
Core_0_L2C_rfo_access 943451
Core_0_L2C_rfo_hit 3973
Core_0_L2C_rfo_miss 939478
Core_0_L2C_rfo_MPKI 18.7896
Core_0_L2C_rfo_miss_rate 0.995789
Core_0_L2C_prefetch_access 370781
Core_0_L2C_prefetch_hit 160678
Core_0_L2C_prefetch_miss 210103
Core_0_L2C_prefetch_MPKI 4.20206
Core_0_L2C_prefetch_miss_rate 0.56665
Core_0_L2C_writeback_access 998472
Core_0_L2C_writeback_hit 998305
Core_0_L2C_writeback_miss 167
Core_0_L2C_writeback_MPKI 0.00334
Core_0_L2C_writeback_miss_rate 0.000167256
Core_0_L2C_prefetch_requested 52406
Core_0_L2C_prefetch_issued 52406
Core_0_L2C_prefetch_useful 15363
Core_0_L2C_prefetch_useless 8541
Core_0_L2C_prefetch_late 461
Core_0_L2C_prefetch_accuracy 0.293153
Core_0_L2C_prefetch_coverage 0.0131786

Core_0_LLC_total_access 2340739
Core_0_LLC_total_hit 208572
Core_0_LLC_total_miss 2132167
Core_0_LLC_total_MPKI 42.6433
Core_0_LLC_total_miss_rate 0.910895
Core_0_LLC_demand_access 1149933
Core_0_LLC_demand_hit 25092
Core_0_LLC_demand_miss 1124841
Core_0_LLC_demand_MPKI 22.4968
Core_0_LLC_demand_miss_rate 0.97818
Core_0_LLC_load_access 210455
Core_0_LLC_load_hit 24585
Core_0_LLC_load_miss 185870
Core_0_LLC_load_MPKI 3.7174
Core_0_LLC_load_miss_rate 0.883182
Core_0_LLC_rfo_access 939478
Core_0_LLC_rfo_hit 507
Core_0_LLC_rfo_miss 938971
Core_0_LLC_rfo_MPKI 18.7794
Core_0_LLC_rfo_miss_rate 0.99946
Core_0_LLC_prefetch_access 207510
Core_0_LLC_prefetch_hit 13415
Core_0_LLC_prefetch_miss 194095
Core_0_LLC_prefetch_MPKI 3.8819
Core_0_LLC_prefetch_miss_rate 0.935353
Core_0_LLC_writeback_access 983296
Core_0_LLC_writeback_hit 170065
Core_0_LLC_writeback_miss 813231
Core_0_LLC_writeback_MPKI 16.2646
Core_0_LLC_writeback_miss_rate 0.827046
Core_0_LLC_prefetch_requested 0
Core_0_LLC_prefetch_issued 0
Core_0_LLC_prefetch_useful 0
Core_0_LLC_prefetch_useless 0
Core_0_LLC_prefetch_late 0
Core_0_LLC_prefetch_accuracy 0
Core_0_LLC_prefetch_coverage 0

[DRAM Statistics]
Channel_0_RQ_row_buffer_hit 123585
Channel_0_RQ_row_buffer_miss 1204986
Channel_0_WQ_row_buffer_hit 89061
Channel_0_WQ_row_buffer_miss 880485
Channel_0_WQ_full 0
Channel_0_dbus_congested 7925717
DRAM_total_RQ_row_buffer_hit 123585
DRAM_total_RQ_row_buffer_miss 1204986
DRAM_total_WQ_row_buffer_hit 89061
DRAM_total_WQ_row_buffer_miss 880485
DRAM_total_WQ_full 0
DRAM_total_dbus_congested 7925717
DRAM_avg_congested_cycle 7.56562

======STLB miss causes ========
Core_0_STLB_miss_cause_breakdown
Core_0_STLB_cause_Demand_Data_miss 40674
Core_0_STLB_cause_Demand_Data_miss_rate 0.0563082
Core_0_STLB_cause_Demand_Instruction_miss 76
Core_0_STLB_cause_Demand_Instruction_miss_rate 0.000105213
Core_0_STLB_cause_L1D_Prefetch_miss 5428
Core_0_STLB_cause_L1D_Prefetch_miss_rate 0.0075144
Core_0_STLB_cause_L1I_Prefetch_miss 0
Core_0_STLB_cause_L1I_Prefetch_miss_rate 0
Core_0_STLB_cause_Other_miss 0
Core_0_STLB_cause_Other_miss_rate 0
Core_0_STLB_Demand_miss 40750
Core_0_STLB_Demand_miss_rate 0.0564134
Core_0_STLB_L1D_Prefetch_miss 5428
Core_0_STLB_L1D_Prefetch_miss_rate 0.0075144
Core_0_STLB_Other_miss 0
Core_0_STLB_Other_miss_rate 0
