[VMEM] WARNING: physical memory size is smaller than virtual memory size.

*** ChampSim Multicore Out-of-Order Simulator ***
Warmup Instructions: 20000000
Simulation Instructions: 50000000
Number of CPUs: 1
Page size: 4096
STLB ideal mode: off
Core 0: /data0/tzh/champsim_traces/SPEC06/403.gcc-16B.champsimtrace.xz
 L1D Berti prefetcher
Off-chip DRAM Size: 16 GiB Channels: 1 Width: 64-bit Data Rate: 3205 MT/s
Warmup halting CPU 0 at instruction 20000000 cycle 8155646 for remainder of phase
Warmup finished CPU 0 instructions: 20000000 cycles: 8155646 cumulative IPC: 2.452 (Simulation time: 00 hr 00 min 58 sec)
Warmup complete CPU 0 instructions: 20000000 cycles: 8155646 cumulative IPC: 2.452 (Simulation time: 00 hr 00 min 58 sec)
Simulation finished CPU 0 instructions: 50000000 cycles: 21605726 cumulative IPC: 2.314 (Simulation time: 00 hr 03 min 43 sec)
Simulation complete CPU 0 instructions: 50000000 cycles: 21605726 cumulative IPC: 2.314 (Simulation time: 00 hr 03 min 43 sec)

ChampSim completed all CPUs

=== Simulation ===
CPU 0 runs /data0/tzh/champsim_traces/SPEC06/403.gcc-16B.champsimtrace.xz

Region of Interest Statistics

CPU 0 cumulative IPC: 2.314 instructions: 50000000 cycles: 21605726
CPU 0 Branch Prediction Accuracy: 99.94% MPKI: 0.1147 Average ROB Occupancy at Mispredict: 165.1
Branch type MPKI
BRANCH_DIRECT_JUMP: 0.0086
BRANCH_INDIRECT: 0.02318
BRANCH_CONDITIONAL: 0.0828
BRANCH_DIRECT_CALL: 2e-05
BRANCH_INDIRECT_CALL: 8e-05
BRANCH_RETURN: 2e-05

cpu0->cpu0_STLB TOTAL        ACCESS:      55587 HIT:      55086 MISS:        501 MSHR_MERGE:          0
cpu0->cpu0_STLB LOAD         ACCESS:      55587 HIT:      55086 MISS:        501 MSHR_MERGE:          0
cpu0->cpu0_STLB RFO          ACCESS:          0 HIT:          0 MISS:          0 MSHR_MERGE:          0
cpu0->cpu0_STLB PREFETCH     ACCESS:          0 HIT:          0 MISS:          0 MSHR_MERGE:          0
cpu0->cpu0_STLB WRITE        ACCESS:          0 HIT:          0 MISS:          0 MSHR_MERGE:          0
cpu0->cpu0_STLB TRANSLATION  ACCESS:          0 HIT:          0 MISS:          0 MSHR_MERGE:          0
cpu0->cpu0_STLB PREFETCH REQUESTED:          0 ISSUED:          0 USEFUL:          0 USELESS:          0 LATE:          0
cpu0->cpu0_STLB AVERAGE MISS LATENCY: 273.2 cycles
cpu0->cpu0_L2C TOTAL        ACCESS:    5005522 HIT:    3289782 MISS:    1715740 MSHR_MERGE:        144
cpu0->cpu0_L2C LOAD         ACCESS:      25798 HIT:       5185 MISS:      20613 MSHR_MERGE:         10
cpu0->cpu0_L2C RFO          ACCESS:    2475815 HIT:     797054 MISS:    1678761 MSHR_MERGE:          0
cpu0->cpu0_L2C PREFETCH     ACCESS:      17961 HIT:       1957 MISS:      16004 MSHR_MERGE:        134
cpu0->cpu0_L2C WRITE        ACCESS:    2485586 HIT:    2485586 MISS:          0 MSHR_MERGE:          0
cpu0->cpu0_L2C TRANSLATION  ACCESS:        362 HIT:          0 MISS:        362 MSHR_MERGE:          0
cpu0->cpu0_L2C PREFETCH REQUESTED:       1833 ISSUED:       1833 USEFUL:        514 USELESS:        653 LATE:         10
cpu0->cpu0_L2C AVERAGE MISS LATENCY: 15.9 cycles
cpu0->cpu0_L1I TOTAL        ACCESS:    9995820 HIT:    9992640 MISS:       3180 MSHR_MERGE:        860
cpu0->cpu0_L1I LOAD         ACCESS:    9995820 HIT:    9992640 MISS:       3180 MSHR_MERGE:        860
cpu0->cpu0_L1I RFO          ACCESS:          0 HIT:          0 MISS:          0 MSHR_MERGE:          0
cpu0->cpu0_L1I PREFETCH     ACCESS:          0 HIT:          0 MISS:          0 MSHR_MERGE:          0
cpu0->cpu0_L1I WRITE        ACCESS:          0 HIT:          0 MISS:          0 MSHR_MERGE:          0
cpu0->cpu0_L1I TRANSLATION  ACCESS:          0 HIT:          0 MISS:          0 MSHR_MERGE:          0
cpu0->cpu0_L1I PREFETCH REQUESTED:          0 ISSUED:          0 USEFUL:          0 USELESS:          0 LATE:          0
cpu0->cpu0_L1I AVERAGE MISS LATENCY: 22.08 cycles
cpu0->cpu0_L1D TOTAL        ACCESS:   20386940 HIT:     560604 MISS:   19826336 MSHR_MERGE:   17310552
cpu0->cpu0_L1D LOAD         ACCESS:     268326 HIT:     233851 MISS:      34475 MSHR_MERGE:      10997
cpu0->cpu0_L1D RFO          ACCESS:          0 HIT:          0 MISS:          0 MSHR_MERGE:          0
cpu0->cpu0_L1D PREFETCH     ACCESS:      20605 HIT:       2541 MISS:      18064 MSHR_MERGE:       1936
cpu0->cpu0_L1D WRITE        ACCESS:   20097004 HIT:     323569 MISS:   19773435 MSHR_MERGE:   17297619
cpu0->cpu0_L1D TRANSLATION  ACCESS:       1005 HIT:        643 MISS:        362 MSHR_MERGE:          0
cpu0->cpu0_L1D PREFETCH REQUESTED:      20606 ISSUED:      20605 USEFUL:       8272 USELESS:       7856 LATE:        808
cpu0->cpu0_L1D AVERAGE MISS LATENCY: 19.49 cycles
cpu0->cpu0_ITLB TOTAL        ACCESS:    9960679 HIT:    9959728 MISS:        951 MSHR_MERGE:        546
cpu0->cpu0_ITLB LOAD         ACCESS:    9960679 HIT:    9959728 MISS:        951 MSHR_MERGE:        546
cpu0->cpu0_ITLB RFO          ACCESS:          0 HIT:          0 MISS:          0 MSHR_MERGE:          0
cpu0->cpu0_ITLB PREFETCH     ACCESS:          0 HIT:          0 MISS:          0 MSHR_MERGE:          0
cpu0->cpu0_ITLB WRITE        ACCESS:          0 HIT:          0 MISS:          0 MSHR_MERGE:          0
cpu0->cpu0_ITLB TRANSLATION  ACCESS:          0 HIT:          0 MISS:          0 MSHR_MERGE:          0
cpu0->cpu0_ITLB PREFETCH REQUESTED:          0 ISSUED:          0 USEFUL:          0 USELESS:          0 LATE:          0
cpu0->cpu0_ITLB AVERAGE MISS LATENCY: 5.002 cycles
cpu0->cpu0_DTLB TOTAL        ACCESS:   20333437 HIT:   20078465 MISS:     254972 MSHR_MERGE:     199790
cpu0->cpu0_DTLB LOAD         ACCESS:   20333437 HIT:   20078465 MISS:     254972 MSHR_MERGE:     199790
cpu0->cpu0_DTLB RFO          ACCESS:          0 HIT:          0 MISS:          0 MSHR_MERGE:          0
cpu0->cpu0_DTLB PREFETCH     ACCESS:          0 HIT:          0 MISS:          0 MSHR_MERGE:          0
cpu0->cpu0_DTLB WRITE        ACCESS:          0 HIT:          0 MISS:          0 MSHR_MERGE:          0
cpu0->cpu0_DTLB TRANSLATION  ACCESS:          0 HIT:          0 MISS:          0 MSHR_MERGE:          0
cpu0->cpu0_DTLB PREFETCH REQUESTED:          0 ISSUED:          0 USEFUL:          0 USELESS:          0 LATE:          0
cpu0->cpu0_DTLB AVERAGE MISS LATENCY: 7.489 cycles
cpu0->LLC TOTAL        ACCESS:    3401808 HIT:    3392566 MISS:       9242 MSHR_MERGE:          0
cpu0->LLC LOAD         ACCESS:      20603 HIT:      17170 MISS:       3433 MSHR_MERGE:          0
cpu0->LLC RFO          ACCESS:    1678760 HIT:    1678181 MISS:        579 MSHR_MERGE:          0
cpu0->LLC PREFETCH     ACCESS:      15870 HIT:      10779 MISS:       5091 MSHR_MERGE:          0
cpu0->LLC WRITE        ACCESS:    1686213 HIT:    1686206 MISS:          7 MSHR_MERGE:          0
cpu0->LLC TRANSLATION  ACCESS:        362 HIT:        230 MISS:        132 MSHR_MERGE:          0
cpu0->LLC PREFETCH REQUESTED:          0 ISSUED:          0 USEFUL:          0 USELESS:          0 LATE:          0
cpu0->LLC AVERAGE MISS LATENCY: 177.7 cycles

DRAM Statistics

Channel 0 RQ ROW_BUFFER_HIT:        218
  ROW_BUFFER_MISS:       9012
  AVG DBUS CONGESTED CYCLE: 7.971
Channel 0 WQ ROW_BUFFER_HIT:         64
  ROW_BUFFER_MISS:        235
  FULL:          0
Channel 0 REFRESHES ISSUED:       1801

[ROI Statistics]
[System Configuration]
num_cpus 1
cpu_freq 4000
fetch_width 6
decode_width 6
dispatch_width 6
execute_width 6
lq_width 2
sq_width 2
retire_width 6
scheduler_size 128
branch_mispredict_penalty 15
rob_size 352
lq_size 128
sq_size 72
ifetch_buffer_size 64
decode_buffer_size 32
dispatch_buffer_size 32
register_file_size 288
decode_latency 1
dispatch_latency 1
schedule_latency 1
execute_latency 1
page_size 4096
block_size 64
core_0_itlb_set 16
core_0_itlb_way 4
core_0_itlb_rq_size 16
core_0_itlb_wq_size 16
core_0_itlb_pq_size 0
core_0_itlb_mshr_size 8
core_0_itlb_hit_latency 1
core_0_itlb_fill_latency 1
core_0_itlb_max_tag_check 2
core_0_itlb_max_fill 2
core_0_dtlb_set 16
core_0_dtlb_way 4
core_0_dtlb_rq_size 16
core_0_dtlb_wq_size 16
core_0_dtlb_pq_size 0
core_0_dtlb_mshr_size 8
core_0_dtlb_hit_latency 1
core_0_dtlb_fill_latency 1
core_0_dtlb_max_tag_check 2
core_0_dtlb_max_fill 2
core_0_stlb_set 128
core_0_stlb_way 12
core_0_stlb_rq_size 32
core_0_stlb_wq_size 32
core_0_stlb_pq_size 0
core_0_stlb_mshr_size 16
core_0_stlb_hit_latency 4
core_0_stlb_fill_latency 4
core_0_stlb_max_tag_check 1
core_0_stlb_max_fill 1
core_0_l1i_set 64
core_0_l1i_way 8
core_0_l1i_rq_size 64
core_0_l1i_wq_size 64
core_0_l1i_pq_size 32
core_0_l1i_mshr_size 8
core_0_l1i_hit_latency 2
core_0_l1i_fill_latency 2
core_0_l1i_max_tag_check 2
core_0_l1i_max_fill 2
core_0_l1d_set 64
core_0_l1d_way 12
core_0_l1d_rq_size 64
core_0_l1d_wq_size 64
core_0_l1d_pq_size 8
core_0_l1d_mshr_size 16
core_0_l1d_hit_latency 2
core_0_l1d_fill_latency 3
core_0_l1d_max_tag_check 2
core_0_l1d_max_fill 2
core_0_l2c_set 1024
core_0_l2c_way 8
core_0_l2c_rq_size 32
core_0_l2c_wq_size 32
core_0_l2c_pq_size 16
core_0_l2c_mshr_size 32
core_0_l2c_hit_latency 5
core_0_l2c_fill_latency 5
core_0_l2c_max_tag_check 1
core_0_l2c_max_fill 1
llc_set 2048
llc_way 16
llc_rq_size 32
llc_wq_size 32
llc_pq_size 32
llc_mshr_size 64
llc_hit_latency 10
llc_fill_latency 10
llc_max_tag_check 1
llc_max_fill 1
dram_channels 1
dram_ranks 1
dram_bankgroups 8
dram_banks 4
dram_rows 65536
dram_columns 1024
dram_channel_width 8
dram_rq_size 64
dram_wq_size 64
dram_size 17179869184
core_0_itlb_prefetcher no
core_0_dtlb_prefetcher no
core_0_stlb_prefetcher no
core_0_l1i_prefetcher next_line
core_0_l1d_prefetcher berti
core_0_l2c_prefetcher ip_stride
llc_prefetcher no
llc_replacement drrip

Core_0_instructions 50000000
Core_0_cycles 21605726
Core_0_IPC 2.3142
Core_0_branch_prediction_accuracy 99.9416
Core_0_branch_MPKI 0.1147
Core_0_average_ROB_occupancy_at_mispredict 165.094

Core_0_ITLB_total_access 9960679
Core_0_ITLB_total_hit 9959728
Core_0_ITLB_total_miss 951
Core_0_ITLB_total_MPKI 0.01902
Core_0_ITLB_total_miss_rate 9.54754e-05
Core_0_ITLB_demand_access 9960679
Core_0_ITLB_demand_hit 9959728
Core_0_ITLB_demand_miss 951
Core_0_ITLB_demand_MPKI 0.01902
Core_0_ITLB_demand_miss_rate 9.54754e-05
Core_0_ITLB_load_access 9960679
Core_0_ITLB_load_hit 9959728
Core_0_ITLB_load_miss 951
Core_0_ITLB_load_MPKI 0.01902
Core_0_ITLB_load_miss_rate 9.54754e-05
Core_0_ITLB_rfo_access 0
Core_0_ITLB_rfo_hit 0
Core_0_ITLB_rfo_miss 0
Core_0_ITLB_rfo_MPKI 0
Core_0_ITLB_rfo_miss_rate 0
Core_0_ITLB_prefetch_access 0
Core_0_ITLB_prefetch_hit 0
Core_0_ITLB_prefetch_miss 0
Core_0_ITLB_prefetch_MPKI 0
Core_0_ITLB_prefetch_miss_rate 0
Core_0_ITLB_writeback_access 0
Core_0_ITLB_writeback_hit 0
Core_0_ITLB_writeback_miss 0
Core_0_ITLB_writeback_MPKI 0
Core_0_ITLB_writeback_miss_rate 0
Core_0_ITLB_prefetch_requested 0
Core_0_ITLB_prefetch_issued 0
Core_0_ITLB_prefetch_useful 0
Core_0_ITLB_prefetch_useless 0
Core_0_ITLB_prefetch_late 0
Core_0_ITLB_prefetch_accuracy 0
Core_0_ITLB_prefetch_coverage 0

Core_0_DTLB_total_access 20333437
Core_0_DTLB_total_hit 20078465
Core_0_DTLB_total_miss 254972
Core_0_DTLB_total_MPKI 5.09944
Core_0_DTLB_total_miss_rate 0.0125395
Core_0_DTLB_demand_access 20333437
Core_0_DTLB_demand_hit 20078465
Core_0_DTLB_demand_miss 254972
Core_0_DTLB_demand_MPKI 5.09944
Core_0_DTLB_demand_miss_rate 0.0125395
Core_0_DTLB_load_access 20333437
Core_0_DTLB_load_hit 20078465
Core_0_DTLB_load_miss 254972
Core_0_DTLB_load_MPKI 5.09944
Core_0_DTLB_load_miss_rate 0.0125395
Core_0_DTLB_rfo_access 0
Core_0_DTLB_rfo_hit 0
Core_0_DTLB_rfo_miss 0
Core_0_DTLB_rfo_MPKI 0
Core_0_DTLB_rfo_miss_rate 0
Core_0_DTLB_prefetch_access 0
Core_0_DTLB_prefetch_hit 0
Core_0_DTLB_prefetch_miss 0
Core_0_DTLB_prefetch_MPKI 0
Core_0_DTLB_prefetch_miss_rate 0
Core_0_DTLB_writeback_access 0
Core_0_DTLB_writeback_hit 0
Core_0_DTLB_writeback_miss 0
Core_0_DTLB_writeback_MPKI 0
Core_0_DTLB_writeback_miss_rate 0
Core_0_DTLB_prefetch_requested 0
Core_0_DTLB_prefetch_issued 0
Core_0_DTLB_prefetch_useful 0
Core_0_DTLB_prefetch_useless 0
Core_0_DTLB_prefetch_late 0
Core_0_DTLB_prefetch_accuracy 0
Core_0_DTLB_prefetch_coverage 0

Core_0_STLB_total_access 55587
Core_0_STLB_total_hit 55086
Core_0_STLB_total_miss 501
Core_0_STLB_total_MPKI 0.01002
Core_0_STLB_total_miss_rate 0.0090129
Core_0_STLB_demand_access 55587
Core_0_STLB_demand_hit 55086
Core_0_STLB_demand_miss 501
Core_0_STLB_demand_MPKI 0.01002
Core_0_STLB_demand_miss_rate 0.0090129
Core_0_STLB_load_access 55587
Core_0_STLB_load_hit 55086
Core_0_STLB_load_miss 501
Core_0_STLB_load_MPKI 0.01002
Core_0_STLB_load_miss_rate 0.0090129
Core_0_STLB_rfo_access 0
Core_0_STLB_rfo_hit 0
Core_0_STLB_rfo_miss 0
Core_0_STLB_rfo_MPKI 0
Core_0_STLB_rfo_miss_rate 0
Core_0_STLB_prefetch_access 0
Core_0_STLB_prefetch_hit 0
Core_0_STLB_prefetch_miss 0
Core_0_STLB_prefetch_MPKI 0
Core_0_STLB_prefetch_miss_rate 0
Core_0_STLB_writeback_access 0
Core_0_STLB_writeback_hit 0
Core_0_STLB_writeback_miss 0
Core_0_STLB_writeback_MPKI 0
Core_0_STLB_writeback_miss_rate 0
Core_0_STLB_prefetch_requested 0
Core_0_STLB_prefetch_issued 0
Core_0_STLB_prefetch_useful 0
Core_0_STLB_prefetch_useless 0
Core_0_STLB_prefetch_late 0
Core_0_STLB_prefetch_accuracy 0
Core_0_STLB_prefetch_coverage 0

Core_0_L1I_total_access 9995820
Core_0_L1I_total_hit 9992640
Core_0_L1I_total_miss 3180
Core_0_L1I_total_MPKI 0.0636
Core_0_L1I_total_miss_rate 0.000318133
Core_0_L1I_demand_access 9995820
Core_0_L1I_demand_hit 9992640
Core_0_L1I_demand_miss 3180
Core_0_L1I_demand_MPKI 0.0636
Core_0_L1I_demand_miss_rate 0.000318133
Core_0_L1I_load_access 9995820
Core_0_L1I_load_hit 9992640
Core_0_L1I_load_miss 3180
Core_0_L1I_load_MPKI 0.0636
Core_0_L1I_load_miss_rate 0.000318133
Core_0_L1I_rfo_access 0
Core_0_L1I_rfo_hit 0
Core_0_L1I_rfo_miss 0
Core_0_L1I_rfo_MPKI 0
Core_0_L1I_rfo_miss_rate 0
Core_0_L1I_prefetch_access 0
Core_0_L1I_prefetch_hit 0
Core_0_L1I_prefetch_miss 0
Core_0_L1I_prefetch_MPKI 0
Core_0_L1I_prefetch_miss_rate 0
Core_0_L1I_writeback_access 0
Core_0_L1I_writeback_hit 0
Core_0_L1I_writeback_miss 0
Core_0_L1I_writeback_MPKI 0
Core_0_L1I_writeback_miss_rate 0
Core_0_L1I_prefetch_requested 0
Core_0_L1I_prefetch_issued 0
Core_0_L1I_prefetch_useful 0
Core_0_L1I_prefetch_useless 0
Core_0_L1I_prefetch_late 0
Core_0_L1I_prefetch_accuracy 0
Core_0_L1I_prefetch_coverage 0

Core_0_L1D_total_access 20385935
Core_0_L1D_total_hit 559961
Core_0_L1D_total_miss 19825974
Core_0_L1D_total_MPKI 396.519
Core_0_L1D_total_miss_rate 0.972532
Core_0_L1D_demand_access 268326
Core_0_L1D_demand_hit 233851
Core_0_L1D_demand_miss 34475
Core_0_L1D_demand_MPKI 0.6895
Core_0_L1D_demand_miss_rate 0.128482
Core_0_L1D_load_access 268326
Core_0_L1D_load_hit 233851
Core_0_L1D_load_miss 34475
Core_0_L1D_load_MPKI 0.6895
Core_0_L1D_load_miss_rate 0.128482
Core_0_L1D_rfo_access 0
Core_0_L1D_rfo_hit 0
Core_0_L1D_rfo_miss 0
Core_0_L1D_rfo_MPKI 0
Core_0_L1D_rfo_miss_rate 0
Core_0_L1D_prefetch_access 20605
Core_0_L1D_prefetch_hit 2541
Core_0_L1D_prefetch_miss 18064
Core_0_L1D_prefetch_MPKI 0.36128
Core_0_L1D_prefetch_miss_rate 0.87668
Core_0_L1D_writeback_access 20097004
Core_0_L1D_writeback_hit 323569
Core_0_L1D_writeback_miss 19773435
Core_0_L1D_writeback_MPKI 395.469
Core_0_L1D_writeback_miss_rate 0.9839
Core_0_L1D_prefetch_requested 20606
Core_0_L1D_prefetch_issued 20605
Core_0_L1D_prefetch_useful 8272
Core_0_L1D_prefetch_useless 7856
Core_0_L1D_prefetch_late 808
Core_0_L1D_prefetch_accuracy 0.401456
Core_0_L1D_prefetch_coverage 0.193511

Core_0_L2C_total_access 5005160
Core_0_L2C_total_hit 3289782
Core_0_L2C_total_miss 1715378
Core_0_L2C_total_MPKI 34.3076
Core_0_L2C_total_miss_rate 0.342722
Core_0_L2C_demand_access 2501613
Core_0_L2C_demand_hit 802239
Core_0_L2C_demand_miss 1699374
Core_0_L2C_demand_MPKI 33.9875
Core_0_L2C_demand_miss_rate 0.679311
Core_0_L2C_load_access 25798
Core_0_L2C_load_hit 5185
Core_0_L2C_load_miss 20613
Core_0_L2C_load_MPKI 0.41226
Core_0_L2C_load_miss_rate 0.799015
Core_0_L2C_rfo_access 2475815
Core_0_L2C_rfo_hit 797054
Core_0_L2C_rfo_miss 1678761
Core_0_L2C_rfo_MPKI 33.5752
Core_0_L2C_rfo_miss_rate 0.678064
Core_0_L2C_prefetch_access 17961
Core_0_L2C_prefetch_hit 1957
Core_0_L2C_prefetch_miss 16004
Core_0_L2C_prefetch_MPKI 0.32008
Core_0_L2C_prefetch_miss_rate 0.891042
Core_0_L2C_writeback_access 2485586
Core_0_L2C_writeback_hit 2485586
Core_0_L2C_writeback_miss 0
Core_0_L2C_writeback_MPKI 0
Core_0_L2C_writeback_miss_rate 0
Core_0_L2C_prefetch_requested 1833
Core_0_L2C_prefetch_issued 1833
Core_0_L2C_prefetch_useful 514
Core_0_L2C_prefetch_useless 653
Core_0_L2C_prefetch_late 10
Core_0_L2C_prefetch_accuracy 0.280415
Core_0_L2C_prefetch_coverage 0.000302373

Core_0_LLC_total_access 3401446
Core_0_LLC_total_hit 3392336
Core_0_LLC_total_miss 9110
Core_0_LLC_total_MPKI 0.1822
Core_0_LLC_total_miss_rate 0.00267827
Core_0_LLC_demand_access 1699363
Core_0_LLC_demand_hit 1695351
Core_0_LLC_demand_miss 4012
Core_0_LLC_demand_MPKI 0.08024
Core_0_LLC_demand_miss_rate 0.00236088
Core_0_LLC_load_access 20603
Core_0_LLC_load_hit 17170
Core_0_LLC_load_miss 3433
Core_0_LLC_load_MPKI 0.06866
Core_0_LLC_load_miss_rate 0.166626
Core_0_LLC_rfo_access 1678760
Core_0_LLC_rfo_hit 1678181
Core_0_LLC_rfo_miss 579
Core_0_LLC_rfo_MPKI 0.01158
Core_0_LLC_rfo_miss_rate 0.000344897
Core_0_LLC_prefetch_access 15870
Core_0_LLC_prefetch_hit 10779
Core_0_LLC_prefetch_miss 5091
Core_0_LLC_prefetch_MPKI 0.10182
Core_0_LLC_prefetch_miss_rate 0.320794
Core_0_LLC_writeback_access 1686213
Core_0_LLC_writeback_hit 1686206
Core_0_LLC_writeback_miss 7
Core_0_LLC_writeback_MPKI 0.00014
Core_0_LLC_writeback_miss_rate 4.15131e-06
Core_0_LLC_prefetch_requested 0
Core_0_LLC_prefetch_issued 0
Core_0_LLC_prefetch_useful 0
Core_0_LLC_prefetch_useless 0
Core_0_LLC_prefetch_late 0
Core_0_LLC_prefetch_accuracy 0
Core_0_LLC_prefetch_coverage 0

[DRAM Statistics]
Channel_0_RQ_row_buffer_hit 218
Channel_0_RQ_row_buffer_miss 9012
Channel_0_WQ_row_buffer_hit 64
Channel_0_WQ_row_buffer_miss 235
Channel_0_WQ_full 0
Channel_0_dbus_congested 10285
DRAM_total_RQ_row_buffer_hit 218
DRAM_total_RQ_row_buffer_miss 9012
DRAM_total_WQ_row_buffer_hit 64
DRAM_total_WQ_row_buffer_miss 235
DRAM_total_WQ_full 0
DRAM_total_dbus_congested 10285
DRAM_avg_congested_cycle 7.97103

======STLB miss causes ========
Core_0_STLB_miss_cause_breakdown
Core_0_STLB_cause_Demand_Data_miss 421
Core_0_STLB_cause_Demand_Data_miss_rate 0.00757371
Core_0_STLB_cause_Demand_Instruction_miss 0
Core_0_STLB_cause_Demand_Instruction_miss_rate 0
Core_0_STLB_cause_L1D_Prefetch_miss 80
Core_0_STLB_cause_L1D_Prefetch_miss_rate 0.00143919
Core_0_STLB_cause_L1I_Prefetch_miss 0
Core_0_STLB_cause_L1I_Prefetch_miss_rate 0
Core_0_STLB_cause_Other_miss 0
Core_0_STLB_cause_Other_miss_rate 0
Core_0_STLB_Demand_miss 421
Core_0_STLB_Demand_miss_rate 0.00757371
Core_0_STLB_L1D_Prefetch_miss 80
Core_0_STLB_L1D_Prefetch_miss_rate 0.00143919
Core_0_STLB_Other_miss 0
Core_0_STLB_Other_miss_rate 0
