[VMEM] WARNING: physical memory size is smaller than virtual memory size.

*** ChampSim Multicore Out-of-Order Simulator ***
Warmup Instructions: 20000000
Simulation Instructions: 50000000
Number of CPUs: 1
Page size: 4096
STLB ideal mode: off
Core 0: /data0/tzh/champsim_traces/SPEC06/416.gamess-875B.champsimtrace.xz
 L1D Berti prefetcher
Off-chip DRAM Size: 16 GiB Channels: 1 Width: 64-bit Data Rate: 3205 MT/s
Warmup halting CPU 0 at instruction 20000003 cycle 4211887 for remainder of phase
Warmup finished CPU 0 instructions: 20000003 cycles: 4211887 cumulative IPC: 4.748 (Simulation time: 00 hr 00 min 59 sec)
Warmup complete CPU 0 instructions: 20000003 cycles: 4211887 cumulative IPC: 4.748 (Simulation time: 00 hr 00 min 59 sec)
Simulation finished CPU 0 instructions: 50000004 cycles: 21527084 cumulative IPC: 2.323 (Simulation time: 00 hr 05 min 15 sec)
Simulation complete CPU 0 instructions: 50000004 cycles: 21527084 cumulative IPC: 2.323 (Simulation time: 00 hr 05 min 15 sec)

ChampSim completed all CPUs

=== Simulation ===
CPU 0 runs /data0/tzh/champsim_traces/SPEC06/416.gamess-875B.champsimtrace.xz

Region of Interest Statistics

CPU 0 cumulative IPC: 2.323 instructions: 50000004 cycles: 21527084
CPU 0 Branch Prediction Accuracy: 98.96% MPKI: 0.9774 Average ROB Occupancy at Mispredict: 175.3
Branch type MPKI
BRANCH_DIRECT_JUMP: 0.00536
BRANCH_INDIRECT: 0.2442
BRANCH_CONDITIONAL: 0.7266
BRANCH_DIRECT_CALL: 0.0006
BRANCH_INDIRECT_CALL: 0
BRANCH_RETURN: 0.00068

cpu0->cpu0_STLB TOTAL        ACCESS:     397837 HIT:     397811 MISS:         26 MSHR_MERGE:          0
cpu0->cpu0_STLB LOAD         ACCESS:     397837 HIT:     397811 MISS:         26 MSHR_MERGE:          0
cpu0->cpu0_STLB RFO          ACCESS:          0 HIT:          0 MISS:          0 MSHR_MERGE:          0
cpu0->cpu0_STLB PREFETCH     ACCESS:          0 HIT:          0 MISS:          0 MSHR_MERGE:          0
cpu0->cpu0_STLB WRITE        ACCESS:          0 HIT:          0 MISS:          0 MSHR_MERGE:          0
cpu0->cpu0_STLB TRANSLATION  ACCESS:          0 HIT:          0 MISS:          0 MSHR_MERGE:          0
cpu0->cpu0_STLB PREFETCH REQUESTED:          0 ISSUED:          0 USEFUL:          0 USELESS:          0 LATE:          0
cpu0->cpu0_STLB AVERAGE MISS LATENCY: 289.7 cycles
cpu0->cpu0_L2C TOTAL        ACCESS:      89157 HIT:      88052 MISS:       1105 MSHR_MERGE:         14
cpu0->cpu0_L2C LOAD         ACCESS:      39324 HIT:      39008 MISS:        316 MSHR_MERGE:          0
cpu0->cpu0_L2C RFO          ACCESS:      10892 HIT:      10787 MISS:        105 MSHR_MERGE:          0
cpu0->cpu0_L2C PREFETCH     ACCESS:      24459 HIT:      23791 MISS:        668 MSHR_MERGE:         14
cpu0->cpu0_L2C WRITE        ACCESS:      14459 HIT:      14455 MISS:          4 MSHR_MERGE:          0
cpu0->cpu0_L2C TRANSLATION  ACCESS:         23 HIT:         11 MISS:         12 MSHR_MERGE:          0
cpu0->cpu0_L2C PREFETCH REQUESTED:       4509 ISSUED:       4509 USEFUL:        120 USELESS:          1 LATE:          0
cpu0->cpu0_L2C AVERAGE MISS LATENCY: 176.9 cycles
cpu0->cpu0_L1I TOTAL        ACCESS:    8998776 HIT:    8982098 MISS:      16678 MSHR_MERGE:       6537
cpu0->cpu0_L1I LOAD         ACCESS:    8998776 HIT:    8982098 MISS:      16678 MSHR_MERGE:       6537
cpu0->cpu0_L1I RFO          ACCESS:          0 HIT:          0 MISS:          0 MSHR_MERGE:          0
cpu0->cpu0_L1I PREFETCH     ACCESS:          0 HIT:          0 MISS:          0 MSHR_MERGE:          0
cpu0->cpu0_L1I WRITE        ACCESS:          0 HIT:          0 MISS:          0 MSHR_MERGE:          0
cpu0->cpu0_L1I TRANSLATION  ACCESS:          0 HIT:          0 MISS:          0 MSHR_MERGE:          0
cpu0->cpu0_L1I PREFETCH REQUESTED:          0 ISSUED:          0 USEFUL:          0 USELESS:          0 LATE:          0
cpu0->cpu0_L1I AVERAGE MISS LATENCY: 11.25 cycles
cpu0->cpu0_L1D TOTAL        ACCESS:   14691875 HIT:   14612057 MISS:      79818 MSHR_MERGE:      19733
cpu0->cpu0_L1D LOAD         ACCESS:    8479919 HIT:    8441855 MISS:      38064 MSHR_MERGE:       8880
cpu0->cpu0_L1D RFO          ACCESS:          0 HIT:          0 MISS:          0 MSHR_MERGE:          0
cpu0->cpu0_L1D PREFETCH     ACCESS:     321207 HIT:     300610 MISS:      20597 MSHR_MERGE:        647
cpu0->cpu0_L1D WRITE        ACCESS:    5890698 HIT:    5869565 MISS:      21133 MSHR_MERGE:      10205
cpu0->cpu0_L1D TRANSLATION  ACCESS:         51 HIT:         27 MISS:         24 MSHR_MERGE:          1
cpu0->cpu0_L1D PREFETCH REQUESTED:     409588 ISSUED:     321207 USEFUL:       7069 USELESS:      12843 LATE:        183
cpu0->cpu0_L1D AVERAGE MISS LATENCY: 8.934 cycles
cpu0->cpu0_ITLB TOTAL        ACCESS:    7020957 HIT:    7020948 MISS:          9 MSHR_MERGE:          1
cpu0->cpu0_ITLB LOAD         ACCESS:    7020957 HIT:    7020948 MISS:          9 MSHR_MERGE:          1
cpu0->cpu0_ITLB RFO          ACCESS:          0 HIT:          0 MISS:          0 MSHR_MERGE:          0
cpu0->cpu0_ITLB PREFETCH     ACCESS:          0 HIT:          0 MISS:          0 MSHR_MERGE:          0
cpu0->cpu0_ITLB WRITE        ACCESS:          0 HIT:          0 MISS:          0 MSHR_MERGE:          0
cpu0->cpu0_ITLB TRANSLATION  ACCESS:          0 HIT:          0 MISS:          0 MSHR_MERGE:          0
cpu0->cpu0_ITLB PREFETCH REQUESTED:          0 ISSUED:          0 USEFUL:          0 USELESS:          0 LATE:          0
cpu0->cpu0_ITLB AVERAGE MISS LATENCY: 318.9 cycles
cpu0->cpu0_DTLB TOTAL        ACCESS:   13858981 HIT:   13340034 MISS:     518947 MSHR_MERGE:     121118
cpu0->cpu0_DTLB LOAD         ACCESS:   13858981 HIT:   13340034 MISS:     518947 MSHR_MERGE:     121118
cpu0->cpu0_DTLB RFO          ACCESS:          0 HIT:          0 MISS:          0 MSHR_MERGE:          0
cpu0->cpu0_DTLB PREFETCH     ACCESS:          0 HIT:          0 MISS:          0 MSHR_MERGE:          0
cpu0->cpu0_DTLB WRITE        ACCESS:          0 HIT:          0 MISS:          0 MSHR_MERGE:          0
cpu0->cpu0_DTLB TRANSLATION  ACCESS:          0 HIT:          0 MISS:          0 MSHR_MERGE:          0
cpu0->cpu0_DTLB PREFETCH REQUESTED:          0 ISSUED:          0 USEFUL:          0 USELESS:          0 LATE:          0
cpu0->cpu0_DTLB AVERAGE MISS LATENCY: 5.015 cycles
cpu0->LLC TOTAL        ACCESS:       1093 HIT:         27 MISS:       1066 MSHR_MERGE:          0
cpu0->LLC LOAD         ACCESS:        316 HIT:         12 MISS:        304 MSHR_MERGE:          0
cpu0->LLC RFO          ACCESS:        105 HIT:          2 MISS:        103 MSHR_MERGE:          0
cpu0->LLC PREFETCH     ACCESS:        654 HIT:          4 MISS:        650 MSHR_MERGE:          0
cpu0->LLC WRITE        ACCESS:          6 HIT:          6 MISS:          0 MSHR_MERGE:          0
cpu0->LLC TRANSLATION  ACCESS:         12 HIT:          3 MISS:          9 MSHR_MERGE:          0
cpu0->LLC PREFETCH REQUESTED:          0 ISSUED:          0 USEFUL:          0 USELESS:          0 LATE:          0
cpu0->LLC AVERAGE MISS LATENCY: 169.1 cycles

DRAM Statistics

Channel 0 RQ ROW_BUFFER_HIT:         10
  ROW_BUFFER_MISS:       1056
  AVG DBUS CONGESTED CYCLE: 2.878
Channel 0 WQ ROW_BUFFER_HIT:          0
  ROW_BUFFER_MISS:          0
  FULL:          0
Channel 0 REFRESHES ISSUED:       1794

[ROI Statistics]
[System Configuration]
num_cpus 1
cpu_freq 4000
fetch_width 6
decode_width 6
dispatch_width 6
execute_width 6
lq_width 2
sq_width 2
retire_width 6
scheduler_size 128
branch_mispredict_penalty 15
rob_size 352
lq_size 128
sq_size 72
ifetch_buffer_size 64
decode_buffer_size 32
dispatch_buffer_size 32
register_file_size 288
decode_latency 1
dispatch_latency 1
schedule_latency 1
execute_latency 1
page_size 4096
block_size 64
core_0_itlb_set 16
core_0_itlb_way 4
core_0_itlb_rq_size 16
core_0_itlb_wq_size 16
core_0_itlb_pq_size 0
core_0_itlb_mshr_size 8
core_0_itlb_hit_latency 1
core_0_itlb_fill_latency 1
core_0_itlb_max_tag_check 2
core_0_itlb_max_fill 2
core_0_dtlb_set 16
core_0_dtlb_way 4
core_0_dtlb_rq_size 16
core_0_dtlb_wq_size 16
core_0_dtlb_pq_size 0
core_0_dtlb_mshr_size 8
core_0_dtlb_hit_latency 1
core_0_dtlb_fill_latency 1
core_0_dtlb_max_tag_check 2
core_0_dtlb_max_fill 2
core_0_stlb_set 128
core_0_stlb_way 12
core_0_stlb_rq_size 32
core_0_stlb_wq_size 32
core_0_stlb_pq_size 0
core_0_stlb_mshr_size 16
core_0_stlb_hit_latency 4
core_0_stlb_fill_latency 4
core_0_stlb_max_tag_check 1
core_0_stlb_max_fill 1
core_0_l1i_set 64
core_0_l1i_way 8
core_0_l1i_rq_size 64
core_0_l1i_wq_size 64
core_0_l1i_pq_size 32
core_0_l1i_mshr_size 8
core_0_l1i_hit_latency 2
core_0_l1i_fill_latency 2
core_0_l1i_max_tag_check 2
core_0_l1i_max_fill 2
core_0_l1d_set 64
core_0_l1d_way 12
core_0_l1d_rq_size 64
core_0_l1d_wq_size 64
core_0_l1d_pq_size 8
core_0_l1d_mshr_size 16
core_0_l1d_hit_latency 2
core_0_l1d_fill_latency 3
core_0_l1d_max_tag_check 2
core_0_l1d_max_fill 2
core_0_l2c_set 1024
core_0_l2c_way 8
core_0_l2c_rq_size 32
core_0_l2c_wq_size 32
core_0_l2c_pq_size 16
core_0_l2c_mshr_size 32
core_0_l2c_hit_latency 5
core_0_l2c_fill_latency 5
core_0_l2c_max_tag_check 1
core_0_l2c_max_fill 1
llc_set 2048
llc_way 16
llc_rq_size 32
llc_wq_size 32
llc_pq_size 32
llc_mshr_size 64
llc_hit_latency 10
llc_fill_latency 10
llc_max_tag_check 1
llc_max_fill 1
dram_channels 1
dram_ranks 1
dram_bankgroups 8
dram_banks 4
dram_rows 65536
dram_columns 1024
dram_channel_width 8
dram_rq_size 64
dram_wq_size 64
dram_size 17179869184
core_0_itlb_prefetcher no
core_0_dtlb_prefetcher no
core_0_stlb_prefetcher no
core_0_l1i_prefetcher next_line
core_0_l1d_prefetcher berti
core_0_l2c_prefetcher ip_stride
llc_prefetcher no
llc_replacement drrip

Core_0_instructions 50000004
Core_0_cycles 21527084
Core_0_IPC 2.32266
Core_0_branch_prediction_accuracy 98.9606
Core_0_branch_MPKI 0.9774
Core_0_average_ROB_occupancy_at_mispredict 175.338

Core_0_ITLB_total_access 7020957
Core_0_ITLB_total_hit 7020948
Core_0_ITLB_total_miss 9
Core_0_ITLB_total_MPKI 0.00018
Core_0_ITLB_total_miss_rate 1.28188e-06
Core_0_ITLB_demand_access 7020957
Core_0_ITLB_demand_hit 7020948
Core_0_ITLB_demand_miss 9
Core_0_ITLB_demand_MPKI 0.00018
Core_0_ITLB_demand_miss_rate 1.28188e-06
Core_0_ITLB_load_access 7020957
Core_0_ITLB_load_hit 7020948
Core_0_ITLB_load_miss 9
Core_0_ITLB_load_MPKI 0.00018
Core_0_ITLB_load_miss_rate 1.28188e-06
Core_0_ITLB_rfo_access 0
Core_0_ITLB_rfo_hit 0
Core_0_ITLB_rfo_miss 0
Core_0_ITLB_rfo_MPKI 0
Core_0_ITLB_rfo_miss_rate 0
Core_0_ITLB_prefetch_access 0
Core_0_ITLB_prefetch_hit 0
Core_0_ITLB_prefetch_miss 0
Core_0_ITLB_prefetch_MPKI 0
Core_0_ITLB_prefetch_miss_rate 0
Core_0_ITLB_writeback_access 0
Core_0_ITLB_writeback_hit 0
Core_0_ITLB_writeback_miss 0
Core_0_ITLB_writeback_MPKI 0
Core_0_ITLB_writeback_miss_rate 0
Core_0_ITLB_prefetch_requested 0
Core_0_ITLB_prefetch_issued 0
Core_0_ITLB_prefetch_useful 0
Core_0_ITLB_prefetch_useless 0
Core_0_ITLB_prefetch_late 0
Core_0_ITLB_prefetch_accuracy 0
Core_0_ITLB_prefetch_coverage 0

Core_0_DTLB_total_access 13858981
Core_0_DTLB_total_hit 13340034
Core_0_DTLB_total_miss 518947
Core_0_DTLB_total_MPKI 10.3789
Core_0_DTLB_total_miss_rate 0.0374448
Core_0_DTLB_demand_access 13858981
Core_0_DTLB_demand_hit 13340034
Core_0_DTLB_demand_miss 518947
Core_0_DTLB_demand_MPKI 10.3789
Core_0_DTLB_demand_miss_rate 0.0374448
Core_0_DTLB_load_access 13858981
Core_0_DTLB_load_hit 13340034
Core_0_DTLB_load_miss 518947
Core_0_DTLB_load_MPKI 10.3789
Core_0_DTLB_load_miss_rate 0.0374448
Core_0_DTLB_rfo_access 0
Core_0_DTLB_rfo_hit 0
Core_0_DTLB_rfo_miss 0
Core_0_DTLB_rfo_MPKI 0
Core_0_DTLB_rfo_miss_rate 0
Core_0_DTLB_prefetch_access 0
Core_0_DTLB_prefetch_hit 0
Core_0_DTLB_prefetch_miss 0
Core_0_DTLB_prefetch_MPKI 0
Core_0_DTLB_prefetch_miss_rate 0
Core_0_DTLB_writeback_access 0
Core_0_DTLB_writeback_hit 0
Core_0_DTLB_writeback_miss 0
Core_0_DTLB_writeback_MPKI 0
Core_0_DTLB_writeback_miss_rate 0
Core_0_DTLB_prefetch_requested 0
Core_0_DTLB_prefetch_issued 0
Core_0_DTLB_prefetch_useful 0
Core_0_DTLB_prefetch_useless 0
Core_0_DTLB_prefetch_late 0
Core_0_DTLB_prefetch_accuracy 0
Core_0_DTLB_prefetch_coverage 0

Core_0_STLB_total_access 397837
Core_0_STLB_total_hit 397811
Core_0_STLB_total_miss 26
Core_0_STLB_total_MPKI 0.00052
Core_0_STLB_total_miss_rate 6.53534e-05
Core_0_STLB_demand_access 397837
Core_0_STLB_demand_hit 397811
Core_0_STLB_demand_miss 26
Core_0_STLB_demand_MPKI 0.00052
Core_0_STLB_demand_miss_rate 6.53534e-05
Core_0_STLB_load_access 397837
Core_0_STLB_load_hit 397811
Core_0_STLB_load_miss 26
Core_0_STLB_load_MPKI 0.00052
Core_0_STLB_load_miss_rate 6.53534e-05
Core_0_STLB_rfo_access 0
Core_0_STLB_rfo_hit 0
Core_0_STLB_rfo_miss 0
Core_0_STLB_rfo_MPKI 0
Core_0_STLB_rfo_miss_rate 0
Core_0_STLB_prefetch_access 0
Core_0_STLB_prefetch_hit 0
Core_0_STLB_prefetch_miss 0
Core_0_STLB_prefetch_MPKI 0
Core_0_STLB_prefetch_miss_rate 0
Core_0_STLB_writeback_access 0
Core_0_STLB_writeback_hit 0
Core_0_STLB_writeback_miss 0
Core_0_STLB_writeback_MPKI 0
Core_0_STLB_writeback_miss_rate 0
Core_0_STLB_prefetch_requested 0
Core_0_STLB_prefetch_issued 0
Core_0_STLB_prefetch_useful 0
Core_0_STLB_prefetch_useless 0
Core_0_STLB_prefetch_late 0
Core_0_STLB_prefetch_accuracy 0
Core_0_STLB_prefetch_coverage 0

Core_0_L1I_total_access 8998776
Core_0_L1I_total_hit 8982098
Core_0_L1I_total_miss 16678
Core_0_L1I_total_MPKI 0.33356
Core_0_L1I_total_miss_rate 0.00185336
Core_0_L1I_demand_access 8998776
Core_0_L1I_demand_hit 8982098
Core_0_L1I_demand_miss 16678
Core_0_L1I_demand_MPKI 0.33356
Core_0_L1I_demand_miss_rate 0.00185336
Core_0_L1I_load_access 8998776
Core_0_L1I_load_hit 8982098
Core_0_L1I_load_miss 16678
Core_0_L1I_load_MPKI 0.33356
Core_0_L1I_load_miss_rate 0.00185336
Core_0_L1I_rfo_access 0
Core_0_L1I_rfo_hit 0
Core_0_L1I_rfo_miss 0
Core_0_L1I_rfo_MPKI 0
Core_0_L1I_rfo_miss_rate 0
Core_0_L1I_prefetch_access 0
Core_0_L1I_prefetch_hit 0
Core_0_L1I_prefetch_miss 0
Core_0_L1I_prefetch_MPKI 0
Core_0_L1I_prefetch_miss_rate 0
Core_0_L1I_writeback_access 0
Core_0_L1I_writeback_hit 0
Core_0_L1I_writeback_miss 0
Core_0_L1I_writeback_MPKI 0
Core_0_L1I_writeback_miss_rate 0
Core_0_L1I_prefetch_requested 0
Core_0_L1I_prefetch_issued 0
Core_0_L1I_prefetch_useful 0
Core_0_L1I_prefetch_useless 0
Core_0_L1I_prefetch_late 0
Core_0_L1I_prefetch_accuracy 0
Core_0_L1I_prefetch_coverage 0

Core_0_L1D_total_access 14691824
Core_0_L1D_total_hit 14612030
Core_0_L1D_total_miss 79794
Core_0_L1D_total_MPKI 1.59588
Core_0_L1D_total_miss_rate 0.00543118
Core_0_L1D_demand_access 8479919
Core_0_L1D_demand_hit 8441855
Core_0_L1D_demand_miss 38064
Core_0_L1D_demand_MPKI 0.76128
Core_0_L1D_demand_miss_rate 0.00448872
Core_0_L1D_load_access 8479919
Core_0_L1D_load_hit 8441855
Core_0_L1D_load_miss 38064
Core_0_L1D_load_MPKI 0.76128
Core_0_L1D_load_miss_rate 0.00448872
Core_0_L1D_rfo_access 0
Core_0_L1D_rfo_hit 0
Core_0_L1D_rfo_miss 0
Core_0_L1D_rfo_MPKI 0
Core_0_L1D_rfo_miss_rate 0
Core_0_L1D_prefetch_access 321207
Core_0_L1D_prefetch_hit 300610
Core_0_L1D_prefetch_miss 20597
Core_0_L1D_prefetch_MPKI 0.41194
Core_0_L1D_prefetch_miss_rate 0.0641238
Core_0_L1D_writeback_access 5890698
Core_0_L1D_writeback_hit 5869565
Core_0_L1D_writeback_miss 21133
Core_0_L1D_writeback_MPKI 0.42266
Core_0_L1D_writeback_miss_rate 0.00358752
Core_0_L1D_prefetch_requested 409588
Core_0_L1D_prefetch_issued 321207
Core_0_L1D_prefetch_useful 7069
Core_0_L1D_prefetch_useless 12843
Core_0_L1D_prefetch_late 183
Core_0_L1D_prefetch_accuracy 0.0220076
Core_0_L1D_prefetch_coverage 0.156626

Core_0_L2C_total_access 89134
Core_0_L2C_total_hit 88041
Core_0_L2C_total_miss 1093
Core_0_L2C_total_MPKI 0.02186
Core_0_L2C_total_miss_rate 0.0122624
Core_0_L2C_demand_access 50216
Core_0_L2C_demand_hit 49795
Core_0_L2C_demand_miss 421
Core_0_L2C_demand_MPKI 0.00842
Core_0_L2C_demand_miss_rate 0.00838378
Core_0_L2C_load_access 39324
Core_0_L2C_load_hit 39008
Core_0_L2C_load_miss 316
Core_0_L2C_load_MPKI 0.00632
Core_0_L2C_load_miss_rate 0.00803581
Core_0_L2C_rfo_access 10892
Core_0_L2C_rfo_hit 10787
Core_0_L2C_rfo_miss 105
Core_0_L2C_rfo_MPKI 0.0021
Core_0_L2C_rfo_miss_rate 0.0096401
Core_0_L2C_prefetch_access 24459
Core_0_L2C_prefetch_hit 23791
Core_0_L2C_prefetch_miss 668
Core_0_L2C_prefetch_MPKI 0.01336
Core_0_L2C_prefetch_miss_rate 0.027311
Core_0_L2C_writeback_access 14459
Core_0_L2C_writeback_hit 14455
Core_0_L2C_writeback_miss 4
Core_0_L2C_writeback_MPKI 8e-05
Core_0_L2C_writeback_miss_rate 0.000276644
Core_0_L2C_prefetch_requested 4509
Core_0_L2C_prefetch_issued 4509
Core_0_L2C_prefetch_useful 120
Core_0_L2C_prefetch_useless 1
Core_0_L2C_prefetch_late 0
Core_0_L2C_prefetch_accuracy 0.0266134
Core_0_L2C_prefetch_coverage 0.221811

Core_0_LLC_total_access 1081
Core_0_LLC_total_hit 24
Core_0_LLC_total_miss 1057
Core_0_LLC_total_MPKI 0.02114
Core_0_LLC_total_miss_rate 0.977798
Core_0_LLC_demand_access 421
Core_0_LLC_demand_hit 14
Core_0_LLC_demand_miss 407
Core_0_LLC_demand_MPKI 0.00814
Core_0_LLC_demand_miss_rate 0.966746
Core_0_LLC_load_access 316
Core_0_LLC_load_hit 12
Core_0_LLC_load_miss 304
Core_0_LLC_load_MPKI 0.00608
Core_0_LLC_load_miss_rate 0.962025
Core_0_LLC_rfo_access 105
Core_0_LLC_rfo_hit 2
Core_0_LLC_rfo_miss 103
Core_0_LLC_rfo_MPKI 0.00206
Core_0_LLC_rfo_miss_rate 0.980952
Core_0_LLC_prefetch_access 654
Core_0_LLC_prefetch_hit 4
Core_0_LLC_prefetch_miss 650
Core_0_LLC_prefetch_MPKI 0.013
Core_0_LLC_prefetch_miss_rate 0.993884
Core_0_LLC_writeback_access 6
Core_0_LLC_writeback_hit 6
Core_0_LLC_writeback_miss 0
Core_0_LLC_writeback_MPKI 0
Core_0_LLC_writeback_miss_rate 0
Core_0_LLC_prefetch_requested 0
Core_0_LLC_prefetch_issued 0
Core_0_LLC_prefetch_useful 0
Core_0_LLC_prefetch_useless 0
Core_0_LLC_prefetch_late 0
Core_0_LLC_prefetch_accuracy 0
Core_0_LLC_prefetch_coverage 0

[DRAM Statistics]
Channel_0_RQ_row_buffer_hit 10
Channel_0_RQ_row_buffer_miss 1056
Channel_0_WQ_row_buffer_hit 0
Channel_0_WQ_row_buffer_miss 0
Channel_0_WQ_full 0
Channel_0_dbus_congested 722
DRAM_total_RQ_row_buffer_hit 10
DRAM_total_RQ_row_buffer_miss 1056
DRAM_total_WQ_row_buffer_hit 0
DRAM_total_WQ_row_buffer_miss 0
DRAM_total_WQ_full 0
DRAM_total_dbus_congested 722
DRAM_avg_congested_cycle 2.87812

======STLB miss causes ========
Core_0_STLB_miss_cause_breakdown
Core_0_STLB_cause_Demand_Data_miss 9
Core_0_STLB_cause_Demand_Data_miss_rate 2.26223e-05
Core_0_STLB_cause_Demand_Instruction_miss 8
Core_0_STLB_cause_Demand_Instruction_miss_rate 2.01087e-05
Core_0_STLB_cause_L1D_Prefetch_miss 9
Core_0_STLB_cause_L1D_Prefetch_miss_rate 2.26223e-05
Core_0_STLB_cause_L1I_Prefetch_miss 0
Core_0_STLB_cause_L1I_Prefetch_miss_rate 0
Core_0_STLB_cause_Other_miss 0
Core_0_STLB_cause_Other_miss_rate 0
Core_0_STLB_Demand_miss 17
Core_0_STLB_Demand_miss_rate 4.27311e-05
Core_0_STLB_L1D_Prefetch_miss 9
Core_0_STLB_L1D_Prefetch_miss_rate 2.26223e-05
Core_0_STLB_Other_miss 0
Core_0_STLB_Other_miss_rate 0
