[VMEM] WARNING: physical memory size is smaller than virtual memory size.

*** ChampSim Multicore Out-of-Order Simulator ***
Warmup Instructions: 20000000
Simulation Instructions: 50000000
Number of CPUs: 1
Page size: 4096
STLB ideal mode: off
Core 0: /data0/tzh/champsim_traces/SPEC06/437.leslie3d-134B.champsimtrace.xz
 L1D Berti prefetcher
Off-chip DRAM Size: 16 GiB Channels: 1 Width: 64-bit Data Rate: 3205 MT/s
Warmup halting CPU 0 at instruction 20000004 cycle 4386865 for remainder of phase
Warmup finished CPU 0 instructions: 20000004 cycles: 4386865 cumulative IPC: 4.559 (Simulation time: 00 hr 00 min 54 sec)
Warmup complete CPU 0 instructions: 20000004 cycles: 4386865 cumulative IPC: 4.559 (Simulation time: 00 hr 00 min 54 sec)
Simulation finished CPU 0 instructions: 50000002 cycles: 20547124 cumulative IPC: 2.433 (Simulation time: 00 hr 04 min 18 sec)
Simulation complete CPU 0 instructions: 50000002 cycles: 20547124 cumulative IPC: 2.433 (Simulation time: 00 hr 04 min 18 sec)

ChampSim completed all CPUs

=== Simulation ===
CPU 0 runs /data0/tzh/champsim_traces/SPEC06/437.leslie3d-134B.champsimtrace.xz

Region of Interest Statistics

CPU 0 cumulative IPC: 2.433 instructions: 50000002 cycles: 20547124
CPU 0 Branch Prediction Accuracy: 99.93% MPKI: 0.01928 Average ROB Occupancy at Mispredict: 340.5
Branch type MPKI
BRANCH_DIRECT_JUMP: 0
BRANCH_INDIRECT: 0
BRANCH_CONDITIONAL: 0.01928
BRANCH_DIRECT_CALL: 0
BRANCH_INDIRECT_CALL: 0
BRANCH_RETURN: 0

cpu0->cpu0_STLB TOTAL        ACCESS:      37844 HIT:      35081 MISS:       2763 MSHR_MERGE:          0
cpu0->cpu0_STLB LOAD         ACCESS:      37844 HIT:      35081 MISS:       2763 MSHR_MERGE:          0
cpu0->cpu0_STLB RFO          ACCESS:          0 HIT:          0 MISS:          0 MSHR_MERGE:          0
cpu0->cpu0_STLB PREFETCH     ACCESS:          0 HIT:          0 MISS:          0 MSHR_MERGE:          0
cpu0->cpu0_STLB WRITE        ACCESS:          0 HIT:          0 MISS:          0 MSHR_MERGE:          0
cpu0->cpu0_STLB TRANSLATION  ACCESS:          0 HIT:          0 MISS:          0 MSHR_MERGE:          0
cpu0->cpu0_STLB PREFETCH REQUESTED:          0 ISSUED:          0 USEFUL:          0 USELESS:          0 LATE:          0
cpu0->cpu0_STLB AVERAGE MISS LATENCY: 303.4 cycles
cpu0->cpu0_L2C TOTAL        ACCESS:     964865 HIT:     564602 MISS:     400263 MSHR_MERGE:      83184
cpu0->cpu0_L2C LOAD         ACCESS:      95157 HIT:      50504 MISS:      44653 MSHR_MERGE:       2175
cpu0->cpu0_L2C RFO          ACCESS:      93837 HIT:      83229 MISS:      10608 MSHR_MERGE:          0
cpu0->cpu0_L2C PREFETCH     ACCESS:     603008 HIT:     261085 MISS:     341923 MSHR_MERGE:      81009
cpu0->cpu0_L2C WRITE        ACCESS:     170100 HIT:     169784 MISS:        316 MSHR_MERGE:          0
cpu0->cpu0_L2C TRANSLATION  ACCESS:       2763 HIT:          0 MISS:       2763 MSHR_MERGE:          0
cpu0->cpu0_L2C PREFETCH REQUESTED:     180051 ISSUED:     180051 USEFUL:      33671 USELESS:      31442 LATE:       2175
cpu0->cpu0_L2C AVERAGE MISS LATENCY: 85.36 cycles
cpu0->cpu0_L1I TOTAL        ACCESS:    8563320 HIT:    8563320 MISS:          0 MSHR_MERGE:          0
cpu0->cpu0_L1I LOAD         ACCESS:    8563320 HIT:    8563320 MISS:          0 MSHR_MERGE:          0
cpu0->cpu0_L1I RFO          ACCESS:          0 HIT:          0 MISS:          0 MSHR_MERGE:          0
cpu0->cpu0_L1I PREFETCH     ACCESS:          0 HIT:          0 MISS:          0 MSHR_MERGE:          0
cpu0->cpu0_L1I WRITE        ACCESS:          0 HIT:          0 MISS:          0 MSHR_MERGE:          0
cpu0->cpu0_L1I TRANSLATION  ACCESS:          0 HIT:          0 MISS:          0 MSHR_MERGE:          0
cpu0->cpu0_L1I PREFETCH REQUESTED:          0 ISSUED:          0 USEFUL:          0 USELESS:          0 LATE:          0
cpu0->cpu0_L1I AVERAGE MISS LATENCY: - cycles
cpu0->cpu0_L1D TOTAL        ACCESS:   14887278 HIT:   13932993 MISS:     954285 MSHR_MERGE:     339555
cpu0->cpu0_L1D LOAD         ACCESS:   12253741 HIT:   11954856 MISS:     298885 MSHR_MERGE:     203726
cpu0->cpu0_L1D RFO          ACCESS:          0 HIT:          0 MISS:          0 MSHR_MERGE:          0
cpu0->cpu0_L1D PREFETCH     ACCESS:     609490 HIT:     177637 MISS:     431853 MSHR_MERGE:       8895
cpu0->cpu0_L1D WRITE        ACCESS:    2018521 HIT:    1797737 MISS:     220784 MSHR_MERGE:     126934
cpu0->cpu0_L1D TRANSLATION  ACCESS:       5526 HIT:       2763 MISS:       2763 MSHR_MERGE:          0
cpu0->cpu0_L1D PREFETCH REQUESTED:     627671 ISSUED:     609482 USEFUL:     379083 USELESS:      43833 LATE:      33676
cpu0->cpu0_L1D AVERAGE MISS LATENCY: 41.78 cycles
cpu0->cpu0_ITLB TOTAL        ACCESS:    7128443 HIT:    7128443 MISS:          0 MSHR_MERGE:          0
cpu0->cpu0_ITLB LOAD         ACCESS:    7128443 HIT:    7128443 MISS:          0 MSHR_MERGE:          0
cpu0->cpu0_ITLB RFO          ACCESS:          0 HIT:          0 MISS:          0 MSHR_MERGE:          0
cpu0->cpu0_ITLB PREFETCH     ACCESS:          0 HIT:          0 MISS:          0 MSHR_MERGE:          0
cpu0->cpu0_ITLB WRITE        ACCESS:          0 HIT:          0 MISS:          0 MSHR_MERGE:          0
cpu0->cpu0_ITLB TRANSLATION  ACCESS:          0 HIT:          0 MISS:          0 MSHR_MERGE:          0
cpu0->cpu0_ITLB PREFETCH REQUESTED:          0 ISSUED:          0 USEFUL:          0 USELESS:          0 LATE:          0
cpu0->cpu0_ITLB AVERAGE MISS LATENCY: - cycles
cpu0->cpu0_DTLB TOTAL        ACCESS:   14099089 HIT:   14039375 MISS:      59714 MSHR_MERGE:      21870
cpu0->cpu0_DTLB LOAD         ACCESS:   14099089 HIT:   14039375 MISS:      59714 MSHR_MERGE:      21870
cpu0->cpu0_DTLB RFO          ACCESS:          0 HIT:          0 MISS:          0 MSHR_MERGE:          0
cpu0->cpu0_DTLB PREFETCH     ACCESS:          0 HIT:          0 MISS:          0 MSHR_MERGE:          0
cpu0->cpu0_DTLB WRITE        ACCESS:          0 HIT:          0 MISS:          0 MSHR_MERGE:          0
cpu0->cpu0_DTLB TRANSLATION  ACCESS:          0 HIT:          0 MISS:          0 MSHR_MERGE:          0
cpu0->cpu0_DTLB PREFETCH REQUESTED:          0 ISSUED:          0 USEFUL:          0 USELESS:          0 LATE:          0
cpu0->cpu0_DTLB AVERAGE MISS LATENCY: 27.23 cycles
cpu0->LLC TOTAL        ACCESS:     380261 HIT:     180221 MISS:     200040 MSHR_MERGE:          0
cpu0->LLC LOAD         ACCESS:      42478 HIT:      24655 MISS:      17823 MSHR_MERGE:          0
cpu0->LLC RFO          ACCESS:      10608 HIT:      10396 MISS:        212 MSHR_MERGE:          0
cpu0->LLC PREFETCH     ACCESS:     260914 HIT:      85507 MISS:     175407 MSHR_MERGE:          0
cpu0->LLC WRITE        ACCESS:      63498 HIT:      57815 MISS:       5683 MSHR_MERGE:          0
cpu0->LLC TRANSLATION  ACCESS:       2763 HIT:       1848 MISS:        915 MSHR_MERGE:          0
cpu0->LLC PREFETCH REQUESTED:          0 ISSUED:          0 USEFUL:          0 USELESS:          0 LATE:          0
cpu0->LLC AVERAGE MISS LATENCY: 160.6 cycles

DRAM Statistics

Channel 0 RQ ROW_BUFFER_HIT:        362
  ROW_BUFFER_MISS:     193965
  AVG DBUS CONGESTED CYCLE: 11.43
Channel 0 WQ ROW_BUFFER_HIT:      11530
  ROW_BUFFER_MISS:      31953
  FULL:          0
Channel 0 REFRESHES ISSUED:       1712

[ROI Statistics]
[System Configuration]
num_cpus 1
cpu_freq 4000
fetch_width 6
decode_width 6
dispatch_width 6
execute_width 6
lq_width 2
sq_width 2
retire_width 6
scheduler_size 128
branch_mispredict_penalty 15
rob_size 352
lq_size 128
sq_size 72
ifetch_buffer_size 64
decode_buffer_size 32
dispatch_buffer_size 32
register_file_size 288
decode_latency 1
dispatch_latency 1
schedule_latency 1
execute_latency 1
page_size 4096
block_size 64
core_0_itlb_set 16
core_0_itlb_way 4
core_0_itlb_rq_size 16
core_0_itlb_wq_size 16
core_0_itlb_pq_size 0
core_0_itlb_mshr_size 8
core_0_itlb_hit_latency 1
core_0_itlb_fill_latency 1
core_0_itlb_max_tag_check 2
core_0_itlb_max_fill 2
core_0_dtlb_set 16
core_0_dtlb_way 4
core_0_dtlb_rq_size 16
core_0_dtlb_wq_size 16
core_0_dtlb_pq_size 0
core_0_dtlb_mshr_size 8
core_0_dtlb_hit_latency 1
core_0_dtlb_fill_latency 1
core_0_dtlb_max_tag_check 2
core_0_dtlb_max_fill 2
core_0_stlb_set 128
core_0_stlb_way 12
core_0_stlb_rq_size 32
core_0_stlb_wq_size 32
core_0_stlb_pq_size 0
core_0_stlb_mshr_size 16
core_0_stlb_hit_latency 4
core_0_stlb_fill_latency 4
core_0_stlb_max_tag_check 1
core_0_stlb_max_fill 1
core_0_l1i_set 64
core_0_l1i_way 8
core_0_l1i_rq_size 64
core_0_l1i_wq_size 64
core_0_l1i_pq_size 32
core_0_l1i_mshr_size 8
core_0_l1i_hit_latency 2
core_0_l1i_fill_latency 2
core_0_l1i_max_tag_check 2
core_0_l1i_max_fill 2
core_0_l1d_set 64
core_0_l1d_way 12
core_0_l1d_rq_size 64
core_0_l1d_wq_size 64
core_0_l1d_pq_size 8
core_0_l1d_mshr_size 16
core_0_l1d_hit_latency 2
core_0_l1d_fill_latency 3
core_0_l1d_max_tag_check 2
core_0_l1d_max_fill 2
core_0_l2c_set 1024
core_0_l2c_way 8
core_0_l2c_rq_size 32
core_0_l2c_wq_size 32
core_0_l2c_pq_size 16
core_0_l2c_mshr_size 32
core_0_l2c_hit_latency 5
core_0_l2c_fill_latency 5
core_0_l2c_max_tag_check 1
core_0_l2c_max_fill 1
llc_set 2048
llc_way 16
llc_rq_size 32
llc_wq_size 32
llc_pq_size 32
llc_mshr_size 64
llc_hit_latency 10
llc_fill_latency 10
llc_max_tag_check 1
llc_max_fill 1
dram_channels 1
dram_ranks 1
dram_bankgroups 8
dram_banks 4
dram_rows 65536
dram_columns 1024
dram_channel_width 8
dram_rq_size 64
dram_wq_size 64
dram_size 17179869184
core_0_itlb_prefetcher no
core_0_dtlb_prefetcher no
core_0_stlb_prefetcher no
core_0_l1i_prefetcher next_line
core_0_l1d_prefetcher berti
core_0_l2c_prefetcher ip_stride
llc_prefetcher no
llc_replacement drrip

Core_0_instructions 50000002
Core_0_cycles 20547124
Core_0_IPC 2.43343
Core_0_branch_prediction_accuracy 99.9274
Core_0_branch_MPKI 0.01928
Core_0_average_ROB_occupancy_at_mispredict 340.525

Core_0_ITLB_total_access 7128443
Core_0_ITLB_total_hit 7128443
Core_0_ITLB_total_miss 0
Core_0_ITLB_total_MPKI 0
Core_0_ITLB_total_miss_rate 0
Core_0_ITLB_demand_access 7128443
Core_0_ITLB_demand_hit 7128443
Core_0_ITLB_demand_miss 0
Core_0_ITLB_demand_MPKI 0
Core_0_ITLB_demand_miss_rate 0
Core_0_ITLB_load_access 7128443
Core_0_ITLB_load_hit 7128443
Core_0_ITLB_load_miss 0
Core_0_ITLB_load_MPKI 0
Core_0_ITLB_load_miss_rate 0
Core_0_ITLB_rfo_access 0
Core_0_ITLB_rfo_hit 0
Core_0_ITLB_rfo_miss 0
Core_0_ITLB_rfo_MPKI 0
Core_0_ITLB_rfo_miss_rate 0
Core_0_ITLB_prefetch_access 0
Core_0_ITLB_prefetch_hit 0
Core_0_ITLB_prefetch_miss 0
Core_0_ITLB_prefetch_MPKI 0
Core_0_ITLB_prefetch_miss_rate 0
Core_0_ITLB_writeback_access 0
Core_0_ITLB_writeback_hit 0
Core_0_ITLB_writeback_miss 0
Core_0_ITLB_writeback_MPKI 0
Core_0_ITLB_writeback_miss_rate 0
Core_0_ITLB_prefetch_requested 0
Core_0_ITLB_prefetch_issued 0
Core_0_ITLB_prefetch_useful 0
Core_0_ITLB_prefetch_useless 0
Core_0_ITLB_prefetch_late 0
Core_0_ITLB_prefetch_accuracy 0
Core_0_ITLB_prefetch_coverage 0

Core_0_DTLB_total_access 14099089
Core_0_DTLB_total_hit 14039375
Core_0_DTLB_total_miss 59714
Core_0_DTLB_total_MPKI 1.19428
Core_0_DTLB_total_miss_rate 0.00423531
Core_0_DTLB_demand_access 14099089
Core_0_DTLB_demand_hit 14039375
Core_0_DTLB_demand_miss 59714
Core_0_DTLB_demand_MPKI 1.19428
Core_0_DTLB_demand_miss_rate 0.00423531
Core_0_DTLB_load_access 14099089
Core_0_DTLB_load_hit 14039375
Core_0_DTLB_load_miss 59714
Core_0_DTLB_load_MPKI 1.19428
Core_0_DTLB_load_miss_rate 0.00423531
Core_0_DTLB_rfo_access 0
Core_0_DTLB_rfo_hit 0
Core_0_DTLB_rfo_miss 0
Core_0_DTLB_rfo_MPKI 0
Core_0_DTLB_rfo_miss_rate 0
Core_0_DTLB_prefetch_access 0
Core_0_DTLB_prefetch_hit 0
Core_0_DTLB_prefetch_miss 0
Core_0_DTLB_prefetch_MPKI 0
Core_0_DTLB_prefetch_miss_rate 0
Core_0_DTLB_writeback_access 0
Core_0_DTLB_writeback_hit 0
Core_0_DTLB_writeback_miss 0
Core_0_DTLB_writeback_MPKI 0
Core_0_DTLB_writeback_miss_rate 0
Core_0_DTLB_prefetch_requested 0
Core_0_DTLB_prefetch_issued 0
Core_0_DTLB_prefetch_useful 0
Core_0_DTLB_prefetch_useless 0
Core_0_DTLB_prefetch_late 0
Core_0_DTLB_prefetch_accuracy 0
Core_0_DTLB_prefetch_coverage 0

Core_0_STLB_total_access 37844
Core_0_STLB_total_hit 35081
Core_0_STLB_total_miss 2763
Core_0_STLB_total_MPKI 0.05526
Core_0_STLB_total_miss_rate 0.0730103
Core_0_STLB_demand_access 37844
Core_0_STLB_demand_hit 35081
Core_0_STLB_demand_miss 2763
Core_0_STLB_demand_MPKI 0.05526
Core_0_STLB_demand_miss_rate 0.0730103
Core_0_STLB_load_access 37844
Core_0_STLB_load_hit 35081
Core_0_STLB_load_miss 2763
Core_0_STLB_load_MPKI 0.05526
Core_0_STLB_load_miss_rate 0.0730103
Core_0_STLB_rfo_access 0
Core_0_STLB_rfo_hit 0
Core_0_STLB_rfo_miss 0
Core_0_STLB_rfo_MPKI 0
Core_0_STLB_rfo_miss_rate 0
Core_0_STLB_prefetch_access 0
Core_0_STLB_prefetch_hit 0
Core_0_STLB_prefetch_miss 0
Core_0_STLB_prefetch_MPKI 0
Core_0_STLB_prefetch_miss_rate 0
Core_0_STLB_writeback_access 0
Core_0_STLB_writeback_hit 0
Core_0_STLB_writeback_miss 0
Core_0_STLB_writeback_MPKI 0
Core_0_STLB_writeback_miss_rate 0
Core_0_STLB_prefetch_requested 0
Core_0_STLB_prefetch_issued 0
Core_0_STLB_prefetch_useful 0
Core_0_STLB_prefetch_useless 0
Core_0_STLB_prefetch_late 0
Core_0_STLB_prefetch_accuracy 0
Core_0_STLB_prefetch_coverage 0

Core_0_L1I_total_access 8563320
Core_0_L1I_total_hit 8563320
Core_0_L1I_total_miss 0
Core_0_L1I_total_MPKI 0
Core_0_L1I_total_miss_rate 0
Core_0_L1I_demand_access 8563320
Core_0_L1I_demand_hit 8563320
Core_0_L1I_demand_miss 0
Core_0_L1I_demand_MPKI 0
Core_0_L1I_demand_miss_rate 0
Core_0_L1I_load_access 8563320
Core_0_L1I_load_hit 8563320
Core_0_L1I_load_miss 0
Core_0_L1I_load_MPKI 0
Core_0_L1I_load_miss_rate 0
Core_0_L1I_rfo_access 0
Core_0_L1I_rfo_hit 0
Core_0_L1I_rfo_miss 0
Core_0_L1I_rfo_MPKI 0
Core_0_L1I_rfo_miss_rate 0
Core_0_L1I_prefetch_access 0
Core_0_L1I_prefetch_hit 0
Core_0_L1I_prefetch_miss 0
Core_0_L1I_prefetch_MPKI 0
Core_0_L1I_prefetch_miss_rate 0
Core_0_L1I_writeback_access 0
Core_0_L1I_writeback_hit 0
Core_0_L1I_writeback_miss 0
Core_0_L1I_writeback_MPKI 0
Core_0_L1I_writeback_miss_rate 0
Core_0_L1I_prefetch_requested 0
Core_0_L1I_prefetch_issued 0
Core_0_L1I_prefetch_useful 0
Core_0_L1I_prefetch_useless 0
Core_0_L1I_prefetch_late 0
Core_0_L1I_prefetch_accuracy 0
Core_0_L1I_prefetch_coverage 0

Core_0_L1D_total_access 14881752
Core_0_L1D_total_hit 13930230
Core_0_L1D_total_miss 951522
Core_0_L1D_total_MPKI 19.0304
Core_0_L1D_total_miss_rate 0.0639388
Core_0_L1D_demand_access 12253741
Core_0_L1D_demand_hit 11954856
Core_0_L1D_demand_miss 298885
Core_0_L1D_demand_MPKI 5.9777
Core_0_L1D_demand_miss_rate 0.0243913
Core_0_L1D_load_access 12253741
Core_0_L1D_load_hit 11954856
Core_0_L1D_load_miss 298885
Core_0_L1D_load_MPKI 5.9777
Core_0_L1D_load_miss_rate 0.0243913
Core_0_L1D_rfo_access 0
Core_0_L1D_rfo_hit 0
Core_0_L1D_rfo_miss 0
Core_0_L1D_rfo_MPKI 0
Core_0_L1D_rfo_miss_rate 0
Core_0_L1D_prefetch_access 609490
Core_0_L1D_prefetch_hit 177637
Core_0_L1D_prefetch_miss 431853
Core_0_L1D_prefetch_MPKI 8.63706
Core_0_L1D_prefetch_miss_rate 0.708548
Core_0_L1D_writeback_access 2018521
Core_0_L1D_writeback_hit 1797737
Core_0_L1D_writeback_miss 220784
Core_0_L1D_writeback_MPKI 4.41568
Core_0_L1D_writeback_miss_rate 0.109379
Core_0_L1D_prefetch_requested 627671
Core_0_L1D_prefetch_issued 609482
Core_0_L1D_prefetch_useful 379083
Core_0_L1D_prefetch_useless 43833
Core_0_L1D_prefetch_late 33676
Core_0_L1D_prefetch_accuracy 0.621976
Core_0_L1D_prefetch_coverage 0.559146

Core_0_L2C_total_access 962102
Core_0_L2C_total_hit 564602
Core_0_L2C_total_miss 397500
Core_0_L2C_total_MPKI 7.95
Core_0_L2C_total_miss_rate 0.413158
Core_0_L2C_demand_access 188994
Core_0_L2C_demand_hit 133733
Core_0_L2C_demand_miss 55261
Core_0_L2C_demand_MPKI 1.10522
Core_0_L2C_demand_miss_rate 0.292396
Core_0_L2C_load_access 95157
Core_0_L2C_load_hit 50504
Core_0_L2C_load_miss 44653
Core_0_L2C_load_MPKI 0.89306
Core_0_L2C_load_miss_rate 0.469256
Core_0_L2C_rfo_access 93837
Core_0_L2C_rfo_hit 83229
Core_0_L2C_rfo_miss 10608
Core_0_L2C_rfo_MPKI 0.21216
Core_0_L2C_rfo_miss_rate 0.113047
Core_0_L2C_prefetch_access 603008
Core_0_L2C_prefetch_hit 261085
Core_0_L2C_prefetch_miss 341923
Core_0_L2C_prefetch_MPKI 6.83846
Core_0_L2C_prefetch_miss_rate 0.567029
Core_0_L2C_writeback_access 170100
Core_0_L2C_writeback_hit 169784
Core_0_L2C_writeback_miss 316
Core_0_L2C_writeback_MPKI 0.00632
Core_0_L2C_writeback_miss_rate 0.00185773
Core_0_L2C_prefetch_requested 180051
Core_0_L2C_prefetch_issued 180051
Core_0_L2C_prefetch_useful 33671
Core_0_L2C_prefetch_useless 31442
Core_0_L2C_prefetch_late 2175
Core_0_L2C_prefetch_accuracy 0.187008
Core_0_L2C_prefetch_coverage 0.378615

Core_0_LLC_total_access 377498
Core_0_LLC_total_hit 178373
Core_0_LLC_total_miss 199125
Core_0_LLC_total_MPKI 3.9825
Core_0_LLC_total_miss_rate 0.527486
Core_0_LLC_demand_access 53086
Core_0_LLC_demand_hit 35051
Core_0_LLC_demand_miss 18035
Core_0_LLC_demand_MPKI 0.3607
Core_0_LLC_demand_miss_rate 0.339732
Core_0_LLC_load_access 42478
Core_0_LLC_load_hit 24655
Core_0_LLC_load_miss 17823
Core_0_LLC_load_MPKI 0.35646
Core_0_LLC_load_miss_rate 0.419582
Core_0_LLC_rfo_access 10608
Core_0_LLC_rfo_hit 10396
Core_0_LLC_rfo_miss 212
Core_0_LLC_rfo_MPKI 0.00424
Core_0_LLC_rfo_miss_rate 0.0199849
Core_0_LLC_prefetch_access 260914
Core_0_LLC_prefetch_hit 85507
Core_0_LLC_prefetch_miss 175407
Core_0_LLC_prefetch_MPKI 3.50814
Core_0_LLC_prefetch_miss_rate 0.672279
Core_0_LLC_writeback_access 63498
Core_0_LLC_writeback_hit 57815
Core_0_LLC_writeback_miss 5683
Core_0_LLC_writeback_MPKI 0.11366
Core_0_LLC_writeback_miss_rate 0.0894989
Core_0_LLC_prefetch_requested 0
Core_0_LLC_prefetch_issued 0
Core_0_LLC_prefetch_useful 0
Core_0_LLC_prefetch_useless 0
Core_0_LLC_prefetch_late 0
Core_0_LLC_prefetch_accuracy 0
Core_0_LLC_prefetch_coverage 0

[DRAM Statistics]
Channel_0_RQ_row_buffer_hit 362
Channel_0_RQ_row_buffer_miss 193965
Channel_0_WQ_row_buffer_hit 11530
Channel_0_WQ_row_buffer_miss 31953
Channel_0_WQ_full 0
Channel_0_dbus_congested 440904
DRAM_total_RQ_row_buffer_hit 362
DRAM_total_RQ_row_buffer_miss 193965
DRAM_total_WQ_row_buffer_hit 11530
DRAM_total_WQ_row_buffer_miss 31953
DRAM_total_WQ_full 0
DRAM_total_dbus_congested 440904
DRAM_avg_congested_cycle 11.4266

======STLB miss causes ========
Core_0_STLB_miss_cause_breakdown
Core_0_STLB_cause_Demand_Data_miss 425
Core_0_STLB_cause_Demand_Data_miss_rate 0.0112303
Core_0_STLB_cause_Demand_Instruction_miss 0
Core_0_STLB_cause_Demand_Instruction_miss_rate 0
Core_0_STLB_cause_L1D_Prefetch_miss 2338
Core_0_STLB_cause_L1D_Prefetch_miss_rate 0.0617799
Core_0_STLB_cause_L1I_Prefetch_miss 0
Core_0_STLB_cause_L1I_Prefetch_miss_rate 0
Core_0_STLB_cause_Other_miss 0
Core_0_STLB_cause_Other_miss_rate 0
Core_0_STLB_Demand_miss 425
Core_0_STLB_Demand_miss_rate 0.0112303
Core_0_STLB_L1D_Prefetch_miss 2338
Core_0_STLB_L1D_Prefetch_miss_rate 0.0617799
Core_0_STLB_Other_miss 0
Core_0_STLB_Other_miss_rate 0
