[VMEM] WARNING: physical memory size is smaller than virtual memory size.

*** ChampSim Multicore Out-of-Order Simulator ***
Warmup Instructions: 20000000
Simulation Instructions: 50000000
Number of CPUs: 1
Page size: 4096
STLB ideal mode: off
Core 0: /data0/tzh/champsim_traces/SPEC06/437.leslie3d-271B.champsimtrace.xz
 L1D Berti prefetcher
Off-chip DRAM Size: 16 GiB Channels: 1 Width: 64-bit Data Rate: 3205 MT/s
Warmup halting CPU 0 at instruction 20000004 cycle 4135659 for remainder of phase
Warmup finished CPU 0 instructions: 20000004 cycles: 4135659 cumulative IPC: 4.836 (Simulation time: 00 hr 00 min 44 sec)
Warmup complete CPU 0 instructions: 20000004 cycles: 4135659 cumulative IPC: 4.836 (Simulation time: 00 hr 00 min 44 sec)
Simulation finished CPU 0 instructions: 50000001 cycles: 15615115 cumulative IPC: 3.202 (Simulation time: 00 hr 03 min 43 sec)
Simulation complete CPU 0 instructions: 50000001 cycles: 15615115 cumulative IPC: 3.202 (Simulation time: 00 hr 03 min 43 sec)

ChampSim completed all CPUs

=== Simulation ===
CPU 0 runs /data0/tzh/champsim_traces/SPEC06/437.leslie3d-271B.champsimtrace.xz

Region of Interest Statistics

CPU 0 cumulative IPC: 3.202 instructions: 50000001 cycles: 15615115
CPU 0 Branch Prediction Accuracy: 99.2% MPKI: 0.1838 Average ROB Occupancy at Mispredict: 348.8
Branch type MPKI
BRANCH_DIRECT_JUMP: 0.00012
BRANCH_INDIRECT: 0
BRANCH_CONDITIONAL: 0.1837
BRANCH_DIRECT_CALL: 0
BRANCH_INDIRECT_CALL: 0
BRANCH_RETURN: 0

cpu0->cpu0_STLB TOTAL        ACCESS:       5555 HIT:         67 MISS:       5488 MSHR_MERGE:          0
cpu0->cpu0_STLB LOAD         ACCESS:       5555 HIT:         67 MISS:       5488 MSHR_MERGE:          0
cpu0->cpu0_STLB RFO          ACCESS:          0 HIT:          0 MISS:          0 MSHR_MERGE:          0
cpu0->cpu0_STLB PREFETCH     ACCESS:          0 HIT:          0 MISS:          0 MSHR_MERGE:          0
cpu0->cpu0_STLB WRITE        ACCESS:          0 HIT:          0 MISS:          0 MSHR_MERGE:          0
cpu0->cpu0_STLB TRANSLATION  ACCESS:          0 HIT:          0 MISS:          0 MSHR_MERGE:          0
cpu0->cpu0_STLB PREFETCH REQUESTED:          0 ISSUED:          0 USEFUL:          0 USELESS:          0 LATE:          0
cpu0->cpu0_STLB AVERAGE MISS LATENCY: 208.1 cycles
cpu0->cpu0_L2C TOTAL        ACCESS:     765116 HIT:     235453 MISS:     529663 MSHR_MERGE:     183147
cpu0->cpu0_L2C LOAD         ACCESS:       5163 HIT:       1033 MISS:       4130 MSHR_MERGE:         42
cpu0->cpu0_L2C RFO          ACCESS:     144175 HIT:          0 MISS:     144175 MSHR_MERGE:          0
cpu0->cpu0_L2C PREFETCH     ACCESS:     470781 HIT:      90130 MISS:     380651 MSHR_MERGE:     183105
cpu0->cpu0_L2C WRITE        ACCESS:     144290 HIT:     144290 MISS:          0 MSHR_MERGE:          0
cpu0->cpu0_L2C TRANSLATION  ACCESS:        707 HIT:          0 MISS:        707 MSHR_MERGE:          0
cpu0->cpu0_L2C PREFETCH REQUESTED:     275740 ISSUED:     275740 USEFUL:      63342 USELESS:      36252 LATE:         42
cpu0->cpu0_L2C AVERAGE MISS LATENCY: 310.6 cycles
cpu0->cpu0_L1I TOTAL        ACCESS:    7091937 HIT:    7091924 MISS:         13 MSHR_MERGE:          4
cpu0->cpu0_L1I LOAD         ACCESS:    7091937 HIT:    7091924 MISS:         13 MSHR_MERGE:          4
cpu0->cpu0_L1I RFO          ACCESS:          0 HIT:          0 MISS:          0 MSHR_MERGE:          0
cpu0->cpu0_L1I PREFETCH     ACCESS:          0 HIT:          0 MISS:          0 MSHR_MERGE:          0
cpu0->cpu0_L1I WRITE        ACCESS:          0 HIT:          0 MISS:          0 MSHR_MERGE:          0
cpu0->cpu0_L1I TRANSLATION  ACCESS:          0 HIT:          0 MISS:          0 MSHR_MERGE:          0
cpu0->cpu0_L1I PREFETCH REQUESTED:          0 ISSUED:          0 USEFUL:          0 USELESS:          0 LATE:          0
cpu0->cpu0_L1I AVERAGE MISS LATENCY: 278.6 cycles
cpu0->cpu0_L1D TOTAL        ACCESS:   12484639 HIT:   11135778 MISS:    1348861 MSHR_MERGE:    1003784
cpu0->cpu0_L1D LOAD         ACCESS:   11166120 HIT:   11120962 MISS:      45158 MSHR_MERGE:      40004
cpu0->cpu0_L1D RFO          ACCESS:          0 HIT:          0 MISS:          0 MSHR_MERGE:          0
cpu0->cpu0_L1D PREFETCH     ACCESS:     199897 HIT:       2924 MISS:     196973 MSHR_MERGE:       1932
cpu0->cpu0_L1D WRITE        ACCESS:    1107636 HIT:       1613 MISS:    1106023 MSHR_MERGE:     961848
cpu0->cpu0_L1D TRANSLATION  ACCESS:      10986 HIT:      10279 MISS:        707 MSHR_MERGE:          0
cpu0->cpu0_L1D PREFETCH REQUESTED:     199891 ISSUED:     199890 USEFUL:     194513 USELESS:        515 LATE:       7394
cpu0->cpu0_L1D AVERAGE MISS LATENCY: 309.6 cycles
cpu0->cpu0_ITLB TOTAL        ACCESS:    6326898 HIT:    6326898 MISS:          0 MSHR_MERGE:          0
cpu0->cpu0_ITLB LOAD         ACCESS:    6326898 HIT:    6326898 MISS:          0 MSHR_MERGE:          0
cpu0->cpu0_ITLB RFO          ACCESS:          0 HIT:          0 MISS:          0 MSHR_MERGE:          0
cpu0->cpu0_ITLB PREFETCH     ACCESS:          0 HIT:          0 MISS:          0 MSHR_MERGE:          0
cpu0->cpu0_ITLB WRITE        ACCESS:          0 HIT:          0 MISS:          0 MSHR_MERGE:          0
cpu0->cpu0_ITLB TRANSLATION  ACCESS:          0 HIT:          0 MISS:          0 MSHR_MERGE:          0
cpu0->cpu0_ITLB PREFETCH REQUESTED:          0 ISSUED:          0 USEFUL:          0 USELESS:          0 LATE:          0
cpu0->cpu0_ITLB AVERAGE MISS LATENCY: - cycles
cpu0->cpu0_DTLB TOTAL        ACCESS:   11541937 HIT:   11494479 MISS:      47458 MSHR_MERGE:      41903
cpu0->cpu0_DTLB LOAD         ACCESS:   11541937 HIT:   11494479 MISS:      47458 MSHR_MERGE:      41903
cpu0->cpu0_DTLB RFO          ACCESS:          0 HIT:          0 MISS:          0 MSHR_MERGE:          0
cpu0->cpu0_DTLB PREFETCH     ACCESS:          0 HIT:          0 MISS:          0 MSHR_MERGE:          0
cpu0->cpu0_DTLB WRITE        ACCESS:          0 HIT:          0 MISS:          0 MSHR_MERGE:          0
cpu0->cpu0_DTLB TRANSLATION  ACCESS:          0 HIT:          0 MISS:          0 MSHR_MERGE:          0
cpu0->cpu0_DTLB PREFETCH REQUESTED:          0 ISSUED:          0 USEFUL:          0 USELESS:          0 LATE:          0
cpu0->cpu0_DTLB AVERAGE MISS LATENCY: 211.6 cycles
cpu0->LLC TOTAL        ACCESS:     491907 HIT:      94636 MISS:     397271 MSHR_MERGE:        740
cpu0->LLC LOAD         ACCESS:       4088 HIT:          2 MISS:       4086 MSHR_MERGE:          0
cpu0->LLC RFO          ACCESS:     144175 HIT:          0 MISS:     144175 MSHR_MERGE:          0
cpu0->LLC PREFETCH     ACCESS:     197545 HIT:        696 MISS:     196849 MSHR_MERGE:        740
cpu0->LLC WRITE        ACCESS:     145392 HIT:      93938 MISS:      51454 MSHR_MERGE:          0
cpu0->LLC TRANSLATION  ACCESS:        707 HIT:          0 MISS:        707 MSHR_MERGE:          0
cpu0->LLC PREFETCH REQUESTED:          0 ISSUED:          0 USEFUL:          0 USELESS:          0 LATE:          0
cpu0->LLC AVERAGE MISS LATENCY: 221.3 cycles

DRAM Statistics

Channel 0 RQ ROW_BUFFER_HIT:       6529
  ROW_BUFFER_MISS:     338540
  AVG DBUS CONGESTED CYCLE: 6.712
Channel 0 WQ ROW_BUFFER_HIT:      19569
  ROW_BUFFER_MISS:     120363
  FULL:          0
Channel 0 REFRESHES ISSUED:       1301

[ROI Statistics]
[System Configuration]
num_cpus 1
cpu_freq 4000
fetch_width 6
decode_width 6
dispatch_width 6
execute_width 6
lq_width 2
sq_width 2
retire_width 6
scheduler_size 128
branch_mispredict_penalty 15
rob_size 352
lq_size 128
sq_size 72
ifetch_buffer_size 64
decode_buffer_size 32
dispatch_buffer_size 32
register_file_size 288
decode_latency 1
dispatch_latency 1
schedule_latency 1
execute_latency 1
page_size 4096
block_size 64
core_0_itlb_set 16
core_0_itlb_way 4
core_0_itlb_rq_size 16
core_0_itlb_wq_size 16
core_0_itlb_pq_size 0
core_0_itlb_mshr_size 8
core_0_itlb_hit_latency 1
core_0_itlb_fill_latency 1
core_0_itlb_max_tag_check 2
core_0_itlb_max_fill 2
core_0_dtlb_set 16
core_0_dtlb_way 4
core_0_dtlb_rq_size 16
core_0_dtlb_wq_size 16
core_0_dtlb_pq_size 0
core_0_dtlb_mshr_size 8
core_0_dtlb_hit_latency 1
core_0_dtlb_fill_latency 1
core_0_dtlb_max_tag_check 2
core_0_dtlb_max_fill 2
core_0_stlb_set 128
core_0_stlb_way 12
core_0_stlb_rq_size 32
core_0_stlb_wq_size 32
core_0_stlb_pq_size 0
core_0_stlb_mshr_size 16
core_0_stlb_hit_latency 4
core_0_stlb_fill_latency 4
core_0_stlb_max_tag_check 1
core_0_stlb_max_fill 1
core_0_l1i_set 64
core_0_l1i_way 8
core_0_l1i_rq_size 64
core_0_l1i_wq_size 64
core_0_l1i_pq_size 32
core_0_l1i_mshr_size 8
core_0_l1i_hit_latency 2
core_0_l1i_fill_latency 2
core_0_l1i_max_tag_check 2
core_0_l1i_max_fill 2
core_0_l1d_set 64
core_0_l1d_way 12
core_0_l1d_rq_size 64
core_0_l1d_wq_size 64
core_0_l1d_pq_size 8
core_0_l1d_mshr_size 16
core_0_l1d_hit_latency 2
core_0_l1d_fill_latency 3
core_0_l1d_max_tag_check 2
core_0_l1d_max_fill 2
core_0_l2c_set 1024
core_0_l2c_way 8
core_0_l2c_rq_size 32
core_0_l2c_wq_size 32
core_0_l2c_pq_size 16
core_0_l2c_mshr_size 32
core_0_l2c_hit_latency 5
core_0_l2c_fill_latency 5
core_0_l2c_max_tag_check 1
core_0_l2c_max_fill 1
llc_set 2048
llc_way 16
llc_rq_size 32
llc_wq_size 32
llc_pq_size 32
llc_mshr_size 64
llc_hit_latency 10
llc_fill_latency 10
llc_max_tag_check 1
llc_max_fill 1
dram_channels 1
dram_ranks 1
dram_bankgroups 8
dram_banks 4
dram_rows 65536
dram_columns 1024
dram_channel_width 8
dram_rq_size 64
dram_wq_size 64
dram_size 17179869184
core_0_itlb_prefetcher no
core_0_dtlb_prefetcher no
core_0_stlb_prefetcher no
core_0_l1i_prefetcher next_line
core_0_l1d_prefetcher berti
core_0_l2c_prefetcher ip_stride
llc_prefetcher no
llc_replacement drrip

Core_0_instructions 50000001
Core_0_cycles 15615115
Core_0_IPC 3.20203
Core_0_branch_prediction_accuracy 99.1969
Core_0_branch_MPKI 0.18382
Core_0_average_ROB_occupancy_at_mispredict 348.754

Core_0_ITLB_total_access 6326898
Core_0_ITLB_total_hit 6326898
Core_0_ITLB_total_miss 0
Core_0_ITLB_total_MPKI 0
Core_0_ITLB_total_miss_rate 0
Core_0_ITLB_demand_access 6326898
Core_0_ITLB_demand_hit 6326898
Core_0_ITLB_demand_miss 0
Core_0_ITLB_demand_MPKI 0
Core_0_ITLB_demand_miss_rate 0
Core_0_ITLB_load_access 6326898
Core_0_ITLB_load_hit 6326898
Core_0_ITLB_load_miss 0
Core_0_ITLB_load_MPKI 0
Core_0_ITLB_load_miss_rate 0
Core_0_ITLB_rfo_access 0
Core_0_ITLB_rfo_hit 0
Core_0_ITLB_rfo_miss 0
Core_0_ITLB_rfo_MPKI 0
Core_0_ITLB_rfo_miss_rate 0
Core_0_ITLB_prefetch_access 0
Core_0_ITLB_prefetch_hit 0
Core_0_ITLB_prefetch_miss 0
Core_0_ITLB_prefetch_MPKI 0
Core_0_ITLB_prefetch_miss_rate 0
Core_0_ITLB_writeback_access 0
Core_0_ITLB_writeback_hit 0
Core_0_ITLB_writeback_miss 0
Core_0_ITLB_writeback_MPKI 0
Core_0_ITLB_writeback_miss_rate 0
Core_0_ITLB_prefetch_requested 0
Core_0_ITLB_prefetch_issued 0
Core_0_ITLB_prefetch_useful 0
Core_0_ITLB_prefetch_useless 0
Core_0_ITLB_prefetch_late 0
Core_0_ITLB_prefetch_accuracy 0
Core_0_ITLB_prefetch_coverage 0

Core_0_DTLB_total_access 11541937
Core_0_DTLB_total_hit 11494479
Core_0_DTLB_total_miss 47458
Core_0_DTLB_total_MPKI 0.94916
Core_0_DTLB_total_miss_rate 0.00411179
Core_0_DTLB_demand_access 11541937
Core_0_DTLB_demand_hit 11494479
Core_0_DTLB_demand_miss 47458
Core_0_DTLB_demand_MPKI 0.94916
Core_0_DTLB_demand_miss_rate 0.00411179
Core_0_DTLB_load_access 11541937
Core_0_DTLB_load_hit 11494479
Core_0_DTLB_load_miss 47458
Core_0_DTLB_load_MPKI 0.94916
Core_0_DTLB_load_miss_rate 0.00411179
Core_0_DTLB_rfo_access 0
Core_0_DTLB_rfo_hit 0
Core_0_DTLB_rfo_miss 0
Core_0_DTLB_rfo_MPKI 0
Core_0_DTLB_rfo_miss_rate 0
Core_0_DTLB_prefetch_access 0
Core_0_DTLB_prefetch_hit 0
Core_0_DTLB_prefetch_miss 0
Core_0_DTLB_prefetch_MPKI 0
Core_0_DTLB_prefetch_miss_rate 0
Core_0_DTLB_writeback_access 0
Core_0_DTLB_writeback_hit 0
Core_0_DTLB_writeback_miss 0
Core_0_DTLB_writeback_MPKI 0
Core_0_DTLB_writeback_miss_rate 0
Core_0_DTLB_prefetch_requested 0
Core_0_DTLB_prefetch_issued 0
Core_0_DTLB_prefetch_useful 0
Core_0_DTLB_prefetch_useless 0
Core_0_DTLB_prefetch_late 0
Core_0_DTLB_prefetch_accuracy 0
Core_0_DTLB_prefetch_coverage 0

Core_0_STLB_total_access 5555
Core_0_STLB_total_hit 67
Core_0_STLB_total_miss 5488
Core_0_STLB_total_MPKI 0.10976
Core_0_STLB_total_miss_rate 0.987939
Core_0_STLB_demand_access 5555
Core_0_STLB_demand_hit 67
Core_0_STLB_demand_miss 5488
Core_0_STLB_demand_MPKI 0.10976
Core_0_STLB_demand_miss_rate 0.987939
Core_0_STLB_load_access 5555
Core_0_STLB_load_hit 67
Core_0_STLB_load_miss 5488
Core_0_STLB_load_MPKI 0.10976
Core_0_STLB_load_miss_rate 0.987939
Core_0_STLB_rfo_access 0
Core_0_STLB_rfo_hit 0
Core_0_STLB_rfo_miss 0
Core_0_STLB_rfo_MPKI 0
Core_0_STLB_rfo_miss_rate 0
Core_0_STLB_prefetch_access 0
Core_0_STLB_prefetch_hit 0
Core_0_STLB_prefetch_miss 0
Core_0_STLB_prefetch_MPKI 0
Core_0_STLB_prefetch_miss_rate 0
Core_0_STLB_writeback_access 0
Core_0_STLB_writeback_hit 0
Core_0_STLB_writeback_miss 0
Core_0_STLB_writeback_MPKI 0
Core_0_STLB_writeback_miss_rate 0
Core_0_STLB_prefetch_requested 0
Core_0_STLB_prefetch_issued 0
Core_0_STLB_prefetch_useful 0
Core_0_STLB_prefetch_useless 0
Core_0_STLB_prefetch_late 0
Core_0_STLB_prefetch_accuracy 0
Core_0_STLB_prefetch_coverage 0

Core_0_L1I_total_access 7091937
Core_0_L1I_total_hit 7091924
Core_0_L1I_total_miss 13
Core_0_L1I_total_MPKI 0.00026
Core_0_L1I_total_miss_rate 1.83307e-06
Core_0_L1I_demand_access 7091937
Core_0_L1I_demand_hit 7091924
Core_0_L1I_demand_miss 13
Core_0_L1I_demand_MPKI 0.00026
Core_0_L1I_demand_miss_rate 1.83307e-06
Core_0_L1I_load_access 7091937
Core_0_L1I_load_hit 7091924
Core_0_L1I_load_miss 13
Core_0_L1I_load_MPKI 0.00026
Core_0_L1I_load_miss_rate 1.83307e-06
Core_0_L1I_rfo_access 0
Core_0_L1I_rfo_hit 0
Core_0_L1I_rfo_miss 0
Core_0_L1I_rfo_MPKI 0
Core_0_L1I_rfo_miss_rate 0
Core_0_L1I_prefetch_access 0
Core_0_L1I_prefetch_hit 0
Core_0_L1I_prefetch_miss 0
Core_0_L1I_prefetch_MPKI 0
Core_0_L1I_prefetch_miss_rate 0
Core_0_L1I_writeback_access 0
Core_0_L1I_writeback_hit 0
Core_0_L1I_writeback_miss 0
Core_0_L1I_writeback_MPKI 0
Core_0_L1I_writeback_miss_rate 0
Core_0_L1I_prefetch_requested 0
Core_0_L1I_prefetch_issued 0
Core_0_L1I_prefetch_useful 0
Core_0_L1I_prefetch_useless 0
Core_0_L1I_prefetch_late 0
Core_0_L1I_prefetch_accuracy 0
Core_0_L1I_prefetch_coverage 0

Core_0_L1D_total_access 12473653
Core_0_L1D_total_hit 11125499
Core_0_L1D_total_miss 1348154
Core_0_L1D_total_MPKI 26.9631
Core_0_L1D_total_miss_rate 0.10808
Core_0_L1D_demand_access 11166120
Core_0_L1D_demand_hit 11120962
Core_0_L1D_demand_miss 45158
Core_0_L1D_demand_MPKI 0.90316
Core_0_L1D_demand_miss_rate 0.0040442
Core_0_L1D_load_access 11166120
Core_0_L1D_load_hit 11120962
Core_0_L1D_load_miss 45158
Core_0_L1D_load_MPKI 0.90316
Core_0_L1D_load_miss_rate 0.0040442
Core_0_L1D_rfo_access 0
Core_0_L1D_rfo_hit 0
Core_0_L1D_rfo_miss 0
Core_0_L1D_rfo_MPKI 0
Core_0_L1D_rfo_miss_rate 0
Core_0_L1D_prefetch_access 199897
Core_0_L1D_prefetch_hit 2924
Core_0_L1D_prefetch_miss 196973
Core_0_L1D_prefetch_MPKI 3.93946
Core_0_L1D_prefetch_miss_rate 0.985372
Core_0_L1D_writeback_access 1107636
Core_0_L1D_writeback_hit 1613
Core_0_L1D_writeback_miss 1106023
Core_0_L1D_writeback_MPKI 22.1205
Core_0_L1D_writeback_miss_rate 0.998544
Core_0_L1D_prefetch_requested 199891
Core_0_L1D_prefetch_issued 199890
Core_0_L1D_prefetch_useful 194513
Core_0_L1D_prefetch_useless 515
Core_0_L1D_prefetch_late 7394
Core_0_L1D_prefetch_accuracy 0.9731
Core_0_L1D_prefetch_coverage 0.811583

Core_0_L2C_total_access 764409
Core_0_L2C_total_hit 235453
Core_0_L2C_total_miss 528956
Core_0_L2C_total_MPKI 10.5791
Core_0_L2C_total_miss_rate 0.69198
Core_0_L2C_demand_access 149338
Core_0_L2C_demand_hit 1033
Core_0_L2C_demand_miss 148305
Core_0_L2C_demand_MPKI 2.9661
Core_0_L2C_demand_miss_rate 0.993083
Core_0_L2C_load_access 5163
Core_0_L2C_load_hit 1033
Core_0_L2C_load_miss 4130
Core_0_L2C_load_MPKI 0.0826
Core_0_L2C_load_miss_rate 0.799923
Core_0_L2C_rfo_access 144175
Core_0_L2C_rfo_hit 0
Core_0_L2C_rfo_miss 144175
Core_0_L2C_rfo_MPKI 2.8835
Core_0_L2C_rfo_miss_rate 1
Core_0_L2C_prefetch_access 470781
Core_0_L2C_prefetch_hit 90130
Core_0_L2C_prefetch_miss 380651
Core_0_L2C_prefetch_MPKI 7.61302
Core_0_L2C_prefetch_miss_rate 0.808552
Core_0_L2C_writeback_access 144290
Core_0_L2C_writeback_hit 144290
Core_0_L2C_writeback_miss 0
Core_0_L2C_writeback_MPKI 0
Core_0_L2C_writeback_miss_rate 0
Core_0_L2C_prefetch_requested 275740
Core_0_L2C_prefetch_issued 275740
Core_0_L2C_prefetch_useful 63342
Core_0_L2C_prefetch_useless 36252
Core_0_L2C_prefetch_late 42
Core_0_L2C_prefetch_accuracy 0.229716
Core_0_L2C_prefetch_coverage 0.299281

Core_0_LLC_total_access 491200
Core_0_LLC_total_hit 94636
Core_0_LLC_total_miss 396564
Core_0_LLC_total_MPKI 7.93128
Core_0_LLC_total_miss_rate 0.807337
Core_0_LLC_demand_access 148263
Core_0_LLC_demand_hit 2
Core_0_LLC_demand_miss 148261
Core_0_LLC_demand_MPKI 2.96522
Core_0_LLC_demand_miss_rate 0.999987
Core_0_LLC_load_access 4088
Core_0_LLC_load_hit 2
Core_0_LLC_load_miss 4086
Core_0_LLC_load_MPKI 0.08172
Core_0_LLC_load_miss_rate 0.999511
Core_0_LLC_rfo_access 144175
Core_0_LLC_rfo_hit 0
Core_0_LLC_rfo_miss 144175
Core_0_LLC_rfo_MPKI 2.8835
Core_0_LLC_rfo_miss_rate 1
Core_0_LLC_prefetch_access 197545
Core_0_LLC_prefetch_hit 696
Core_0_LLC_prefetch_miss 196849
Core_0_LLC_prefetch_MPKI 3.93698
Core_0_LLC_prefetch_miss_rate 0.996477
Core_0_LLC_writeback_access 145392
Core_0_LLC_writeback_hit 93938
Core_0_LLC_writeback_miss 51454
Core_0_LLC_writeback_MPKI 1.02908
Core_0_LLC_writeback_miss_rate 0.353898
Core_0_LLC_prefetch_requested 0
Core_0_LLC_prefetch_issued 0
Core_0_LLC_prefetch_useful 0
Core_0_LLC_prefetch_useless 0
Core_0_LLC_prefetch_late 0
Core_0_LLC_prefetch_accuracy 0
Core_0_LLC_prefetch_coverage 0

[DRAM Statistics]
Channel_0_RQ_row_buffer_hit 6529
Channel_0_RQ_row_buffer_miss 338540
Channel_0_WQ_row_buffer_hit 19569
Channel_0_WQ_row_buffer_miss 120363
Channel_0_WQ_full 0
Channel_0_dbus_congested 1199223
DRAM_total_RQ_row_buffer_hit 6529
DRAM_total_RQ_row_buffer_miss 338540
DRAM_total_WQ_row_buffer_hit 19569
DRAM_total_WQ_row_buffer_miss 120363
DRAM_total_WQ_full 0
DRAM_total_dbus_congested 1199223
DRAM_avg_congested_cycle 6.7117

======STLB miss causes ========
Core_0_STLB_miss_cause_breakdown
Core_0_STLB_cause_Demand_Data_miss 5389
Core_0_STLB_cause_Demand_Data_miss_rate 0.970117
Core_0_STLB_cause_Demand_Instruction_miss 0
Core_0_STLB_cause_Demand_Instruction_miss_rate 0
Core_0_STLB_cause_L1D_Prefetch_miss 99
Core_0_STLB_cause_L1D_Prefetch_miss_rate 0.0178218
Core_0_STLB_cause_L1I_Prefetch_miss 0
Core_0_STLB_cause_L1I_Prefetch_miss_rate 0
Core_0_STLB_cause_Other_miss 0
Core_0_STLB_cause_Other_miss_rate 0
Core_0_STLB_Demand_miss 5389
Core_0_STLB_Demand_miss_rate 0.970117
Core_0_STLB_L1D_Prefetch_miss 99
Core_0_STLB_L1D_Prefetch_miss_rate 0.0178218
Core_0_STLB_Other_miss 0
Core_0_STLB_Other_miss_rate 0
