[VMEM] WARNING: physical memory size is smaller than virtual memory size.

*** ChampSim Multicore Out-of-Order Simulator ***
Warmup Instructions: 20000000
Simulation Instructions: 50000000
Number of CPUs: 1
Page size: 4096
STLB ideal mode: off
Core 0: /data0/tzh/champsim_traces/SPEC06/462.libquantum-1343B.champsimtrace.xz
 L1D Berti prefetcher
Off-chip DRAM Size: 16 GiB Channels: 1 Width: 64-bit Data Rate: 3205 MT/s
Warmup halting CPU 0 at instruction 20000001 cycle 6078601 for remainder of phase
Warmup finished CPU 0 instructions: 20000001 cycles: 6078601 cumulative IPC: 3.29 (Simulation time: 00 hr 00 min 52 sec)
Warmup complete CPU 0 instructions: 20000001 cycles: 6078601 cumulative IPC: 3.29 (Simulation time: 00 hr 00 min 52 sec)
Simulation finished CPU 0 instructions: 50000004 cycles: 52268186 cumulative IPC: 0.9566 (Simulation time: 00 hr 07 min 33 sec)
Simulation complete CPU 0 instructions: 50000004 cycles: 52268186 cumulative IPC: 0.9566 (Simulation time: 00 hr 07 min 33 sec)

ChampSim completed all CPUs

=== Simulation ===
CPU 0 runs /data0/tzh/champsim_traces/SPEC06/462.libquantum-1343B.champsimtrace.xz

Region of Interest Statistics

CPU 0 cumulative IPC: 0.9566 instructions: 50000004 cycles: 52268186
CPU 0 Branch Prediction Accuracy: 99.99% MPKI: 0.02246 Average ROB Occupancy at Mispredict: 288.1
Branch type MPKI
BRANCH_DIRECT_JUMP: 2e-05
BRANCH_INDIRECT: 4e-05
BRANCH_CONDITIONAL: 0.02204
BRANCH_DIRECT_CALL: 0.00018
BRANCH_INDIRECT_CALL: 0
BRANCH_RETURN: 0.00018

cpu0->cpu0_STLB TOTAL        ACCESS:      21885 HIT:          0 MISS:      21885 MSHR_MERGE:          0
cpu0->cpu0_STLB LOAD         ACCESS:      21885 HIT:          0 MISS:      21885 MSHR_MERGE:          0
cpu0->cpu0_STLB RFO          ACCESS:          0 HIT:          0 MISS:          0 MSHR_MERGE:          0
cpu0->cpu0_STLB PREFETCH     ACCESS:          0 HIT:          0 MISS:          0 MSHR_MERGE:          0
cpu0->cpu0_STLB WRITE        ACCESS:          0 HIT:          0 MISS:          0 MSHR_MERGE:          0
cpu0->cpu0_STLB TRANSLATION  ACCESS:          0 HIT:          0 MISS:          0 MSHR_MERGE:          0
cpu0->cpu0_STLB PREFETCH REQUESTED:          0 ISSUED:          0 USEFUL:          0 USELESS:          0 LATE:          0
cpu0->cpu0_STLB AVERAGE MISS LATENCY: 63.48 cycles
cpu0->cpu0_L2C TOTAL        ACCESS:    5122565 HIT:    1087541 MISS:    4035024 MSHR_MERGE:    2609631
cpu0->cpu0_L2C LOAD         ACCESS:     226357 HIT:      31426 MISS:     194931 MSHR_MERGE:      72077
cpu0->cpu0_L2C RFO          ACCESS:         10 HIT:          0 MISS:         10 MSHR_MERGE:          0
cpu0->cpu0_L2C PREFETCH     ACCESS:    4079226 HIT:     241885 MISS:    3837341 MSHR_MERGE:    2537554
cpu0->cpu0_L2C WRITE        ACCESS:     814230 HIT:     814230 MISS:          0 MSHR_MERGE:          0
cpu0->cpu0_L2C TRANSLATION  ACCESS:       2742 HIT:          0 MISS:       2742 MSHR_MERGE:          0
cpu0->cpu0_L2C PREFETCH REQUESTED:    2905413 ISSUED:    2905404 USEFUL:     554260 USELESS:     369426 LATE:      72077
cpu0->cpu0_L2C AVERAGE MISS LATENCY: 335.4 cycles
cpu0->cpu0_L1I TOTAL        ACCESS:    5838706 HIT:    5838693 MISS:         13 MSHR_MERGE:          2
cpu0->cpu0_L1I LOAD         ACCESS:    5838706 HIT:    5838693 MISS:         13 MSHR_MERGE:          2
cpu0->cpu0_L1I RFO          ACCESS:          0 HIT:          0 MISS:          0 MSHR_MERGE:          0
cpu0->cpu0_L1I PREFETCH     ACCESS:          0 HIT:          0 MISS:          0 MSHR_MERGE:          0
cpu0->cpu0_L1I WRITE        ACCESS:          0 HIT:          0 MISS:          0 MSHR_MERGE:          0
cpu0->cpu0_L1I TRANSLATION  ACCESS:          0 HIT:          0 MISS:          0 MSHR_MERGE:          0
cpu0->cpu0_L1I PREFETCH REQUESTED:          0 ISSUED:          0 USEFUL:          0 USELESS:          0 LATE:          0
cpu0->cpu0_L1I AVERAGE MISS LATENCY: 291.8 cycles
cpu0->cpu0_L1D TOTAL        ACCESS:   12902471 HIT:    9433527 MISS:    3468944 MSHR_MERGE:    2066023
cpu0->cpu0_L1D LOAD         ACCESS:    9003550 HIT:    6775149 MISS:    2228401 MSHR_MERGE:    2002056
cpu0->cpu0_L1D RFO          ACCESS:          0 HIT:          0 MISS:          0 MSHR_MERGE:          0
cpu0->cpu0_L1D PREFETCH     ACCESS:    1269555 HIT:      31785 MISS:    1237770 MSHR_MERGE:      63946
cpu0->cpu0_L1D WRITE        ACCESS:    2585595 HIT:    2585564 MISS:         31 MSHR_MERGE:         21
cpu0->cpu0_L1D TRANSLATION  ACCESS:      43771 HIT:      41029 MISS:       2742 MSHR_MERGE:          0
cpu0->cpu0_L1D PREFETCH REQUESTED:    1298684 ISSUED:    1269548 USEFUL:    1173799 USELESS:         16 LATE:     578372
cpu0->cpu0_L1D AVERAGE MISS LATENCY: 241.4 cycles
cpu0->cpu0_ITLB TOTAL        ACCESS:    5201681 HIT:    5201681 MISS:          0 MSHR_MERGE:          0
cpu0->cpu0_ITLB LOAD         ACCESS:    5201681 HIT:    5201681 MISS:          0 MSHR_MERGE:          0
cpu0->cpu0_ITLB RFO          ACCESS:          0 HIT:          0 MISS:          0 MSHR_MERGE:          0
cpu0->cpu0_ITLB PREFETCH     ACCESS:          0 HIT:          0 MISS:          0 MSHR_MERGE:          0
cpu0->cpu0_ITLB WRITE        ACCESS:          0 HIT:          0 MISS:          0 MSHR_MERGE:          0
cpu0->cpu0_ITLB TRANSLATION  ACCESS:          0 HIT:          0 MISS:          0 MSHR_MERGE:          0
cpu0->cpu0_ITLB PREFETCH REQUESTED:          0 ISSUED:          0 USEFUL:          0 USELESS:          0 LATE:          0
cpu0->cpu0_ITLB AVERAGE MISS LATENCY: - cycles
cpu0->cpu0_DTLB TOTAL        ACCESS:   11231352 HIT:   11082138 MISS:     149214 MSHR_MERGE:     127329
cpu0->cpu0_DTLB LOAD         ACCESS:   11231352 HIT:   11082138 MISS:     149214 MSHR_MERGE:     127329
cpu0->cpu0_DTLB RFO          ACCESS:          0 HIT:          0 MISS:          0 MSHR_MERGE:          0
cpu0->cpu0_DTLB PREFETCH     ACCESS:          0 HIT:          0 MISS:          0 MSHR_MERGE:          0
cpu0->cpu0_DTLB WRITE        ACCESS:          0 HIT:          0 MISS:          0 MSHR_MERGE:          0
cpu0->cpu0_DTLB TRANSLATION  ACCESS:          0 HIT:          0 MISS:          0 MSHR_MERGE:          0
cpu0->cpu0_DTLB PREFETCH REQUESTED:          0 ISSUED:          0 USEFUL:          0 USELESS:          0 LATE:          0
cpu0->cpu0_DTLB AVERAGE MISS LATENCY: 69.48 cycles
cpu0->LLC TOTAL        ACCESS:    2238816 HIT:     139492 MISS:    2099324 MSHR_MERGE:      17093
cpu0->LLC LOAD         ACCESS:     122854 HIT:        293 MISS:     122561 MSHR_MERGE:        103
cpu0->LLC RFO          ACCESS:         10 HIT:          0 MISS:         10 MSHR_MERGE:          0
cpu0->LLC PREFETCH     ACCESS:    1299785 HIT:       5226 MISS:    1294559 MSHR_MERGE:      16990
cpu0->LLC WRITE        ACCESS:     813425 HIT:     133972 MISS:     679453 MSHR_MERGE:          0
cpu0->LLC TRANSLATION  ACCESS:       2742 HIT:          1 MISS:       2741 MSHR_MERGE:          0
cpu0->LLC PREFETCH REQUESTED:          0 ISSUED:          0 USEFUL:          0 USELESS:          0 LATE:          0
cpu0->LLC AVERAGE MISS LATENCY: 62.76 cycles

DRAM Statistics

Channel 0 RQ ROW_BUFFER_HIT:     228781
  ROW_BUFFER_MISS:    1173993
  AVG DBUS CONGESTED CYCLE: 6.029
Channel 0 WQ ROW_BUFFER_HIT:     108747
  ROW_BUFFER_MISS:     685985
  FULL:         16
Channel 0 REFRESHES ISSUED:       4356

[ROI Statistics]
[System Configuration]
num_cpus 1
cpu_freq 4000
fetch_width 6
decode_width 6
dispatch_width 6
execute_width 6
lq_width 2
sq_width 2
retire_width 6
scheduler_size 128
branch_mispredict_penalty 15
rob_size 352
lq_size 128
sq_size 72
ifetch_buffer_size 64
decode_buffer_size 32
dispatch_buffer_size 32
register_file_size 288
decode_latency 1
dispatch_latency 1
schedule_latency 1
execute_latency 1
page_size 4096
block_size 64
core_0_itlb_set 16
core_0_itlb_way 4
core_0_itlb_rq_size 16
core_0_itlb_wq_size 16
core_0_itlb_pq_size 0
core_0_itlb_mshr_size 8
core_0_itlb_hit_latency 1
core_0_itlb_fill_latency 1
core_0_itlb_max_tag_check 2
core_0_itlb_max_fill 2
core_0_dtlb_set 16
core_0_dtlb_way 4
core_0_dtlb_rq_size 16
core_0_dtlb_wq_size 16
core_0_dtlb_pq_size 0
core_0_dtlb_mshr_size 8
core_0_dtlb_hit_latency 1
core_0_dtlb_fill_latency 1
core_0_dtlb_max_tag_check 2
core_0_dtlb_max_fill 2
core_0_stlb_set 128
core_0_stlb_way 12
core_0_stlb_rq_size 32
core_0_stlb_wq_size 32
core_0_stlb_pq_size 0
core_0_stlb_mshr_size 16
core_0_stlb_hit_latency 4
core_0_stlb_fill_latency 4
core_0_stlb_max_tag_check 1
core_0_stlb_max_fill 1
core_0_l1i_set 64
core_0_l1i_way 8
core_0_l1i_rq_size 64
core_0_l1i_wq_size 64
core_0_l1i_pq_size 32
core_0_l1i_mshr_size 8
core_0_l1i_hit_latency 2
core_0_l1i_fill_latency 2
core_0_l1i_max_tag_check 2
core_0_l1i_max_fill 2
core_0_l1d_set 64
core_0_l1d_way 12
core_0_l1d_rq_size 64
core_0_l1d_wq_size 64
core_0_l1d_pq_size 8
core_0_l1d_mshr_size 16
core_0_l1d_hit_latency 2
core_0_l1d_fill_latency 3
core_0_l1d_max_tag_check 2
core_0_l1d_max_fill 2
core_0_l2c_set 1024
core_0_l2c_way 8
core_0_l2c_rq_size 32
core_0_l2c_wq_size 32
core_0_l2c_pq_size 16
core_0_l2c_mshr_size 32
core_0_l2c_hit_latency 5
core_0_l2c_fill_latency 5
core_0_l2c_max_tag_check 1
core_0_l2c_max_fill 1
llc_set 2048
llc_way 16
llc_rq_size 32
llc_wq_size 32
llc_pq_size 32
llc_mshr_size 64
llc_hit_latency 10
llc_fill_latency 10
llc_max_tag_check 1
llc_max_fill 1
dram_channels 1
dram_ranks 1
dram_bankgroups 8
dram_banks 4
dram_rows 65536
dram_columns 1024
dram_channel_width 8
dram_rq_size 64
dram_wq_size 64
dram_size 17179869184
core_0_itlb_prefetcher no
core_0_dtlb_prefetcher no
core_0_stlb_prefetcher no
core_0_l1i_prefetcher next_line
core_0_l1d_prefetcher berti
core_0_l2c_prefetcher ip_stride
llc_prefetcher no
llc_replacement drrip

Core_0_instructions 50000004
Core_0_cycles 52268186
Core_0_IPC 0.956605
Core_0_branch_prediction_accuracy 99.9877
Core_0_branch_MPKI 0.02246
Core_0_average_ROB_occupancy_at_mispredict 288.124

Core_0_ITLB_total_access 5201681
Core_0_ITLB_total_hit 5201681
Core_0_ITLB_total_miss 0
Core_0_ITLB_total_MPKI 0
Core_0_ITLB_total_miss_rate 0
Core_0_ITLB_demand_access 5201681
Core_0_ITLB_demand_hit 5201681
Core_0_ITLB_demand_miss 0
Core_0_ITLB_demand_MPKI 0
Core_0_ITLB_demand_miss_rate 0
Core_0_ITLB_load_access 5201681
Core_0_ITLB_load_hit 5201681
Core_0_ITLB_load_miss 0
Core_0_ITLB_load_MPKI 0
Core_0_ITLB_load_miss_rate 0
Core_0_ITLB_rfo_access 0
Core_0_ITLB_rfo_hit 0
Core_0_ITLB_rfo_miss 0
Core_0_ITLB_rfo_MPKI 0
Core_0_ITLB_rfo_miss_rate 0
Core_0_ITLB_prefetch_access 0
Core_0_ITLB_prefetch_hit 0
Core_0_ITLB_prefetch_miss 0
Core_0_ITLB_prefetch_MPKI 0
Core_0_ITLB_prefetch_miss_rate 0
Core_0_ITLB_writeback_access 0
Core_0_ITLB_writeback_hit 0
Core_0_ITLB_writeback_miss 0
Core_0_ITLB_writeback_MPKI 0
Core_0_ITLB_writeback_miss_rate 0
Core_0_ITLB_prefetch_requested 0
Core_0_ITLB_prefetch_issued 0
Core_0_ITLB_prefetch_useful 0
Core_0_ITLB_prefetch_useless 0
Core_0_ITLB_prefetch_late 0
Core_0_ITLB_prefetch_accuracy 0
Core_0_ITLB_prefetch_coverage 0

Core_0_DTLB_total_access 11231352
Core_0_DTLB_total_hit 11082138
Core_0_DTLB_total_miss 149214
Core_0_DTLB_total_MPKI 2.98428
Core_0_DTLB_total_miss_rate 0.0132855
Core_0_DTLB_demand_access 11231352
Core_0_DTLB_demand_hit 11082138
Core_0_DTLB_demand_miss 149214
Core_0_DTLB_demand_MPKI 2.98428
Core_0_DTLB_demand_miss_rate 0.0132855
Core_0_DTLB_load_access 11231352
Core_0_DTLB_load_hit 11082138
Core_0_DTLB_load_miss 149214
Core_0_DTLB_load_MPKI 2.98428
Core_0_DTLB_load_miss_rate 0.0132855
Core_0_DTLB_rfo_access 0
Core_0_DTLB_rfo_hit 0
Core_0_DTLB_rfo_miss 0
Core_0_DTLB_rfo_MPKI 0
Core_0_DTLB_rfo_miss_rate 0
Core_0_DTLB_prefetch_access 0
Core_0_DTLB_prefetch_hit 0
Core_0_DTLB_prefetch_miss 0
Core_0_DTLB_prefetch_MPKI 0
Core_0_DTLB_prefetch_miss_rate 0
Core_0_DTLB_writeback_access 0
Core_0_DTLB_writeback_hit 0
Core_0_DTLB_writeback_miss 0
Core_0_DTLB_writeback_MPKI 0
Core_0_DTLB_writeback_miss_rate 0
Core_0_DTLB_prefetch_requested 0
Core_0_DTLB_prefetch_issued 0
Core_0_DTLB_prefetch_useful 0
Core_0_DTLB_prefetch_useless 0
Core_0_DTLB_prefetch_late 0
Core_0_DTLB_prefetch_accuracy 0
Core_0_DTLB_prefetch_coverage 0

Core_0_STLB_total_access 21885
Core_0_STLB_total_hit 0
Core_0_STLB_total_miss 21885
Core_0_STLB_total_MPKI 0.4377
Core_0_STLB_total_miss_rate 1
Core_0_STLB_demand_access 21885
Core_0_STLB_demand_hit 0
Core_0_STLB_demand_miss 21885
Core_0_STLB_demand_MPKI 0.4377
Core_0_STLB_demand_miss_rate 1
Core_0_STLB_load_access 21885
Core_0_STLB_load_hit 0
Core_0_STLB_load_miss 21885
Core_0_STLB_load_MPKI 0.4377
Core_0_STLB_load_miss_rate 1
Core_0_STLB_rfo_access 0
Core_0_STLB_rfo_hit 0
Core_0_STLB_rfo_miss 0
Core_0_STLB_rfo_MPKI 0
Core_0_STLB_rfo_miss_rate 0
Core_0_STLB_prefetch_access 0
Core_0_STLB_prefetch_hit 0
Core_0_STLB_prefetch_miss 0
Core_0_STLB_prefetch_MPKI 0
Core_0_STLB_prefetch_miss_rate 0
Core_0_STLB_writeback_access 0
Core_0_STLB_writeback_hit 0
Core_0_STLB_writeback_miss 0
Core_0_STLB_writeback_MPKI 0
Core_0_STLB_writeback_miss_rate 0
Core_0_STLB_prefetch_requested 0
Core_0_STLB_prefetch_issued 0
Core_0_STLB_prefetch_useful 0
Core_0_STLB_prefetch_useless 0
Core_0_STLB_prefetch_late 0
Core_0_STLB_prefetch_accuracy 0
Core_0_STLB_prefetch_coverage 0

Core_0_L1I_total_access 5838706
Core_0_L1I_total_hit 5838693
Core_0_L1I_total_miss 13
Core_0_L1I_total_MPKI 0.00026
Core_0_L1I_total_miss_rate 2.22652e-06
Core_0_L1I_demand_access 5838706
Core_0_L1I_demand_hit 5838693
Core_0_L1I_demand_miss 13
Core_0_L1I_demand_MPKI 0.00026
Core_0_L1I_demand_miss_rate 2.22652e-06
Core_0_L1I_load_access 5838706
Core_0_L1I_load_hit 5838693
Core_0_L1I_load_miss 13
Core_0_L1I_load_MPKI 0.00026
Core_0_L1I_load_miss_rate 2.22652e-06
Core_0_L1I_rfo_access 0
Core_0_L1I_rfo_hit 0
Core_0_L1I_rfo_miss 0
Core_0_L1I_rfo_MPKI 0
Core_0_L1I_rfo_miss_rate 0
Core_0_L1I_prefetch_access 0
Core_0_L1I_prefetch_hit 0
Core_0_L1I_prefetch_miss 0
Core_0_L1I_prefetch_MPKI 0
Core_0_L1I_prefetch_miss_rate 0
Core_0_L1I_writeback_access 0
Core_0_L1I_writeback_hit 0
Core_0_L1I_writeback_miss 0
Core_0_L1I_writeback_MPKI 0
Core_0_L1I_writeback_miss_rate 0
Core_0_L1I_prefetch_requested 0
Core_0_L1I_prefetch_issued 0
Core_0_L1I_prefetch_useful 0
Core_0_L1I_prefetch_useless 0
Core_0_L1I_prefetch_late 0
Core_0_L1I_prefetch_accuracy 0
Core_0_L1I_prefetch_coverage 0

Core_0_L1D_total_access 12858700
Core_0_L1D_total_hit 9392498
Core_0_L1D_total_miss 3466202
Core_0_L1D_total_MPKI 69.324
Core_0_L1D_total_miss_rate 0.269561
Core_0_L1D_demand_access 9003550
Core_0_L1D_demand_hit 6775149
Core_0_L1D_demand_miss 2228401
Core_0_L1D_demand_MPKI 44.568
Core_0_L1D_demand_miss_rate 0.247502
Core_0_L1D_load_access 9003550
Core_0_L1D_load_hit 6775149
Core_0_L1D_load_miss 2228401
Core_0_L1D_load_MPKI 44.568
Core_0_L1D_load_miss_rate 0.247502
Core_0_L1D_rfo_access 0
Core_0_L1D_rfo_hit 0
Core_0_L1D_rfo_miss 0
Core_0_L1D_rfo_MPKI 0
Core_0_L1D_rfo_miss_rate 0
Core_0_L1D_prefetch_access 1269555
Core_0_L1D_prefetch_hit 31785
Core_0_L1D_prefetch_miss 1237770
Core_0_L1D_prefetch_MPKI 24.7554
Core_0_L1D_prefetch_miss_rate 0.974964
Core_0_L1D_writeback_access 2585595
Core_0_L1D_writeback_hit 2585564
Core_0_L1D_writeback_miss 31
Core_0_L1D_writeback_MPKI 0.00062
Core_0_L1D_writeback_miss_rate 1.19895e-05
Core_0_L1D_prefetch_requested 1298684
Core_0_L1D_prefetch_issued 1269548
Core_0_L1D_prefetch_useful 1173799
Core_0_L1D_prefetch_useless 16
Core_0_L1D_prefetch_late 578372
Core_0_L1D_prefetch_accuracy 0.92458
Core_0_L1D_prefetch_coverage 0.345012

Core_0_L2C_total_access 5119823
Core_0_L2C_total_hit 1087541
Core_0_L2C_total_miss 4032282
Core_0_L2C_total_MPKI 80.6456
Core_0_L2C_total_miss_rate 0.787582
Core_0_L2C_demand_access 226367
Core_0_L2C_demand_hit 31426
Core_0_L2C_demand_miss 194941
Core_0_L2C_demand_MPKI 3.89882
Core_0_L2C_demand_miss_rate 0.861172
Core_0_L2C_load_access 226357
Core_0_L2C_load_hit 31426
Core_0_L2C_load_miss 194931
Core_0_L2C_load_MPKI 3.89862
Core_0_L2C_load_miss_rate 0.861166
Core_0_L2C_rfo_access 10
Core_0_L2C_rfo_hit 0
Core_0_L2C_rfo_miss 10
Core_0_L2C_rfo_MPKI 0.0002
Core_0_L2C_rfo_miss_rate 1
Core_0_L2C_prefetch_access 4079226
Core_0_L2C_prefetch_hit 241885
Core_0_L2C_prefetch_miss 3837341
Core_0_L2C_prefetch_MPKI 76.7468
Core_0_L2C_prefetch_miss_rate 0.940703
Core_0_L2C_writeback_access 814230
Core_0_L2C_writeback_hit 814230
Core_0_L2C_writeback_miss 0
Core_0_L2C_writeback_MPKI 0
Core_0_L2C_writeback_miss_rate 0
Core_0_L2C_prefetch_requested 2905413
Core_0_L2C_prefetch_issued 2905404
Core_0_L2C_prefetch_useful 554260
Core_0_L2C_prefetch_useless 369426
Core_0_L2C_prefetch_late 72077
Core_0_L2C_prefetch_accuracy 0.190769
Core_0_L2C_prefetch_coverage 0.739801

Core_0_LLC_total_access 2236074
Core_0_LLC_total_hit 139491
Core_0_LLC_total_miss 2096583
Core_0_LLC_total_MPKI 41.9317
Core_0_LLC_total_miss_rate 0.937618
Core_0_LLC_demand_access 122864
Core_0_LLC_demand_hit 293
Core_0_LLC_demand_miss 122571
Core_0_LLC_demand_MPKI 2.45142
Core_0_LLC_demand_miss_rate 0.997615
Core_0_LLC_load_access 122854
Core_0_LLC_load_hit 293
Core_0_LLC_load_miss 122561
Core_0_LLC_load_MPKI 2.45122
Core_0_LLC_load_miss_rate 0.997615
Core_0_LLC_rfo_access 10
Core_0_LLC_rfo_hit 0
Core_0_LLC_rfo_miss 10
Core_0_LLC_rfo_MPKI 0.0002
Core_0_LLC_rfo_miss_rate 1
Core_0_LLC_prefetch_access 1299785
Core_0_LLC_prefetch_hit 5226
Core_0_LLC_prefetch_miss 1294559
Core_0_LLC_prefetch_MPKI 25.8912
Core_0_LLC_prefetch_miss_rate 0.995979
Core_0_LLC_writeback_access 813425
Core_0_LLC_writeback_hit 133972
Core_0_LLC_writeback_miss 679453
Core_0_LLC_writeback_MPKI 13.5891
Core_0_LLC_writeback_miss_rate 0.835299
Core_0_LLC_prefetch_requested 0
Core_0_LLC_prefetch_issued 0
Core_0_LLC_prefetch_useful 0
Core_0_LLC_prefetch_useless 0
Core_0_LLC_prefetch_late 0
Core_0_LLC_prefetch_accuracy 0
Core_0_LLC_prefetch_coverage 0

[DRAM Statistics]
Channel_0_RQ_row_buffer_hit 228781
Channel_0_RQ_row_buffer_miss 1173993
Channel_0_WQ_row_buffer_hit 108747
Channel_0_WQ_row_buffer_miss 685985
Channel_0_WQ_full 16
Channel_0_dbus_congested 7538154
DRAM_total_RQ_row_buffer_hit 228781
DRAM_total_RQ_row_buffer_miss 1173993
DRAM_total_WQ_row_buffer_hit 108747
DRAM_total_WQ_row_buffer_miss 685985
DRAM_total_WQ_full 16
DRAM_total_dbus_congested 7538154
DRAM_avg_congested_cycle 6.02861

======STLB miss causes ========
Core_0_STLB_miss_cause_breakdown
Core_0_STLB_cause_Demand_Data_miss 21883
Core_0_STLB_cause_Demand_Data_miss_rate 0.999909
Core_0_STLB_cause_Demand_Instruction_miss 0
Core_0_STLB_cause_Demand_Instruction_miss_rate 0
Core_0_STLB_cause_L1D_Prefetch_miss 2
Core_0_STLB_cause_L1D_Prefetch_miss_rate 9.13868e-05
Core_0_STLB_cause_L1I_Prefetch_miss 0
Core_0_STLB_cause_L1I_Prefetch_miss_rate 0
Core_0_STLB_cause_Other_miss 0
Core_0_STLB_cause_Other_miss_rate 0
Core_0_STLB_Demand_miss 21883
Core_0_STLB_Demand_miss_rate 0.999909
Core_0_STLB_L1D_Prefetch_miss 2
Core_0_STLB_L1D_Prefetch_miss_rate 9.13868e-05
Core_0_STLB_Other_miss 0
Core_0_STLB_Other_miss_rate 0
