[VMEM] WARNING: physical memory size is smaller than virtual memory size.

*** ChampSim Multicore Out-of-Order Simulator ***
Warmup Instructions: 20000000
Simulation Instructions: 50000000
Number of CPUs: 1
Page size: 4096
STLB ideal mode: off
Core 0: /data0/tzh/champsim_traces/SPEC06/470.lbm-1274B.champsimtrace.xz
 L1D Berti prefetcher
Off-chip DRAM Size: 16 GiB Channels: 1 Width: 64-bit Data Rate: 3205 MT/s
Warmup halting CPU 0 at instruction 20000002 cycle 4347000 for remainder of phase
Warmup finished CPU 0 instructions: 20000002 cycles: 4347000 cumulative IPC: 4.601 (Simulation time: 00 hr 00 min 47 sec)
Warmup complete CPU 0 instructions: 20000002 cycles: 4347000 cumulative IPC: 4.601 (Simulation time: 00 hr 00 min 47 sec)
Simulation finished CPU 0 instructions: 50000000 cycles: 60303920 cumulative IPC: 0.8291 (Simulation time: 00 hr 10 min 03 sec)
Simulation complete CPU 0 instructions: 50000000 cycles: 60303920 cumulative IPC: 0.8291 (Simulation time: 00 hr 10 min 03 sec)

ChampSim completed all CPUs

=== Simulation ===
CPU 0 runs /data0/tzh/champsim_traces/SPEC06/470.lbm-1274B.champsimtrace.xz

Region of Interest Statistics

CPU 0 cumulative IPC: 0.8291 instructions: 50000000 cycles: 60303920
CPU 0 Branch Prediction Accuracy: 99.79% MPKI: 0.02864 Average ROB Occupancy at Mispredict: 341.6
Branch type MPKI
BRANCH_DIRECT_JUMP: 0
BRANCH_INDIRECT: 0
BRANCH_CONDITIONAL: 0.02864
BRANCH_DIRECT_CALL: 0
BRANCH_INDIRECT_CALL: 0
BRANCH_RETURN: 0

cpu0->cpu0_STLB TOTAL        ACCESS:      22260 HIT:          6 MISS:      22254 MSHR_MERGE:          0
cpu0->cpu0_STLB LOAD         ACCESS:      22260 HIT:          6 MISS:      22254 MSHR_MERGE:          0
cpu0->cpu0_STLB RFO          ACCESS:          0 HIT:          0 MISS:          0 MSHR_MERGE:          0
cpu0->cpu0_STLB PREFETCH     ACCESS:          0 HIT:          0 MISS:          0 MSHR_MERGE:          0
cpu0->cpu0_STLB WRITE        ACCESS:          0 HIT:          0 MISS:          0 MSHR_MERGE:          0
cpu0->cpu0_STLB TRANSLATION  ACCESS:          0 HIT:          0 MISS:          0 MSHR_MERGE:          0
cpu0->cpu0_STLB PREFETCH REQUESTED:          0 ISSUED:          0 USEFUL:          0 USELESS:          0 LATE:          0
cpu0->cpu0_STLB AVERAGE MISS LATENCY: 252.1 cycles
cpu0->cpu0_L2C TOTAL        ACCESS:    4413393 HIT:    2960865 MISS:    1452528 MSHR_MERGE:      19489
cpu0->cpu0_L2C LOAD         ACCESS:      50736 HIT:       3243 MISS:      47493 MSHR_MERGE:        363
cpu0->cpu0_L2C RFO          ACCESS:    2001232 HIT:     933772 MISS:    1067460 MSHR_MERGE:          0
cpu0->cpu0_L2C PREFETCH     ACCESS:     357078 HIT:      22327 MISS:     334751 MSHR_MERGE:      19126
cpu0->cpu0_L2C WRITE        ACCESS:    2001515 HIT:    2001512 MISS:          3 MSHR_MERGE:          0
cpu0->cpu0_L2C TRANSLATION  ACCESS:       2832 HIT:         11 MISS:       2821 MSHR_MERGE:          0
cpu0->cpu0_L2C PREFETCH REQUESTED:      52042 ISSUED:      52042 USEFUL:      14579 USELESS:       7745 LATE:        363
cpu0->cpu0_L2C AVERAGE MISS LATENCY: 575 cycles
cpu0->cpu0_L1I TOTAL        ACCESS:    8417250 HIT:    8417250 MISS:          0 MSHR_MERGE:          0
cpu0->cpu0_L1I LOAD         ACCESS:    8417250 HIT:    8417250 MISS:          0 MSHR_MERGE:          0
cpu0->cpu0_L1I RFO          ACCESS:          0 HIT:          0 MISS:          0 MSHR_MERGE:          0
cpu0->cpu0_L1I PREFETCH     ACCESS:          0 HIT:          0 MISS:          0 MSHR_MERGE:          0
cpu0->cpu0_L1I WRITE        ACCESS:          0 HIT:          0 MISS:          0 MSHR_MERGE:          0
cpu0->cpu0_L1I TRANSLATION  ACCESS:          0 HIT:          0 MISS:          0 MSHR_MERGE:          0
cpu0->cpu0_L1I PREFETCH REQUESTED:          0 ISSUED:          0 USEFUL:          0 USELESS:          0 LATE:          0
cpu0->cpu0_L1I AVERAGE MISS LATENCY: - cycles
cpu0->cpu0_L1D TOTAL        ACCESS:    7972661 HIT:    5445261 MISS:    2527400 MSHR_MERGE:     167274
cpu0->cpu0_L1D LOAD         ACCESS:    2578736 HIT:    2434119 MISS:     144617 MSHR_MERGE:      93881
cpu0->cpu0_L1D RFO          ACCESS:          0 HIT:          0 MISS:          0 MSHR_MERGE:          0
cpu0->cpu0_L1D PREFETCH     ACCESS:     325932 HIT:      14112 MISS:     311820 MSHR_MERGE:       6784
cpu0->cpu0_L1D WRITE        ACCESS:    5023470 HIT:    2955346 MISS:    2068124 MSHR_MERGE:      66602
cpu0->cpu0_L1D TRANSLATION  ACCESS:      44523 HIT:      41684 MISS:       2839 MSHR_MERGE:          7
cpu0->cpu0_L1D PREFETCH REQUESTED:     330848 ISSUED:     325932 USEFUL:     304996 USELESS:         37 LATE:      49812
cpu0->cpu0_L1D AVERAGE MISS LATENCY: 321.8 cycles
cpu0->cpu0_ITLB TOTAL        ACCESS:    6459064 HIT:    6459064 MISS:          0 MSHR_MERGE:          0
cpu0->cpu0_ITLB LOAD         ACCESS:    6459064 HIT:    6459064 MISS:          0 MSHR_MERGE:          0
cpu0->cpu0_ITLB RFO          ACCESS:          0 HIT:          0 MISS:          0 MSHR_MERGE:          0
cpu0->cpu0_ITLB PREFETCH     ACCESS:          0 HIT:          0 MISS:          0 MSHR_MERGE:          0
cpu0->cpu0_ITLB WRITE        ACCESS:          0 HIT:          0 MISS:          0 MSHR_MERGE:          0
cpu0->cpu0_ITLB TRANSLATION  ACCESS:          0 HIT:          0 MISS:          0 MSHR_MERGE:          0
cpu0->cpu0_ITLB PREFETCH REQUESTED:          0 ISSUED:          0 USEFUL:          0 USELESS:          0 LATE:          0
cpu0->cpu0_ITLB AVERAGE MISS LATENCY: - cycles
cpu0->cpu0_DTLB TOTAL        ACCESS:    7508925 HIT:    7468403 MISS:      40522 MSHR_MERGE:      18262
cpu0->cpu0_DTLB LOAD         ACCESS:    7508925 HIT:    7468403 MISS:      40522 MSHR_MERGE:      18262
cpu0->cpu0_DTLB RFO          ACCESS:          0 HIT:          0 MISS:          0 MSHR_MERGE:          0
cpu0->cpu0_DTLB PREFETCH     ACCESS:          0 HIT:          0 MISS:          0 MSHR_MERGE:          0
cpu0->cpu0_DTLB WRITE        ACCESS:          0 HIT:          0 MISS:          0 MSHR_MERGE:          0
cpu0->cpu0_DTLB TRANSLATION  ACCESS:          0 HIT:          0 MISS:          0 MSHR_MERGE:          0
cpu0->cpu0_DTLB PREFETCH REQUESTED:          0 ISSUED:          0 USEFUL:          0 USELESS:          0 LATE:          0
cpu0->cpu0_DTLB AVERAGE MISS LATENCY: 258 cycles
cpu0->LLC TOTAL        ACCESS:    2500276 HIT:     257392 MISS:    2242884 MSHR_MERGE:       2398
cpu0->LLC LOAD         ACCESS:      47130 HIT:        936 MISS:      46194 MSHR_MERGE:        124
cpu0->LLC RFO          ACCESS:    1067460 HIT:       1063 MISS:    1066397 MSHR_MERGE:          0
cpu0->LLC PREFETCH     ACCESS:     315623 HIT:       3681 MISS:     311942 MSHR_MERGE:       2274
cpu0->LLC WRITE        ACCESS:    1067242 HIT:     251712 MISS:     815530 MSHR_MERGE:          0
cpu0->LLC TRANSLATION  ACCESS:       2821 HIT:          0 MISS:       2821 MSHR_MERGE:          0
cpu0->LLC PREFETCH REQUESTED:          0 ISSUED:          0 USEFUL:          0 USELESS:          0 LATE:          0
cpu0->LLC AVERAGE MISS LATENCY: 327.3 cycles

DRAM Statistics

Channel 0 RQ ROW_BUFFER_HIT:     107555
  ROW_BUFFER_MISS:    1317389
  AVG DBUS CONGESTED CYCLE: 7.803
Channel 0 WQ ROW_BUFFER_HIT:     142416
  ROW_BUFFER_MISS:     915633
  FULL:          0
Channel 0 REFRESHES ISSUED:       5025

[ROI Statistics]
[System Configuration]
num_cpus 1
cpu_freq 4000
fetch_width 6
decode_width 6
dispatch_width 6
execute_width 6
lq_width 2
sq_width 2
retire_width 6
scheduler_size 128
branch_mispredict_penalty 15
rob_size 352
lq_size 128
sq_size 72
ifetch_buffer_size 64
decode_buffer_size 32
dispatch_buffer_size 32
register_file_size 288
decode_latency 1
dispatch_latency 1
schedule_latency 1
execute_latency 1
page_size 4096
block_size 64
core_0_itlb_set 16
core_0_itlb_way 4
core_0_itlb_rq_size 16
core_0_itlb_wq_size 16
core_0_itlb_pq_size 0
core_0_itlb_mshr_size 8
core_0_itlb_hit_latency 1
core_0_itlb_fill_latency 1
core_0_itlb_max_tag_check 2
core_0_itlb_max_fill 2
core_0_dtlb_set 16
core_0_dtlb_way 4
core_0_dtlb_rq_size 16
core_0_dtlb_wq_size 16
core_0_dtlb_pq_size 0
core_0_dtlb_mshr_size 8
core_0_dtlb_hit_latency 1
core_0_dtlb_fill_latency 1
core_0_dtlb_max_tag_check 2
core_0_dtlb_max_fill 2
core_0_stlb_set 128
core_0_stlb_way 12
core_0_stlb_rq_size 32
core_0_stlb_wq_size 32
core_0_stlb_pq_size 0
core_0_stlb_mshr_size 16
core_0_stlb_hit_latency 4
core_0_stlb_fill_latency 4
core_0_stlb_max_tag_check 1
core_0_stlb_max_fill 1
core_0_l1i_set 64
core_0_l1i_way 8
core_0_l1i_rq_size 64
core_0_l1i_wq_size 64
core_0_l1i_pq_size 32
core_0_l1i_mshr_size 8
core_0_l1i_hit_latency 2
core_0_l1i_fill_latency 2
core_0_l1i_max_tag_check 2
core_0_l1i_max_fill 2
core_0_l1d_set 64
core_0_l1d_way 12
core_0_l1d_rq_size 64
core_0_l1d_wq_size 64
core_0_l1d_pq_size 8
core_0_l1d_mshr_size 16
core_0_l1d_hit_latency 2
core_0_l1d_fill_latency 3
core_0_l1d_max_tag_check 2
core_0_l1d_max_fill 2
core_0_l2c_set 1024
core_0_l2c_way 8
core_0_l2c_rq_size 32
core_0_l2c_wq_size 32
core_0_l2c_pq_size 16
core_0_l2c_mshr_size 32
core_0_l2c_hit_latency 5
core_0_l2c_fill_latency 5
core_0_l2c_max_tag_check 1
core_0_l2c_max_fill 1
llc_set 2048
llc_way 16
llc_rq_size 32
llc_wq_size 32
llc_pq_size 32
llc_mshr_size 64
llc_hit_latency 10
llc_fill_latency 10
llc_max_tag_check 1
llc_max_fill 1
dram_channels 1
dram_ranks 1
dram_bankgroups 8
dram_banks 4
dram_rows 65536
dram_columns 1024
dram_channel_width 8
dram_rq_size 64
dram_wq_size 64
dram_size 17179869184
core_0_itlb_prefetcher no
core_0_dtlb_prefetcher no
core_0_stlb_prefetcher no
core_0_l1i_prefetcher next_line
core_0_l1d_prefetcher berti
core_0_l2c_prefetcher ip_stride
llc_prefetcher no
llc_replacement drrip

Core_0_instructions 50000000
Core_0_cycles 60303920
Core_0_IPC 0.829133
Core_0_branch_prediction_accuracy 99.7937
Core_0_branch_MPKI 0.02864
Core_0_average_ROB_occupancy_at_mispredict 341.624

Core_0_ITLB_total_access 6459064
Core_0_ITLB_total_hit 6459064
Core_0_ITLB_total_miss 0
Core_0_ITLB_total_MPKI 0
Core_0_ITLB_total_miss_rate 0
Core_0_ITLB_demand_access 6459064
Core_0_ITLB_demand_hit 6459064
Core_0_ITLB_demand_miss 0
Core_0_ITLB_demand_MPKI 0
Core_0_ITLB_demand_miss_rate 0
Core_0_ITLB_load_access 6459064
Core_0_ITLB_load_hit 6459064
Core_0_ITLB_load_miss 0
Core_0_ITLB_load_MPKI 0
Core_0_ITLB_load_miss_rate 0
Core_0_ITLB_rfo_access 0
Core_0_ITLB_rfo_hit 0
Core_0_ITLB_rfo_miss 0
Core_0_ITLB_rfo_MPKI 0
Core_0_ITLB_rfo_miss_rate 0
Core_0_ITLB_prefetch_access 0
Core_0_ITLB_prefetch_hit 0
Core_0_ITLB_prefetch_miss 0
Core_0_ITLB_prefetch_MPKI 0
Core_0_ITLB_prefetch_miss_rate 0
Core_0_ITLB_writeback_access 0
Core_0_ITLB_writeback_hit 0
Core_0_ITLB_writeback_miss 0
Core_0_ITLB_writeback_MPKI 0
Core_0_ITLB_writeback_miss_rate 0
Core_0_ITLB_prefetch_requested 0
Core_0_ITLB_prefetch_issued 0
Core_0_ITLB_prefetch_useful 0
Core_0_ITLB_prefetch_useless 0
Core_0_ITLB_prefetch_late 0
Core_0_ITLB_prefetch_accuracy 0
Core_0_ITLB_prefetch_coverage 0

Core_0_DTLB_total_access 7508925
Core_0_DTLB_total_hit 7468403
Core_0_DTLB_total_miss 40522
Core_0_DTLB_total_MPKI 0.81044
Core_0_DTLB_total_miss_rate 0.00539651
Core_0_DTLB_demand_access 7508925
Core_0_DTLB_demand_hit 7468403
Core_0_DTLB_demand_miss 40522
Core_0_DTLB_demand_MPKI 0.81044
Core_0_DTLB_demand_miss_rate 0.00539651
Core_0_DTLB_load_access 7508925
Core_0_DTLB_load_hit 7468403
Core_0_DTLB_load_miss 40522
Core_0_DTLB_load_MPKI 0.81044
Core_0_DTLB_load_miss_rate 0.00539651
Core_0_DTLB_rfo_access 0
Core_0_DTLB_rfo_hit 0
Core_0_DTLB_rfo_miss 0
Core_0_DTLB_rfo_MPKI 0
Core_0_DTLB_rfo_miss_rate 0
Core_0_DTLB_prefetch_access 0
Core_0_DTLB_prefetch_hit 0
Core_0_DTLB_prefetch_miss 0
Core_0_DTLB_prefetch_MPKI 0
Core_0_DTLB_prefetch_miss_rate 0
Core_0_DTLB_writeback_access 0
Core_0_DTLB_writeback_hit 0
Core_0_DTLB_writeback_miss 0
Core_0_DTLB_writeback_MPKI 0
Core_0_DTLB_writeback_miss_rate 0
Core_0_DTLB_prefetch_requested 0
Core_0_DTLB_prefetch_issued 0
Core_0_DTLB_prefetch_useful 0
Core_0_DTLB_prefetch_useless 0
Core_0_DTLB_prefetch_late 0
Core_0_DTLB_prefetch_accuracy 0
Core_0_DTLB_prefetch_coverage 0

Core_0_STLB_total_access 22260
Core_0_STLB_total_hit 6
Core_0_STLB_total_miss 22254
Core_0_STLB_total_MPKI 0.44508
Core_0_STLB_total_miss_rate 0.99973
Core_0_STLB_demand_access 22260
Core_0_STLB_demand_hit 6
Core_0_STLB_demand_miss 22254
Core_0_STLB_demand_MPKI 0.44508
Core_0_STLB_demand_miss_rate 0.99973
Core_0_STLB_load_access 22260
Core_0_STLB_load_hit 6
Core_0_STLB_load_miss 22254
Core_0_STLB_load_MPKI 0.44508
Core_0_STLB_load_miss_rate 0.99973
Core_0_STLB_rfo_access 0
Core_0_STLB_rfo_hit 0
Core_0_STLB_rfo_miss 0
Core_0_STLB_rfo_MPKI 0
Core_0_STLB_rfo_miss_rate 0
Core_0_STLB_prefetch_access 0
Core_0_STLB_prefetch_hit 0
Core_0_STLB_prefetch_miss 0
Core_0_STLB_prefetch_MPKI 0
Core_0_STLB_prefetch_miss_rate 0
Core_0_STLB_writeback_access 0
Core_0_STLB_writeback_hit 0
Core_0_STLB_writeback_miss 0
Core_0_STLB_writeback_MPKI 0
Core_0_STLB_writeback_miss_rate 0
Core_0_STLB_prefetch_requested 0
Core_0_STLB_prefetch_issued 0
Core_0_STLB_prefetch_useful 0
Core_0_STLB_prefetch_useless 0
Core_0_STLB_prefetch_late 0
Core_0_STLB_prefetch_accuracy 0
Core_0_STLB_prefetch_coverage 0

Core_0_L1I_total_access 8417250
Core_0_L1I_total_hit 8417250
Core_0_L1I_total_miss 0
Core_0_L1I_total_MPKI 0
Core_0_L1I_total_miss_rate 0
Core_0_L1I_demand_access 8417250
Core_0_L1I_demand_hit 8417250
Core_0_L1I_demand_miss 0
Core_0_L1I_demand_MPKI 0
Core_0_L1I_demand_miss_rate 0
Core_0_L1I_load_access 8417250
Core_0_L1I_load_hit 8417250
Core_0_L1I_load_miss 0
Core_0_L1I_load_MPKI 0
Core_0_L1I_load_miss_rate 0
Core_0_L1I_rfo_access 0
Core_0_L1I_rfo_hit 0
Core_0_L1I_rfo_miss 0
Core_0_L1I_rfo_MPKI 0
Core_0_L1I_rfo_miss_rate 0
Core_0_L1I_prefetch_access 0
Core_0_L1I_prefetch_hit 0
Core_0_L1I_prefetch_miss 0
Core_0_L1I_prefetch_MPKI 0
Core_0_L1I_prefetch_miss_rate 0
Core_0_L1I_writeback_access 0
Core_0_L1I_writeback_hit 0
Core_0_L1I_writeback_miss 0
Core_0_L1I_writeback_MPKI 0
Core_0_L1I_writeback_miss_rate 0
Core_0_L1I_prefetch_requested 0
Core_0_L1I_prefetch_issued 0
Core_0_L1I_prefetch_useful 0
Core_0_L1I_prefetch_useless 0
Core_0_L1I_prefetch_late 0
Core_0_L1I_prefetch_accuracy 0
Core_0_L1I_prefetch_coverage 0

Core_0_L1D_total_access 7928138
Core_0_L1D_total_hit 5403577
Core_0_L1D_total_miss 2524561
Core_0_L1D_total_MPKI 50.4912
Core_0_L1D_total_miss_rate 0.318431
Core_0_L1D_demand_access 2578736
Core_0_L1D_demand_hit 2434119
Core_0_L1D_demand_miss 144617
Core_0_L1D_demand_MPKI 2.89234
Core_0_L1D_demand_miss_rate 0.0560806
Core_0_L1D_load_access 2578736
Core_0_L1D_load_hit 2434119
Core_0_L1D_load_miss 144617
Core_0_L1D_load_MPKI 2.89234
Core_0_L1D_load_miss_rate 0.0560806
Core_0_L1D_rfo_access 0
Core_0_L1D_rfo_hit 0
Core_0_L1D_rfo_miss 0
Core_0_L1D_rfo_MPKI 0
Core_0_L1D_rfo_miss_rate 0
Core_0_L1D_prefetch_access 325932
Core_0_L1D_prefetch_hit 14112
Core_0_L1D_prefetch_miss 311820
Core_0_L1D_prefetch_MPKI 6.2364
Core_0_L1D_prefetch_miss_rate 0.956703
Core_0_L1D_writeback_access 5023470
Core_0_L1D_writeback_hit 2955346
Core_0_L1D_writeback_miss 2068124
Core_0_L1D_writeback_MPKI 41.3625
Core_0_L1D_writeback_miss_rate 0.411692
Core_0_L1D_prefetch_requested 330848
Core_0_L1D_prefetch_issued 325932
Core_0_L1D_prefetch_useful 304996
Core_0_L1D_prefetch_useless 37
Core_0_L1D_prefetch_late 49812
Core_0_L1D_prefetch_accuracy 0.935766
Core_0_L1D_prefetch_coverage 0.678352

Core_0_L2C_total_access 4410561
Core_0_L2C_total_hit 2960854
Core_0_L2C_total_miss 1449707
Core_0_L2C_total_MPKI 28.9941
Core_0_L2C_total_miss_rate 0.32869
Core_0_L2C_demand_access 2051968
Core_0_L2C_demand_hit 937015
Core_0_L2C_demand_miss 1114953
Core_0_L2C_demand_MPKI 22.2991
Core_0_L2C_demand_miss_rate 0.543358
Core_0_L2C_load_access 50736
Core_0_L2C_load_hit 3243
Core_0_L2C_load_miss 47493
Core_0_L2C_load_MPKI 0.94986
Core_0_L2C_load_miss_rate 0.936081
Core_0_L2C_rfo_access 2001232
Core_0_L2C_rfo_hit 933772
Core_0_L2C_rfo_miss 1067460
Core_0_L2C_rfo_MPKI 21.3492
Core_0_L2C_rfo_miss_rate 0.533401
Core_0_L2C_prefetch_access 357078
Core_0_L2C_prefetch_hit 22327
Core_0_L2C_prefetch_miss 334751
Core_0_L2C_prefetch_MPKI 6.69502
Core_0_L2C_prefetch_miss_rate 0.937473
Core_0_L2C_writeback_access 2001515
Core_0_L2C_writeback_hit 2001512
Core_0_L2C_writeback_miss 3
Core_0_L2C_writeback_MPKI 6e-05
Core_0_L2C_writeback_miss_rate 1.49886e-06
Core_0_L2C_prefetch_requested 52042
Core_0_L2C_prefetch_issued 52042
Core_0_L2C_prefetch_useful 14579
Core_0_L2C_prefetch_useless 7745
Core_0_L2C_prefetch_late 363
Core_0_L2C_prefetch_accuracy 0.280139
Core_0_L2C_prefetch_coverage 0.0129071

Core_0_LLC_total_access 2497455
Core_0_LLC_total_hit 257392
Core_0_LLC_total_miss 2240063
Core_0_LLC_total_MPKI 44.8013
Core_0_LLC_total_miss_rate 0.896938
Core_0_LLC_demand_access 1114590
Core_0_LLC_demand_hit 1999
Core_0_LLC_demand_miss 1112591
Core_0_LLC_demand_MPKI 22.2518
Core_0_LLC_demand_miss_rate 0.998207
Core_0_LLC_load_access 47130
Core_0_LLC_load_hit 936
Core_0_LLC_load_miss 46194
Core_0_LLC_load_MPKI 0.92388
Core_0_LLC_load_miss_rate 0.98014
Core_0_LLC_rfo_access 1067460
Core_0_LLC_rfo_hit 1063
Core_0_LLC_rfo_miss 1066397
Core_0_LLC_rfo_MPKI 21.3279
Core_0_LLC_rfo_miss_rate 0.999004
Core_0_LLC_prefetch_access 315623
Core_0_LLC_prefetch_hit 3681
Core_0_LLC_prefetch_miss 311942
Core_0_LLC_prefetch_MPKI 6.23884
Core_0_LLC_prefetch_miss_rate 0.988337
Core_0_LLC_writeback_access 1067242
Core_0_LLC_writeback_hit 251712
Core_0_LLC_writeback_miss 815530
Core_0_LLC_writeback_MPKI 16.3106
Core_0_LLC_writeback_miss_rate 0.764147
Core_0_LLC_prefetch_requested 0
Core_0_LLC_prefetch_issued 0
Core_0_LLC_prefetch_useful 0
Core_0_LLC_prefetch_useless 0
Core_0_LLC_prefetch_late 0
Core_0_LLC_prefetch_accuracy 0
Core_0_LLC_prefetch_coverage 0

[DRAM Statistics]
Channel_0_RQ_row_buffer_hit 107555
Channel_0_RQ_row_buffer_miss 1317389
Channel_0_WQ_row_buffer_hit 142416
Channel_0_WQ_row_buffer_miss 915633
Channel_0_WQ_full 0
Channel_0_dbus_congested 9602860
DRAM_total_RQ_row_buffer_hit 107555
DRAM_total_RQ_row_buffer_miss 1317389
DRAM_total_WQ_row_buffer_hit 142416
DRAM_total_WQ_row_buffer_miss 915633
DRAM_total_WQ_full 0
DRAM_total_dbus_congested 9602860
DRAM_avg_congested_cycle 7.80318

======STLB miss causes ========
Core_0_STLB_miss_cause_breakdown
Core_0_STLB_cause_Demand_Data_miss 22253
Core_0_STLB_cause_Demand_Data_miss_rate 0.999686
Core_0_STLB_cause_Demand_Instruction_miss 0
Core_0_STLB_cause_Demand_Instruction_miss_rate 0
Core_0_STLB_cause_L1D_Prefetch_miss 1
Core_0_STLB_cause_L1D_Prefetch_miss_rate 4.49236e-05
Core_0_STLB_cause_L1I_Prefetch_miss 0
Core_0_STLB_cause_L1I_Prefetch_miss_rate 0
Core_0_STLB_cause_Other_miss 0
Core_0_STLB_cause_Other_miss_rate 0
Core_0_STLB_Demand_miss 22253
Core_0_STLB_Demand_miss_rate 0.999686
Core_0_STLB_L1D_Prefetch_miss 1
Core_0_STLB_L1D_Prefetch_miss_rate 4.49236e-05
Core_0_STLB_Other_miss 0
Core_0_STLB_Other_miss_rate 0
