[VMEM] WARNING: physical memory size is smaller than virtual memory size.

*** ChampSim Multicore Out-of-Order Simulator ***
Warmup Instructions: 20000000
Simulation Instructions: 50000000
Number of CPUs: 1
Page size: 4096
STLB ideal mode: off
Core 0: /data0/tzh/champsim_traces/SPEC06/482.sphinx3-234B.champsimtrace.xz
 L1D Berti prefetcher
Off-chip DRAM Size: 16 GiB Channels: 1 Width: 64-bit Data Rate: 3205 MT/s
Warmup halting CPU 0 at instruction 20000004 cycle 4409472 for remainder of phase
Warmup finished CPU 0 instructions: 20000004 cycles: 4409472 cumulative IPC: 4.536 (Simulation time: 00 hr 00 min 53 sec)
Warmup complete CPU 0 instructions: 20000004 cycles: 4409472 cumulative IPC: 4.536 (Simulation time: 00 hr 00 min 53 sec)
Simulation finished CPU 0 instructions: 50000004 cycles: 27351140 cumulative IPC: 1.828 (Simulation time: 00 hr 04 min 32 sec)
Simulation complete CPU 0 instructions: 50000004 cycles: 27351140 cumulative IPC: 1.828 (Simulation time: 00 hr 04 min 32 sec)

ChampSim completed all CPUs

=== Simulation ===
CPU 0 runs /data0/tzh/champsim_traces/SPEC06/482.sphinx3-234B.champsimtrace.xz

Region of Interest Statistics

CPU 0 cumulative IPC: 1.828 instructions: 50000004 cycles: 27351140
CPU 0 Branch Prediction Accuracy: 98.46% MPKI: 1.436 Average ROB Occupancy at Mispredict: 148.9
Branch type MPKI
BRANCH_DIRECT_JUMP: 0.00078
BRANCH_INDIRECT: 0
BRANCH_CONDITIONAL: 1.432
BRANCH_DIRECT_CALL: 0.00134
BRANCH_INDIRECT_CALL: 4e-05
BRANCH_RETURN: 0.00186

cpu0->cpu0_STLB TOTAL        ACCESS:      69711 HIT:      51603 MISS:      18108 MSHR_MERGE:          0
cpu0->cpu0_STLB LOAD         ACCESS:      69711 HIT:      51603 MISS:      18108 MSHR_MERGE:          0
cpu0->cpu0_STLB RFO          ACCESS:          0 HIT:          0 MISS:          0 MSHR_MERGE:          0
cpu0->cpu0_STLB PREFETCH     ACCESS:          0 HIT:          0 MISS:          0 MSHR_MERGE:          0
cpu0->cpu0_STLB WRITE        ACCESS:          0 HIT:          0 MISS:          0 MSHR_MERGE:          0
cpu0->cpu0_STLB TRANSLATION  ACCESS:          0 HIT:          0 MISS:          0 MSHR_MERGE:          0
cpu0->cpu0_STLB PREFETCH REQUESTED:          0 ISSUED:          0 USEFUL:          0 USELESS:          0 LATE:          0
cpu0->cpu0_STLB AVERAGE MISS LATENCY: 53.73 cycles
cpu0->cpu0_L2C TOTAL        ACCESS:    1017493 HIT:     323762 MISS:     693731 MSHR_MERGE:      29025
cpu0->cpu0_L2C LOAD         ACCESS:     253559 HIT:     121664 MISS:     131895 MSHR_MERGE:       3949
cpu0->cpu0_L2C RFO          ACCESS:      29757 HIT:       4777 MISS:      24980 MSHR_MERGE:          0
cpu0->cpu0_L2C PREFETCH     ACCESS:     684102 HIT:     151144 MISS:     532958 MSHR_MERGE:      25076
cpu0->cpu0_L2C WRITE        ACCESS:      44117 HIT:      44015 MISS:        102 MSHR_MERGE:          0
cpu0->cpu0_L2C TRANSLATION  ACCESS:       5958 HIT:       2162 MISS:       3796 MSHR_MERGE:          0
cpu0->cpu0_L2C PREFETCH REQUESTED:     146114 ISSUED:     146114 USEFUL:      35923 USELESS:      18188 LATE:       3949
cpu0->cpu0_L2C AVERAGE MISS LATENCY: 142.6 cycles
cpu0->cpu0_L1I TOTAL        ACCESS:    6546501 HIT:    6546156 MISS:        345 MSHR_MERGE:        106
cpu0->cpu0_L1I LOAD         ACCESS:    6546501 HIT:    6546156 MISS:        345 MSHR_MERGE:        106
cpu0->cpu0_L1I RFO          ACCESS:          0 HIT:          0 MISS:          0 MSHR_MERGE:          0
cpu0->cpu0_L1I PREFETCH     ACCESS:          0 HIT:          0 MISS:          0 MSHR_MERGE:          0
cpu0->cpu0_L1I WRITE        ACCESS:          0 HIT:          0 MISS:          0 MSHR_MERGE:          0
cpu0->cpu0_L1I TRANSLATION  ACCESS:          0 HIT:          0 MISS:          0 MSHR_MERGE:          0
cpu0->cpu0_L1I PREFETCH REQUESTED:          0 ISSUED:          0 USEFUL:          0 USELESS:          0 LATE:          0
cpu0->cpu0_L1I AVERAGE MISS LATENCY: 213.1 cycles
cpu0->cpu0_L1D TOTAL        ACCESS:   10368199 HIT:    8742827 MISS:    1625372 MSHR_MERGE:     798349
cpu0->cpu0_L1D LOAD         ACCESS:    8644423 HIT:    7736357 MISS:     908066 MSHR_MERGE:     654746
cpu0->cpu0_L1D RFO          ACCESS:          0 HIT:          0 MISS:          0 MSHR_MERGE:          0
cpu0->cpu0_L1D PREFETCH     ACCESS:     654507 HIT:     107291 MISS:     547216 MSHR_MERGE:       9228
cpu0->cpu0_L1D WRITE        ACCESS:    1033110 HIT:     869004 MISS:     164106 MSHR_MERGE:     134349
cpu0->cpu0_L1D TRANSLATION  ACCESS:      36159 HIT:      30175 MISS:       5984 MSHR_MERGE:         26
cpu0->cpu0_L1D PREFETCH REQUESTED:     657702 ISSUED:     654499 USEFUL:     439978 USELESS:      97954 LATE:      56146
cpu0->cpu0_L1D AVERAGE MISS LATENCY: 87.52 cycles
cpu0->cpu0_ITLB TOTAL        ACCESS:    4437160 HIT:    4437142 MISS:         18 MSHR_MERGE:          6
cpu0->cpu0_ITLB LOAD         ACCESS:    4437160 HIT:    4437142 MISS:         18 MSHR_MERGE:          6
cpu0->cpu0_ITLB RFO          ACCESS:          0 HIT:          0 MISS:          0 MSHR_MERGE:          0
cpu0->cpu0_ITLB PREFETCH     ACCESS:          0 HIT:          0 MISS:          0 MSHR_MERGE:          0
cpu0->cpu0_ITLB WRITE        ACCESS:          0 HIT:          0 MISS:          0 MSHR_MERGE:          0
cpu0->cpu0_ITLB TRANSLATION  ACCESS:          0 HIT:          0 MISS:          0 MSHR_MERGE:          0
cpu0->cpu0_ITLB PREFETCH REQUESTED:          0 ISSUED:          0 USEFUL:          0 USELESS:          0 LATE:          0
cpu0->cpu0_ITLB AVERAGE MISS LATENCY: 367.4 cycles
cpu0->cpu0_DTLB TOTAL        ACCESS:    9930698 HIT:    9775086 MISS:     155612 MSHR_MERGE:      85913
cpu0->cpu0_DTLB LOAD         ACCESS:    9930698 HIT:    9775086 MISS:     155612 MSHR_MERGE:      85913
cpu0->cpu0_DTLB RFO          ACCESS:          0 HIT:          0 MISS:          0 MSHR_MERGE:          0
cpu0->cpu0_DTLB PREFETCH     ACCESS:          0 HIT:          0 MISS:          0 MSHR_MERGE:          0
cpu0->cpu0_DTLB WRITE        ACCESS:          0 HIT:          0 MISS:          0 MSHR_MERGE:          0
cpu0->cpu0_DTLB TRANSLATION  ACCESS:          0 HIT:          0 MISS:          0 MSHR_MERGE:          0
cpu0->cpu0_DTLB PREFETCH REQUESTED:          0 ISSUED:          0 USEFUL:          0 USELESS:          0 LATE:          0
cpu0->cpu0_DTLB AVERAGE MISS LATENCY: 19.16 cycles
cpu0->LLC TOTAL        ACCESS:     699546 HIT:     174116 MISS:     525430 MSHR_MERGE:        464
cpu0->LLC LOAD         ACCESS:     127945 HIT:      42967 MISS:      84978 MSHR_MERGE:          0
cpu0->LLC RFO          ACCESS:      24980 HIT:      19336 MISS:       5644 MSHR_MERGE:          0
cpu0->LLC PREFETCH     ACCESS:     507881 HIT:      80797 MISS:     427084 MSHR_MERGE:        464
cpu0->LLC WRITE        ACCESS:      34944 HIT:      30175 MISS:       4769 MSHR_MERGE:          0
cpu0->LLC TRANSLATION  ACCESS:       3796 HIT:        841 MISS:       2955 MSHR_MERGE:          0
cpu0->LLC PREFETCH REQUESTED:          0 ISSUED:          0 USEFUL:          0 USELESS:          0 LATE:          0
cpu0->LLC AVERAGE MISS LATENCY: 202.2 cycles

DRAM Statistics

Channel 0 RQ ROW_BUFFER_HIT:      10835
  ROW_BUFFER_MISS:     509300
  AVG DBUS CONGESTED CYCLE: 7.546
Channel 0 WQ ROW_BUFFER_HIT:       3436
  ROW_BUFFER_MISS:       7056
  FULL:          0
Channel 0 REFRESHES ISSUED:       2279

[ROI Statistics]
[System Configuration]
num_cpus 1
cpu_freq 4000
fetch_width 6
decode_width 6
dispatch_width 6
execute_width 6
lq_width 2
sq_width 2
retire_width 6
scheduler_size 128
branch_mispredict_penalty 15
rob_size 352
lq_size 128
sq_size 72
ifetch_buffer_size 64
decode_buffer_size 32
dispatch_buffer_size 32
register_file_size 288
decode_latency 1
dispatch_latency 1
schedule_latency 1
execute_latency 1
page_size 4096
block_size 64
core_0_itlb_set 16
core_0_itlb_way 4
core_0_itlb_rq_size 16
core_0_itlb_wq_size 16
core_0_itlb_pq_size 0
core_0_itlb_mshr_size 8
core_0_itlb_hit_latency 1
core_0_itlb_fill_latency 1
core_0_itlb_max_tag_check 2
core_0_itlb_max_fill 2
core_0_dtlb_set 16
core_0_dtlb_way 4
core_0_dtlb_rq_size 16
core_0_dtlb_wq_size 16
core_0_dtlb_pq_size 0
core_0_dtlb_mshr_size 8
core_0_dtlb_hit_latency 1
core_0_dtlb_fill_latency 1
core_0_dtlb_max_tag_check 2
core_0_dtlb_max_fill 2
core_0_stlb_set 128
core_0_stlb_way 12
core_0_stlb_rq_size 32
core_0_stlb_wq_size 32
core_0_stlb_pq_size 0
core_0_stlb_mshr_size 16
core_0_stlb_hit_latency 4
core_0_stlb_fill_latency 4
core_0_stlb_max_tag_check 1
core_0_stlb_max_fill 1
core_0_l1i_set 64
core_0_l1i_way 8
core_0_l1i_rq_size 64
core_0_l1i_wq_size 64
core_0_l1i_pq_size 32
core_0_l1i_mshr_size 8
core_0_l1i_hit_latency 2
core_0_l1i_fill_latency 2
core_0_l1i_max_tag_check 2
core_0_l1i_max_fill 2
core_0_l1d_set 64
core_0_l1d_way 12
core_0_l1d_rq_size 64
core_0_l1d_wq_size 64
core_0_l1d_pq_size 8
core_0_l1d_mshr_size 16
core_0_l1d_hit_latency 2
core_0_l1d_fill_latency 3
core_0_l1d_max_tag_check 2
core_0_l1d_max_fill 2
core_0_l2c_set 1024
core_0_l2c_way 8
core_0_l2c_rq_size 32
core_0_l2c_wq_size 32
core_0_l2c_pq_size 16
core_0_l2c_mshr_size 32
core_0_l2c_hit_latency 5
core_0_l2c_fill_latency 5
core_0_l2c_max_tag_check 1
core_0_l2c_max_fill 1
llc_set 2048
llc_way 16
llc_rq_size 32
llc_wq_size 32
llc_pq_size 32
llc_mshr_size 64
llc_hit_latency 10
llc_fill_latency 10
llc_max_tag_check 1
llc_max_fill 1
dram_channels 1
dram_ranks 1
dram_bankgroups 8
dram_banks 4
dram_rows 65536
dram_columns 1024
dram_channel_width 8
dram_rq_size 64
dram_wq_size 64
dram_size 17179869184
core_0_itlb_prefetcher no
core_0_dtlb_prefetcher no
core_0_stlb_prefetcher no
core_0_l1i_prefetcher next_line
core_0_l1d_prefetcher berti
core_0_l2c_prefetcher ip_stride
llc_prefetcher no
llc_replacement drrip

Core_0_instructions 50000004
Core_0_cycles 27351140
Core_0_IPC 1.82808
Core_0_branch_prediction_accuracy 98.4604
Core_0_branch_MPKI 1.43632
Core_0_average_ROB_occupancy_at_mispredict 148.906

Core_0_ITLB_total_access 4437160
Core_0_ITLB_total_hit 4437142
Core_0_ITLB_total_miss 18
Core_0_ITLB_total_MPKI 0.00036
Core_0_ITLB_total_miss_rate 4.05665e-06
Core_0_ITLB_demand_access 4437160
Core_0_ITLB_demand_hit 4437142
Core_0_ITLB_demand_miss 18
Core_0_ITLB_demand_MPKI 0.00036
Core_0_ITLB_demand_miss_rate 4.05665e-06
Core_0_ITLB_load_access 4437160
Core_0_ITLB_load_hit 4437142
Core_0_ITLB_load_miss 18
Core_0_ITLB_load_MPKI 0.00036
Core_0_ITLB_load_miss_rate 4.05665e-06
Core_0_ITLB_rfo_access 0
Core_0_ITLB_rfo_hit 0
Core_0_ITLB_rfo_miss 0
Core_0_ITLB_rfo_MPKI 0
Core_0_ITLB_rfo_miss_rate 0
Core_0_ITLB_prefetch_access 0
Core_0_ITLB_prefetch_hit 0
Core_0_ITLB_prefetch_miss 0
Core_0_ITLB_prefetch_MPKI 0
Core_0_ITLB_prefetch_miss_rate 0
Core_0_ITLB_writeback_access 0
Core_0_ITLB_writeback_hit 0
Core_0_ITLB_writeback_miss 0
Core_0_ITLB_writeback_MPKI 0
Core_0_ITLB_writeback_miss_rate 0
Core_0_ITLB_prefetch_requested 0
Core_0_ITLB_prefetch_issued 0
Core_0_ITLB_prefetch_useful 0
Core_0_ITLB_prefetch_useless 0
Core_0_ITLB_prefetch_late 0
Core_0_ITLB_prefetch_accuracy 0
Core_0_ITLB_prefetch_coverage 0

Core_0_DTLB_total_access 9930698
Core_0_DTLB_total_hit 9775086
Core_0_DTLB_total_miss 155612
Core_0_DTLB_total_MPKI 3.11224
Core_0_DTLB_total_miss_rate 0.0156698
Core_0_DTLB_demand_access 9930698
Core_0_DTLB_demand_hit 9775086
Core_0_DTLB_demand_miss 155612
Core_0_DTLB_demand_MPKI 3.11224
Core_0_DTLB_demand_miss_rate 0.0156698
Core_0_DTLB_load_access 9930698
Core_0_DTLB_load_hit 9775086
Core_0_DTLB_load_miss 155612
Core_0_DTLB_load_MPKI 3.11224
Core_0_DTLB_load_miss_rate 0.0156698
Core_0_DTLB_rfo_access 0
Core_0_DTLB_rfo_hit 0
Core_0_DTLB_rfo_miss 0
Core_0_DTLB_rfo_MPKI 0
Core_0_DTLB_rfo_miss_rate 0
Core_0_DTLB_prefetch_access 0
Core_0_DTLB_prefetch_hit 0
Core_0_DTLB_prefetch_miss 0
Core_0_DTLB_prefetch_MPKI 0
Core_0_DTLB_prefetch_miss_rate 0
Core_0_DTLB_writeback_access 0
Core_0_DTLB_writeback_hit 0
Core_0_DTLB_writeback_miss 0
Core_0_DTLB_writeback_MPKI 0
Core_0_DTLB_writeback_miss_rate 0
Core_0_DTLB_prefetch_requested 0
Core_0_DTLB_prefetch_issued 0
Core_0_DTLB_prefetch_useful 0
Core_0_DTLB_prefetch_useless 0
Core_0_DTLB_prefetch_late 0
Core_0_DTLB_prefetch_accuracy 0
Core_0_DTLB_prefetch_coverage 0

Core_0_STLB_total_access 69711
Core_0_STLB_total_hit 51603
Core_0_STLB_total_miss 18108
Core_0_STLB_total_MPKI 0.36216
Core_0_STLB_total_miss_rate 0.259758
Core_0_STLB_demand_access 69711
Core_0_STLB_demand_hit 51603
Core_0_STLB_demand_miss 18108
Core_0_STLB_demand_MPKI 0.36216
Core_0_STLB_demand_miss_rate 0.259758
Core_0_STLB_load_access 69711
Core_0_STLB_load_hit 51603
Core_0_STLB_load_miss 18108
Core_0_STLB_load_MPKI 0.36216
Core_0_STLB_load_miss_rate 0.259758
Core_0_STLB_rfo_access 0
Core_0_STLB_rfo_hit 0
Core_0_STLB_rfo_miss 0
Core_0_STLB_rfo_MPKI 0
Core_0_STLB_rfo_miss_rate 0
Core_0_STLB_prefetch_access 0
Core_0_STLB_prefetch_hit 0
Core_0_STLB_prefetch_miss 0
Core_0_STLB_prefetch_MPKI 0
Core_0_STLB_prefetch_miss_rate 0
Core_0_STLB_writeback_access 0
Core_0_STLB_writeback_hit 0
Core_0_STLB_writeback_miss 0
Core_0_STLB_writeback_MPKI 0
Core_0_STLB_writeback_miss_rate 0
Core_0_STLB_prefetch_requested 0
Core_0_STLB_prefetch_issued 0
Core_0_STLB_prefetch_useful 0
Core_0_STLB_prefetch_useless 0
Core_0_STLB_prefetch_late 0
Core_0_STLB_prefetch_accuracy 0
Core_0_STLB_prefetch_coverage 0

Core_0_L1I_total_access 6546501
Core_0_L1I_total_hit 6546156
Core_0_L1I_total_miss 345
Core_0_L1I_total_MPKI 0.0069
Core_0_L1I_total_miss_rate 5.26999e-05
Core_0_L1I_demand_access 6546501
Core_0_L1I_demand_hit 6546156
Core_0_L1I_demand_miss 345
Core_0_L1I_demand_MPKI 0.0069
Core_0_L1I_demand_miss_rate 5.26999e-05
Core_0_L1I_load_access 6546501
Core_0_L1I_load_hit 6546156
Core_0_L1I_load_miss 345
Core_0_L1I_load_MPKI 0.0069
Core_0_L1I_load_miss_rate 5.26999e-05
Core_0_L1I_rfo_access 0
Core_0_L1I_rfo_hit 0
Core_0_L1I_rfo_miss 0
Core_0_L1I_rfo_MPKI 0
Core_0_L1I_rfo_miss_rate 0
Core_0_L1I_prefetch_access 0
Core_0_L1I_prefetch_hit 0
Core_0_L1I_prefetch_miss 0
Core_0_L1I_prefetch_MPKI 0
Core_0_L1I_prefetch_miss_rate 0
Core_0_L1I_writeback_access 0
Core_0_L1I_writeback_hit 0
Core_0_L1I_writeback_miss 0
Core_0_L1I_writeback_MPKI 0
Core_0_L1I_writeback_miss_rate 0
Core_0_L1I_prefetch_requested 0
Core_0_L1I_prefetch_issued 0
Core_0_L1I_prefetch_useful 0
Core_0_L1I_prefetch_useless 0
Core_0_L1I_prefetch_late 0
Core_0_L1I_prefetch_accuracy 0
Core_0_L1I_prefetch_coverage 0

Core_0_L1D_total_access 10332040
Core_0_L1D_total_hit 8712652
Core_0_L1D_total_miss 1619388
Core_0_L1D_total_MPKI 32.3878
Core_0_L1D_total_miss_rate 0.156735
Core_0_L1D_demand_access 8644423
Core_0_L1D_demand_hit 7736357
Core_0_L1D_demand_miss 908066
Core_0_L1D_demand_MPKI 18.1613
Core_0_L1D_demand_miss_rate 0.105046
Core_0_L1D_load_access 8644423
Core_0_L1D_load_hit 7736357
Core_0_L1D_load_miss 908066
Core_0_L1D_load_MPKI 18.1613
Core_0_L1D_load_miss_rate 0.105046
Core_0_L1D_rfo_access 0
Core_0_L1D_rfo_hit 0
Core_0_L1D_rfo_miss 0
Core_0_L1D_rfo_MPKI 0
Core_0_L1D_rfo_miss_rate 0
Core_0_L1D_prefetch_access 654507
Core_0_L1D_prefetch_hit 107291
Core_0_L1D_prefetch_miss 547216
Core_0_L1D_prefetch_MPKI 10.9443
Core_0_L1D_prefetch_miss_rate 0.836074
Core_0_L1D_writeback_access 1033110
Core_0_L1D_writeback_hit 869004
Core_0_L1D_writeback_miss 164106
Core_0_L1D_writeback_MPKI 3.28212
Core_0_L1D_writeback_miss_rate 0.158847
Core_0_L1D_prefetch_requested 657702
Core_0_L1D_prefetch_issued 654499
Core_0_L1D_prefetch_useful 439978
Core_0_L1D_prefetch_useless 97954
Core_0_L1D_prefetch_late 56146
Core_0_L1D_prefetch_accuracy 0.672236
Core_0_L1D_prefetch_coverage 0.326383

Core_0_L2C_total_access 1011535
Core_0_L2C_total_hit 321600
Core_0_L2C_total_miss 689935
Core_0_L2C_total_MPKI 13.7987
Core_0_L2C_total_miss_rate 0.682067
Core_0_L2C_demand_access 283316
Core_0_L2C_demand_hit 126441
Core_0_L2C_demand_miss 156875
Core_0_L2C_demand_MPKI 3.1375
Core_0_L2C_demand_miss_rate 0.55371
Core_0_L2C_load_access 253559
Core_0_L2C_load_hit 121664
Core_0_L2C_load_miss 131895
Core_0_L2C_load_MPKI 2.6379
Core_0_L2C_load_miss_rate 0.520175
Core_0_L2C_rfo_access 29757
Core_0_L2C_rfo_hit 4777
Core_0_L2C_rfo_miss 24980
Core_0_L2C_rfo_MPKI 0.4996
Core_0_L2C_rfo_miss_rate 0.839466
Core_0_L2C_prefetch_access 684102
Core_0_L2C_prefetch_hit 151144
Core_0_L2C_prefetch_miss 532958
Core_0_L2C_prefetch_MPKI 10.6592
Core_0_L2C_prefetch_miss_rate 0.779062
Core_0_L2C_writeback_access 44117
Core_0_L2C_writeback_hit 44015
Core_0_L2C_writeback_miss 102
Core_0_L2C_writeback_MPKI 0.00204
Core_0_L2C_writeback_miss_rate 0.00231203
Core_0_L2C_prefetch_requested 146114
Core_0_L2C_prefetch_issued 146114
Core_0_L2C_prefetch_useful 35923
Core_0_L2C_prefetch_useless 18188
Core_0_L2C_prefetch_late 3949
Core_0_L2C_prefetch_accuracy 0.245856
Core_0_L2C_prefetch_coverage 0.186325

Core_0_LLC_total_access 695750
Core_0_LLC_total_hit 173275
Core_0_LLC_total_miss 522475
Core_0_LLC_total_MPKI 10.4495
Core_0_LLC_total_miss_rate 0.750952
Core_0_LLC_demand_access 152925
Core_0_LLC_demand_hit 62303
Core_0_LLC_demand_miss 90622
Core_0_LLC_demand_MPKI 1.81244
Core_0_LLC_demand_miss_rate 0.592591
Core_0_LLC_load_access 127945
Core_0_LLC_load_hit 42967
Core_0_LLC_load_miss 84978
Core_0_LLC_load_MPKI 1.69956
Core_0_LLC_load_miss_rate 0.664176
Core_0_LLC_rfo_access 24980
Core_0_LLC_rfo_hit 19336
Core_0_LLC_rfo_miss 5644
Core_0_LLC_rfo_MPKI 0.11288
Core_0_LLC_rfo_miss_rate 0.225941
Core_0_LLC_prefetch_access 507881
Core_0_LLC_prefetch_hit 80797
Core_0_LLC_prefetch_miss 427084
Core_0_LLC_prefetch_MPKI 8.54168
Core_0_LLC_prefetch_miss_rate 0.840914
Core_0_LLC_writeback_access 34944
Core_0_LLC_writeback_hit 30175
Core_0_LLC_writeback_miss 4769
Core_0_LLC_writeback_MPKI 0.09538
Core_0_LLC_writeback_miss_rate 0.136476
Core_0_LLC_prefetch_requested 0
Core_0_LLC_prefetch_issued 0
Core_0_LLC_prefetch_useful 0
Core_0_LLC_prefetch_useless 0
Core_0_LLC_prefetch_late 0
Core_0_LLC_prefetch_accuracy 0
Core_0_LLC_prefetch_coverage 0

[DRAM Statistics]
Channel_0_RQ_row_buffer_hit 10835
Channel_0_RQ_row_buffer_miss 509300
Channel_0_WQ_row_buffer_hit 3436
Channel_0_WQ_row_buffer_miss 7056
Channel_0_WQ_full 0
Channel_0_dbus_congested 812196
DRAM_total_RQ_row_buffer_hit 10835
DRAM_total_RQ_row_buffer_miss 509300
DRAM_total_WQ_row_buffer_hit 3436
DRAM_total_WQ_row_buffer_miss 7056
DRAM_total_WQ_full 0
DRAM_total_dbus_congested 812196
DRAM_avg_congested_cycle 7.54649

======STLB miss causes ========
Core_0_STLB_miss_cause_breakdown
Core_0_STLB_cause_Demand_Data_miss 13475
Core_0_STLB_cause_Demand_Data_miss_rate 0.193298
Core_0_STLB_cause_Demand_Instruction_miss 12
Core_0_STLB_cause_Demand_Instruction_miss_rate 0.000172139
Core_0_STLB_cause_L1D_Prefetch_miss 4621
Core_0_STLB_cause_L1D_Prefetch_miss_rate 0.066288
Core_0_STLB_cause_L1I_Prefetch_miss 0
Core_0_STLB_cause_L1I_Prefetch_miss_rate 0
Core_0_STLB_cause_Other_miss 0
Core_0_STLB_cause_Other_miss_rate 0
Core_0_STLB_Demand_miss 13487
Core_0_STLB_Demand_miss_rate 0.19347
Core_0_STLB_L1D_Prefetch_miss 4621
Core_0_STLB_L1D_Prefetch_miss_rate 0.066288
Core_0_STLB_Other_miss 0
Core_0_STLB_Other_miss_rate 0
