[VMEM] WARNING: physical memory size is smaller than virtual memory size.

*** ChampSim Multicore Out-of-Order Simulator ***
Warmup Instructions: 20000000
Simulation Instructions: 50000000
Number of CPUs: 1
Page size: 4096
STLB ideal mode: off
Core 0: /data0/tzh/champsim_traces/SPEC17/603.bwaves_s-891B.champsimtrace.xz
 L1D Berti prefetcher
Off-chip DRAM Size: 16 GiB Channels: 1 Width: 64-bit Data Rate: 3205 MT/s
Warmup halting CPU 0 at instruction 20000002 cycle 4328346 for remainder of phase
Warmup finished CPU 0 instructions: 20000002 cycles: 4328346 cumulative IPC: 4.621 (Simulation time: 00 hr 00 min 50 sec)
Warmup complete CPU 0 instructions: 20000002 cycles: 4328346 cumulative IPC: 4.621 (Simulation time: 00 hr 00 min 50 sec)
Simulation finished CPU 0 instructions: 50000005 cycles: 33443340 cumulative IPC: 1.495 (Simulation time: 00 hr 05 min 38 sec)
Simulation complete CPU 0 instructions: 50000005 cycles: 33443340 cumulative IPC: 1.495 (Simulation time: 00 hr 05 min 38 sec)

ChampSim completed all CPUs

=== Simulation ===
CPU 0 runs /data0/tzh/champsim_traces/SPEC17/603.bwaves_s-891B.champsimtrace.xz

Region of Interest Statistics

CPU 0 cumulative IPC: 1.495 instructions: 50000005 cycles: 33443340
CPU 0 Branch Prediction Accuracy: 99.87% MPKI: 0.1732 Average ROB Occupancy at Mispredict: 285.8
Branch type MPKI
BRANCH_DIRECT_JUMP: 0
BRANCH_INDIRECT: 0
BRANCH_CONDITIONAL: 0.1732
BRANCH_DIRECT_CALL: 0
BRANCH_INDIRECT_CALL: 0
BRANCH_RETURN: 0

cpu0->cpu0_STLB TOTAL        ACCESS:      16381 HIT:         65 MISS:      16316 MSHR_MERGE:          0
cpu0->cpu0_STLB LOAD         ACCESS:      16381 HIT:         65 MISS:      16316 MSHR_MERGE:          0
cpu0->cpu0_STLB RFO          ACCESS:          0 HIT:          0 MISS:          0 MSHR_MERGE:          0
cpu0->cpu0_STLB PREFETCH     ACCESS:          0 HIT:          0 MISS:          0 MSHR_MERGE:          0
cpu0->cpu0_STLB WRITE        ACCESS:          0 HIT:          0 MISS:          0 MSHR_MERGE:          0
cpu0->cpu0_STLB TRANSLATION  ACCESS:          0 HIT:          0 MISS:          0 MSHR_MERGE:          0
cpu0->cpu0_STLB PREFETCH REQUESTED:          0 ISSUED:          0 USEFUL:          0 USELESS:          0 LATE:          0
cpu0->cpu0_STLB AVERAGE MISS LATENCY: 246.4 cycles
cpu0->cpu0_L2C TOTAL        ACCESS:    2393416 HIT:     384412 MISS:    2009004 MSHR_MERGE:     959175
cpu0->cpu0_L2C LOAD         ACCESS:     121617 HIT:      10832 MISS:     110785 MSHR_MERGE:      12380
cpu0->cpu0_L2C RFO          ACCESS:        500 HIT:        499 MISS:          1 MSHR_MERGE:          0
cpu0->cpu0_L2C PREFETCH     ACCESS:    1956875 HIT:      60735 MISS:    1896140 MSHR_MERGE:     946795
cpu0->cpu0_L2C WRITE        ACCESS:     312348 HIT:     312346 MISS:          2 MSHR_MERGE:          0
cpu0->cpu0_L2C TRANSLATION  ACCESS:       2076 HIT:          0 MISS:       2076 MSHR_MERGE:          0
cpu0->cpu0_L2C PREFETCH REQUESTED:    1033769 ISSUED:    1033769 USEFUL:      51251 USELESS:     290205 LATE:      12380
cpu0->cpu0_L2C AVERAGE MISS LATENCY: 289.9 cycles
cpu0->cpu0_L1I TOTAL        ACCESS:    6879176 HIT:    6879170 MISS:          6 MSHR_MERGE:          2
cpu0->cpu0_L1I LOAD         ACCESS:    6879176 HIT:    6879170 MISS:          6 MSHR_MERGE:          2
cpu0->cpu0_L1I RFO          ACCESS:          0 HIT:          0 MISS:          0 MSHR_MERGE:          0
cpu0->cpu0_L1I PREFETCH     ACCESS:          0 HIT:          0 MISS:          0 MSHR_MERGE:          0
cpu0->cpu0_L1I WRITE        ACCESS:          0 HIT:          0 MISS:          0 MSHR_MERGE:          0
cpu0->cpu0_L1I TRANSLATION  ACCESS:          0 HIT:          0 MISS:          0 MSHR_MERGE:          0
cpu0->cpu0_L1I PREFETCH REQUESTED:          0 ISSUED:          0 USEFUL:          0 USELESS:          0 LATE:          0
cpu0->cpu0_L1I AVERAGE MISS LATENCY: 227.8 cycles
cpu0->cpu0_L1D TOTAL        ACCESS:    9202591 HIT:    6947397 MISS:    2255194 MSHR_MERGE:    1207843
cpu0->cpu0_L1D LOAD         ACCESS:    6027021 HIT:    4724605 MISS:    1302416 MSHR_MERGE:    1180803
cpu0->cpu0_L1D RFO          ACCESS:          0 HIT:          0 MISS:          0 MSHR_MERGE:          0
cpu0->cpu0_L1D PREFETCH     ACCESS:     960213 HIT:      10485 MISS:     949728 MSHR_MERGE:      26621
cpu0->cpu0_L1D WRITE        ACCESS:    2182691 HIT:    2181717 MISS:        974 MSHR_MERGE:        419
cpu0->cpu0_L1D TRANSLATION  ACCESS:      32666 HIT:      30590 MISS:       2076 MSHR_MERGE:          0
cpu0->cpu0_L1D PREFETCH REQUESTED:    1049543 ISSUED:     960206 USEFUL:     922599 USELESS:        500 LATE:     168462
cpu0->cpu0_L1D AVERAGE MISS LATENCY: 179.3 cycles
cpu0->cpu0_ITLB TOTAL        ACCESS:    6204898 HIT:    6204898 MISS:          0 MSHR_MERGE:          0
cpu0->cpu0_ITLB LOAD         ACCESS:    6204898 HIT:    6204898 MISS:          0 MSHR_MERGE:          0
cpu0->cpu0_ITLB RFO          ACCESS:          0 HIT:          0 MISS:          0 MSHR_MERGE:          0
cpu0->cpu0_ITLB PREFETCH     ACCESS:          0 HIT:          0 MISS:          0 MSHR_MERGE:          0
cpu0->cpu0_ITLB WRITE        ACCESS:          0 HIT:          0 MISS:          0 MSHR_MERGE:          0
cpu0->cpu0_ITLB TRANSLATION  ACCESS:          0 HIT:          0 MISS:          0 MSHR_MERGE:          0
cpu0->cpu0_ITLB PREFETCH REQUESTED:          0 ISSUED:          0 USEFUL:          0 USELESS:          0 LATE:          0
cpu0->cpu0_ITLB AVERAGE MISS LATENCY: - cycles
cpu0->cpu0_DTLB TOTAL        ACCESS:    8338131 HIT:    8187848 MISS:     150283 MSHR_MERGE:     133902
cpu0->cpu0_DTLB LOAD         ACCESS:    8338131 HIT:    8187848 MISS:     150283 MSHR_MERGE:     133902
cpu0->cpu0_DTLB RFO          ACCESS:          0 HIT:          0 MISS:          0 MSHR_MERGE:          0
cpu0->cpu0_DTLB PREFETCH     ACCESS:          0 HIT:          0 MISS:          0 MSHR_MERGE:          0
cpu0->cpu0_DTLB WRITE        ACCESS:          0 HIT:          0 MISS:          0 MSHR_MERGE:          0
cpu0->cpu0_DTLB TRANSLATION  ACCESS:          0 HIT:          0 MISS:          0 MSHR_MERGE:          0
cpu0->cpu0_DTLB PREFETCH REQUESTED:          0 ISSUED:          0 USEFUL:          0 USELESS:          0 LATE:          0
cpu0->cpu0_DTLB AVERAGE MISS LATENCY: 251.4 cycles
cpu0->LLC TOTAL        ACCESS:    1365236 HIT:     279495 MISS:    1085741 MSHR_MERGE:       1921
cpu0->LLC LOAD         ACCESS:      98405 HIT:        343 MISS:      98062 MSHR_MERGE:          7
cpu0->LLC RFO          ACCESS:          1 HIT:          0 MISS:          1 MSHR_MERGE:          0
cpu0->LLC PREFETCH     ACCESS:     949344 HIT:       1321 MISS:     948023 MSHR_MERGE:       1914
cpu0->LLC WRITE        ACCESS:     315410 HIT:     277825 MISS:      37585 MSHR_MERGE:          0
cpu0->LLC TRANSLATION  ACCESS:       2076 HIT:          6 MISS:       2070 MSHR_MERGE:          0
cpu0->LLC PREFETCH REQUESTED:          0 ISSUED:          0 USEFUL:          0 USELESS:          0 LATE:          0
cpu0->LLC AVERAGE MISS LATENCY: 221.3 cycles

DRAM Statistics

Channel 0 RQ ROW_BUFFER_HIT:     209345
  ROW_BUFFER_MISS:     836883
  AVG DBUS CONGESTED CYCLE: 5.859
Channel 0 WQ ROW_BUFFER_HIT:      43968
  ROW_BUFFER_MISS:     285188
  FULL:          0
Channel 0 REFRESHES ISSUED:       2787

[ROI Statistics]
[System Configuration]
num_cpus 1
cpu_freq 4000
fetch_width 6
decode_width 6
dispatch_width 6
execute_width 6
lq_width 2
sq_width 2
retire_width 6
scheduler_size 128
branch_mispredict_penalty 15
rob_size 352
lq_size 128
sq_size 72
ifetch_buffer_size 64
decode_buffer_size 32
dispatch_buffer_size 32
register_file_size 288
decode_latency 1
dispatch_latency 1
schedule_latency 1
execute_latency 1
page_size 4096
block_size 64
core_0_itlb_set 16
core_0_itlb_way 4
core_0_itlb_rq_size 16
core_0_itlb_wq_size 16
core_0_itlb_pq_size 0
core_0_itlb_mshr_size 8
core_0_itlb_hit_latency 1
core_0_itlb_fill_latency 1
core_0_itlb_max_tag_check 2
core_0_itlb_max_fill 2
core_0_dtlb_set 16
core_0_dtlb_way 4
core_0_dtlb_rq_size 16
core_0_dtlb_wq_size 16
core_0_dtlb_pq_size 0
core_0_dtlb_mshr_size 8
core_0_dtlb_hit_latency 1
core_0_dtlb_fill_latency 1
core_0_dtlb_max_tag_check 2
core_0_dtlb_max_fill 2
core_0_stlb_set 128
core_0_stlb_way 12
core_0_stlb_rq_size 32
core_0_stlb_wq_size 32
core_0_stlb_pq_size 0
core_0_stlb_mshr_size 16
core_0_stlb_hit_latency 4
core_0_stlb_fill_latency 4
core_0_stlb_max_tag_check 1
core_0_stlb_max_fill 1
core_0_l1i_set 64
core_0_l1i_way 8
core_0_l1i_rq_size 64
core_0_l1i_wq_size 64
core_0_l1i_pq_size 32
core_0_l1i_mshr_size 8
core_0_l1i_hit_latency 2
core_0_l1i_fill_latency 2
core_0_l1i_max_tag_check 2
core_0_l1i_max_fill 2
core_0_l1d_set 64
core_0_l1d_way 12
core_0_l1d_rq_size 64
core_0_l1d_wq_size 64
core_0_l1d_pq_size 8
core_0_l1d_mshr_size 16
core_0_l1d_hit_latency 2
core_0_l1d_fill_latency 3
core_0_l1d_max_tag_check 2
core_0_l1d_max_fill 2
core_0_l2c_set 1024
core_0_l2c_way 8
core_0_l2c_rq_size 32
core_0_l2c_wq_size 32
core_0_l2c_pq_size 16
core_0_l2c_mshr_size 32
core_0_l2c_hit_latency 5
core_0_l2c_fill_latency 5
core_0_l2c_max_tag_check 1
core_0_l2c_max_fill 1
llc_set 2048
llc_way 16
llc_rq_size 32
llc_wq_size 32
llc_pq_size 32
llc_mshr_size 64
llc_hit_latency 10
llc_fill_latency 10
llc_max_tag_check 1
llc_max_fill 1
dram_channels 1
dram_ranks 1
dram_bankgroups 8
dram_banks 4
dram_rows 65536
dram_columns 1024
dram_channel_width 8
dram_rq_size 64
dram_wq_size 64
dram_size 17179869184
core_0_itlb_prefetcher no
core_0_dtlb_prefetcher no
core_0_stlb_prefetcher no
core_0_l1i_prefetcher next_line
core_0_l1d_prefetcher berti
core_0_l2c_prefetcher ip_stride
llc_prefetcher no
llc_replacement drrip

Core_0_instructions 50000005
Core_0_cycles 33443340
Core_0_IPC 1.49507
Core_0_branch_prediction_accuracy 99.8663
Core_0_branch_MPKI 0.1732
Core_0_average_ROB_occupancy_at_mispredict 285.805

Core_0_ITLB_total_access 6204898
Core_0_ITLB_total_hit 6204898
Core_0_ITLB_total_miss 0
Core_0_ITLB_total_MPKI 0
Core_0_ITLB_total_miss_rate 0
Core_0_ITLB_demand_access 6204898
Core_0_ITLB_demand_hit 6204898
Core_0_ITLB_demand_miss 0
Core_0_ITLB_demand_MPKI 0
Core_0_ITLB_demand_miss_rate 0
Core_0_ITLB_load_access 6204898
Core_0_ITLB_load_hit 6204898
Core_0_ITLB_load_miss 0
Core_0_ITLB_load_MPKI 0
Core_0_ITLB_load_miss_rate 0
Core_0_ITLB_rfo_access 0
Core_0_ITLB_rfo_hit 0
Core_0_ITLB_rfo_miss 0
Core_0_ITLB_rfo_MPKI 0
Core_0_ITLB_rfo_miss_rate 0
Core_0_ITLB_prefetch_access 0
Core_0_ITLB_prefetch_hit 0
Core_0_ITLB_prefetch_miss 0
Core_0_ITLB_prefetch_MPKI 0
Core_0_ITLB_prefetch_miss_rate 0
Core_0_ITLB_writeback_access 0
Core_0_ITLB_writeback_hit 0
Core_0_ITLB_writeback_miss 0
Core_0_ITLB_writeback_MPKI 0
Core_0_ITLB_writeback_miss_rate 0
Core_0_ITLB_prefetch_requested 0
Core_0_ITLB_prefetch_issued 0
Core_0_ITLB_prefetch_useful 0
Core_0_ITLB_prefetch_useless 0
Core_0_ITLB_prefetch_late 0
Core_0_ITLB_prefetch_accuracy 0
Core_0_ITLB_prefetch_coverage 0

Core_0_DTLB_total_access 8338131
Core_0_DTLB_total_hit 8187848
Core_0_DTLB_total_miss 150283
Core_0_DTLB_total_MPKI 3.00566
Core_0_DTLB_total_miss_rate 0.0180236
Core_0_DTLB_demand_access 8338131
Core_0_DTLB_demand_hit 8187848
Core_0_DTLB_demand_miss 150283
Core_0_DTLB_demand_MPKI 3.00566
Core_0_DTLB_demand_miss_rate 0.0180236
Core_0_DTLB_load_access 8338131
Core_0_DTLB_load_hit 8187848
Core_0_DTLB_load_miss 150283
Core_0_DTLB_load_MPKI 3.00566
Core_0_DTLB_load_miss_rate 0.0180236
Core_0_DTLB_rfo_access 0
Core_0_DTLB_rfo_hit 0
Core_0_DTLB_rfo_miss 0
Core_0_DTLB_rfo_MPKI 0
Core_0_DTLB_rfo_miss_rate 0
Core_0_DTLB_prefetch_access 0
Core_0_DTLB_prefetch_hit 0
Core_0_DTLB_prefetch_miss 0
Core_0_DTLB_prefetch_MPKI 0
Core_0_DTLB_prefetch_miss_rate 0
Core_0_DTLB_writeback_access 0
Core_0_DTLB_writeback_hit 0
Core_0_DTLB_writeback_miss 0
Core_0_DTLB_writeback_MPKI 0
Core_0_DTLB_writeback_miss_rate 0
Core_0_DTLB_prefetch_requested 0
Core_0_DTLB_prefetch_issued 0
Core_0_DTLB_prefetch_useful 0
Core_0_DTLB_prefetch_useless 0
Core_0_DTLB_prefetch_late 0
Core_0_DTLB_prefetch_accuracy 0
Core_0_DTLB_prefetch_coverage 0

Core_0_STLB_total_access 16381
Core_0_STLB_total_hit 65
Core_0_STLB_total_miss 16316
Core_0_STLB_total_MPKI 0.32632
Core_0_STLB_total_miss_rate 0.996032
Core_0_STLB_demand_access 16381
Core_0_STLB_demand_hit 65
Core_0_STLB_demand_miss 16316
Core_0_STLB_demand_MPKI 0.32632
Core_0_STLB_demand_miss_rate 0.996032
Core_0_STLB_load_access 16381
Core_0_STLB_load_hit 65
Core_0_STLB_load_miss 16316
Core_0_STLB_load_MPKI 0.32632
Core_0_STLB_load_miss_rate 0.996032
Core_0_STLB_rfo_access 0
Core_0_STLB_rfo_hit 0
Core_0_STLB_rfo_miss 0
Core_0_STLB_rfo_MPKI 0
Core_0_STLB_rfo_miss_rate 0
Core_0_STLB_prefetch_access 0
Core_0_STLB_prefetch_hit 0
Core_0_STLB_prefetch_miss 0
Core_0_STLB_prefetch_MPKI 0
Core_0_STLB_prefetch_miss_rate 0
Core_0_STLB_writeback_access 0
Core_0_STLB_writeback_hit 0
Core_0_STLB_writeback_miss 0
Core_0_STLB_writeback_MPKI 0
Core_0_STLB_writeback_miss_rate 0
Core_0_STLB_prefetch_requested 0
Core_0_STLB_prefetch_issued 0
Core_0_STLB_prefetch_useful 0
Core_0_STLB_prefetch_useless 0
Core_0_STLB_prefetch_late 0
Core_0_STLB_prefetch_accuracy 0
Core_0_STLB_prefetch_coverage 0

Core_0_L1I_total_access 6879176
Core_0_L1I_total_hit 6879170
Core_0_L1I_total_miss 6
Core_0_L1I_total_MPKI 0.00012
Core_0_L1I_total_miss_rate 8.72197e-07
Core_0_L1I_demand_access 6879176
Core_0_L1I_demand_hit 6879170
Core_0_L1I_demand_miss 6
Core_0_L1I_demand_MPKI 0.00012
Core_0_L1I_demand_miss_rate 8.72197e-07
Core_0_L1I_load_access 6879176
Core_0_L1I_load_hit 6879170
Core_0_L1I_load_miss 6
Core_0_L1I_load_MPKI 0.00012
Core_0_L1I_load_miss_rate 8.72197e-07
Core_0_L1I_rfo_access 0
Core_0_L1I_rfo_hit 0
Core_0_L1I_rfo_miss 0
Core_0_L1I_rfo_MPKI 0
Core_0_L1I_rfo_miss_rate 0
Core_0_L1I_prefetch_access 0
Core_0_L1I_prefetch_hit 0
Core_0_L1I_prefetch_miss 0
Core_0_L1I_prefetch_MPKI 0
Core_0_L1I_prefetch_miss_rate 0
Core_0_L1I_writeback_access 0
Core_0_L1I_writeback_hit 0
Core_0_L1I_writeback_miss 0
Core_0_L1I_writeback_MPKI 0
Core_0_L1I_writeback_miss_rate 0
Core_0_L1I_prefetch_requested 0
Core_0_L1I_prefetch_issued 0
Core_0_L1I_prefetch_useful 0
Core_0_L1I_prefetch_useless 0
Core_0_L1I_prefetch_late 0
Core_0_L1I_prefetch_accuracy 0
Core_0_L1I_prefetch_coverage 0

Core_0_L1D_total_access 9169925
Core_0_L1D_total_hit 6916807
Core_0_L1D_total_miss 2253118
Core_0_L1D_total_MPKI 45.0624
Core_0_L1D_total_miss_rate 0.245707
Core_0_L1D_demand_access 6027021
Core_0_L1D_demand_hit 4724605
Core_0_L1D_demand_miss 1302416
Core_0_L1D_demand_MPKI 26.0483
Core_0_L1D_demand_miss_rate 0.216096
Core_0_L1D_load_access 6027021
Core_0_L1D_load_hit 4724605
Core_0_L1D_load_miss 1302416
Core_0_L1D_load_MPKI 26.0483
Core_0_L1D_load_miss_rate 0.216096
Core_0_L1D_rfo_access 0
Core_0_L1D_rfo_hit 0
Core_0_L1D_rfo_miss 0
Core_0_L1D_rfo_MPKI 0
Core_0_L1D_rfo_miss_rate 0
Core_0_L1D_prefetch_access 960213
Core_0_L1D_prefetch_hit 10485
Core_0_L1D_prefetch_miss 949728
Core_0_L1D_prefetch_MPKI 18.9946
Core_0_L1D_prefetch_miss_rate 0.989081
Core_0_L1D_writeback_access 2182691
Core_0_L1D_writeback_hit 2181717
Core_0_L1D_writeback_miss 974
Core_0_L1D_writeback_MPKI 0.01948
Core_0_L1D_writeback_miss_rate 0.000446238
Core_0_L1D_prefetch_requested 1049543
Core_0_L1D_prefetch_issued 960206
Core_0_L1D_prefetch_useful 922599
Core_0_L1D_prefetch_useless 500
Core_0_L1D_prefetch_late 168462
Core_0_L1D_prefetch_accuracy 0.960834
Core_0_L1D_prefetch_coverage 0.414648

Core_0_L2C_total_access 2391340
Core_0_L2C_total_hit 384412
Core_0_L2C_total_miss 2006928
Core_0_L2C_total_MPKI 40.1386
Core_0_L2C_total_miss_rate 0.839248
Core_0_L2C_demand_access 122117
Core_0_L2C_demand_hit 11331
Core_0_L2C_demand_miss 110786
Core_0_L2C_demand_MPKI 2.21572
Core_0_L2C_demand_miss_rate 0.907212
Core_0_L2C_load_access 121617
Core_0_L2C_load_hit 10832
Core_0_L2C_load_miss 110785
Core_0_L2C_load_MPKI 2.2157
Core_0_L2C_load_miss_rate 0.910934
Core_0_L2C_rfo_access 500
Core_0_L2C_rfo_hit 499
Core_0_L2C_rfo_miss 1
Core_0_L2C_rfo_MPKI 2e-05
Core_0_L2C_rfo_miss_rate 0.002
Core_0_L2C_prefetch_access 1956875
Core_0_L2C_prefetch_hit 60735
Core_0_L2C_prefetch_miss 1896140
Core_0_L2C_prefetch_MPKI 37.9228
Core_0_L2C_prefetch_miss_rate 0.968963
Core_0_L2C_writeback_access 312348
Core_0_L2C_writeback_hit 312346
Core_0_L2C_writeback_miss 2
Core_0_L2C_writeback_MPKI 4e-05
Core_0_L2C_writeback_miss_rate 6.40311e-06
Core_0_L2C_prefetch_requested 1033769
Core_0_L2C_prefetch_issued 1033769
Core_0_L2C_prefetch_useful 51251
Core_0_L2C_prefetch_useless 290205
Core_0_L2C_prefetch_late 12380
Core_0_L2C_prefetch_accuracy 0.0495768
Core_0_L2C_prefetch_coverage 0.316292

Core_0_LLC_total_access 1363160
Core_0_LLC_total_hit 279489
Core_0_LLC_total_miss 1083671
Core_0_LLC_total_MPKI 21.6734
Core_0_LLC_total_miss_rate 0.79497
Core_0_LLC_demand_access 98406
Core_0_LLC_demand_hit 343
Core_0_LLC_demand_miss 98063
Core_0_LLC_demand_MPKI 1.96126
Core_0_LLC_demand_miss_rate 0.996514
Core_0_LLC_load_access 98405
Core_0_LLC_load_hit 343
Core_0_LLC_load_miss 98062
Core_0_LLC_load_MPKI 1.96124
Core_0_LLC_load_miss_rate 0.996514
Core_0_LLC_rfo_access 1
Core_0_LLC_rfo_hit 0
Core_0_LLC_rfo_miss 1
Core_0_LLC_rfo_MPKI 2e-05
Core_0_LLC_rfo_miss_rate 1
Core_0_LLC_prefetch_access 949344
Core_0_LLC_prefetch_hit 1321
Core_0_LLC_prefetch_miss 948023
Core_0_LLC_prefetch_MPKI 18.9605
Core_0_LLC_prefetch_miss_rate 0.998609
Core_0_LLC_writeback_access 315410
Core_0_LLC_writeback_hit 277825
Core_0_LLC_writeback_miss 37585
Core_0_LLC_writeback_MPKI 0.7517
Core_0_LLC_writeback_miss_rate 0.119162
Core_0_LLC_prefetch_requested 0
Core_0_LLC_prefetch_issued 0
Core_0_LLC_prefetch_useful 0
Core_0_LLC_prefetch_useless 0
Core_0_LLC_prefetch_late 0
Core_0_LLC_prefetch_accuracy 0
Core_0_LLC_prefetch_coverage 0

[DRAM Statistics]
Channel_0_RQ_row_buffer_hit 209345
Channel_0_RQ_row_buffer_miss 836883
Channel_0_WQ_row_buffer_hit 43968
Channel_0_WQ_row_buffer_miss 285188
Channel_0_WQ_full 0
Channel_0_dbus_congested 3842178
DRAM_total_RQ_row_buffer_hit 209345
DRAM_total_RQ_row_buffer_miss 836883
DRAM_total_WQ_row_buffer_hit 43968
DRAM_total_WQ_row_buffer_miss 285188
DRAM_total_WQ_full 0
DRAM_total_dbus_congested 3842178
DRAM_avg_congested_cycle 5.859

======STLB miss causes ========
Core_0_STLB_miss_cause_breakdown
Core_0_STLB_cause_Demand_Data_miss 16314
Core_0_STLB_cause_Demand_Data_miss_rate 0.99591
Core_0_STLB_cause_Demand_Instruction_miss 0
Core_0_STLB_cause_Demand_Instruction_miss_rate 0
Core_0_STLB_cause_L1D_Prefetch_miss 2
Core_0_STLB_cause_L1D_Prefetch_miss_rate 0.000122093
Core_0_STLB_cause_L1I_Prefetch_miss 0
Core_0_STLB_cause_L1I_Prefetch_miss_rate 0
Core_0_STLB_cause_Other_miss 0
Core_0_STLB_cause_Other_miss_rate 0
Core_0_STLB_Demand_miss 16314
Core_0_STLB_Demand_miss_rate 0.99591
Core_0_STLB_L1D_Prefetch_miss 2
Core_0_STLB_L1D_Prefetch_miss_rate 0.000122093
Core_0_STLB_Other_miss 0
Core_0_STLB_Other_miss_rate 0
