[VMEM] WARNING: physical memory size is smaller than virtual memory size.

*** ChampSim Multicore Out-of-Order Simulator ***
Warmup Instructions: 20000000
Simulation Instructions: 50000000
Number of CPUs: 1
Page size: 4096
STLB ideal mode: off
Core 0: /data0/tzh/champsim_traces/SPEC17/603.bwaves_s-2931B.champsimtrace.xz
 L1D Berti prefetcher
Off-chip DRAM Size: 16 GiB Channels: 1 Width: 64-bit Data Rate: 3205 MT/s
Warmup halting CPU 0 at instruction 20000002 cycle 4985266 for remainder of phase
Warmup finished CPU 0 instructions: 20000002 cycles: 4985266 cumulative IPC: 4.012 (Simulation time: 00 hr 01 min 02 sec)
Warmup complete CPU 0 instructions: 20000002 cycles: 4985266 cumulative IPC: 4.012 (Simulation time: 00 hr 01 min 02 sec)
Simulation finished CPU 0 instructions: 50000003 cycles: 30003627 cumulative IPC: 1.666 (Simulation time: 00 hr 05 min 50 sec)
Simulation complete CPU 0 instructions: 50000003 cycles: 30003627 cumulative IPC: 1.666 (Simulation time: 00 hr 05 min 50 sec)

ChampSim completed all CPUs

=== Simulation ===
CPU 0 runs /data0/tzh/champsim_traces/SPEC17/603.bwaves_s-2931B.champsimtrace.xz

Region of Interest Statistics

CPU 0 cumulative IPC: 1.666 instructions: 50000003 cycles: 30003627
CPU 0 Branch Prediction Accuracy: 99.97% MPKI: 0.00262 Average ROB Occupancy at Mispredict: 343.6
Branch type MPKI
BRANCH_DIRECT_JUMP: 0
BRANCH_INDIRECT: 0
BRANCH_CONDITIONAL: 0.00262
BRANCH_DIRECT_CALL: 0
BRANCH_INDIRECT_CALL: 0
BRANCH_RETURN: 0

cpu0->cpu0_STLB TOTAL        ACCESS:      58820 HIT:      48172 MISS:      10648 MSHR_MERGE:          0
cpu0->cpu0_STLB LOAD         ACCESS:      58820 HIT:      48172 MISS:      10648 MSHR_MERGE:          0
cpu0->cpu0_STLB RFO          ACCESS:          0 HIT:          0 MISS:          0 MSHR_MERGE:          0
cpu0->cpu0_STLB PREFETCH     ACCESS:          0 HIT:          0 MISS:          0 MSHR_MERGE:          0
cpu0->cpu0_STLB WRITE        ACCESS:          0 HIT:          0 MISS:          0 MSHR_MERGE:          0
cpu0->cpu0_STLB TRANSLATION  ACCESS:          0 HIT:          0 MISS:          0 MSHR_MERGE:          0
cpu0->cpu0_STLB PREFETCH REQUESTED:          0 ISSUED:          0 USEFUL:          0 USELESS:          0 LATE:          0
cpu0->cpu0_STLB AVERAGE MISS LATENCY: 262 cycles
cpu0->cpu0_L2C TOTAL        ACCESS:    1339353 HIT:     593229 MISS:     746124 MSHR_MERGE:       7085
cpu0->cpu0_L2C LOAD         ACCESS:     124687 HIT:      74841 MISS:      49846 MSHR_MERGE:        217
cpu0->cpu0_L2C RFO          ACCESS:     308350 HIT:      10661 MISS:     297689 MSHR_MERGE:          0
cpu0->cpu0_L2C PREFETCH     ACCESS:     584527 HIT:     187352 MISS:     397175 MSHR_MERGE:       6868
cpu0->cpu0_L2C WRITE        ACCESS:     311192 HIT:     311157 MISS:         35 MSHR_MERGE:          0
cpu0->cpu0_L2C TRANSLATION  ACCESS:      10597 HIT:       9218 MISS:       1379 MSHR_MERGE:          0
cpu0->cpu0_L2C PREFETCH REQUESTED:     190388 ISSUED:     190388 USEFUL:      71017 USELESS:       2111 LATE:        217
cpu0->cpu0_L2C AVERAGE MISS LATENCY: 356.5 cycles
cpu0->cpu0_L1I TOTAL        ACCESS:    8870600 HIT:    8870592 MISS:          8 MSHR_MERGE:          1
cpu0->cpu0_L1I LOAD         ACCESS:    8870600 HIT:    8870592 MISS:          8 MSHR_MERGE:          1
cpu0->cpu0_L1I RFO          ACCESS:          0 HIT:          0 MISS:          0 MSHR_MERGE:          0
cpu0->cpu0_L1I PREFETCH     ACCESS:          0 HIT:          0 MISS:          0 MSHR_MERGE:          0
cpu0->cpu0_L1I WRITE        ACCESS:          0 HIT:          0 MISS:          0 MSHR_MERGE:          0
cpu0->cpu0_L1I TRANSLATION  ACCESS:          0 HIT:          0 MISS:          0 MSHR_MERGE:          0
cpu0->cpu0_L1I PREFETCH REQUESTED:          0 ISSUED:          0 USEFUL:          0 USELESS:          0 LATE:          0
cpu0->cpu0_L1I AVERAGE MISS LATENCY: 256.6 cycles
cpu0->cpu0_L1D TOTAL        ACCESS:   15993726 HIT:   13736740 MISS:    2256986 MSHR_MERGE:    1418922
cpu0->cpu0_L1D LOAD         ACCESS:    6666952 HIT:    6485917 MISS:     181035 MSHR_MERGE:      56354
cpu0->cpu0_L1D RFO          ACCESS:          0 HIT:          0 MISS:          0 MSHR_MERGE:          0
cpu0->cpu0_L1D PREFETCH     ACCESS:     548289 HIT:     129210 MISS:     419079 MSHR_MERGE:      24943
cpu0->cpu0_L1D WRITE        ACCESS:    8757162 HIT:    7110889 MISS:    1646273 MSHR_MERGE:    1337623
cpu0->cpu0_L1D TRANSLATION  ACCESS:      21323 HIT:      10724 MISS:      10599 MSHR_MERGE:          2
cpu0->cpu0_L1D PREFETCH REQUESTED:     548708 ISSUED:     548281 USEFUL:     393095 USELESS:       1022 LATE:      20277
cpu0->cpu0_L1D AVERAGE MISS LATENCY: 286.1 cycles
cpu0->cpu0_ITLB TOTAL        ACCESS:    6784111 HIT:    6784111 MISS:          0 MSHR_MERGE:          0
cpu0->cpu0_ITLB LOAD         ACCESS:    6784111 HIT:    6784111 MISS:          0 MSHR_MERGE:          0
cpu0->cpu0_ITLB RFO          ACCESS:          0 HIT:          0 MISS:          0 MSHR_MERGE:          0
cpu0->cpu0_ITLB PREFETCH     ACCESS:          0 HIT:          0 MISS:          0 MSHR_MERGE:          0
cpu0->cpu0_ITLB WRITE        ACCESS:          0 HIT:          0 MISS:          0 MSHR_MERGE:          0
cpu0->cpu0_ITLB TRANSLATION  ACCESS:          0 HIT:          0 MISS:          0 MSHR_MERGE:          0
cpu0->cpu0_ITLB PREFETCH REQUESTED:          0 ISSUED:          0 USEFUL:          0 USELESS:          0 LATE:          0
cpu0->cpu0_ITLB AVERAGE MISS LATENCY: - cycles
cpu0->cpu0_DTLB TOTAL        ACCESS:   14656703 HIT:   14586831 MISS:      69872 MSHR_MERGE:      11052
cpu0->cpu0_DTLB LOAD         ACCESS:   14656703 HIT:   14586831 MISS:      69872 MSHR_MERGE:      11052
cpu0->cpu0_DTLB RFO          ACCESS:          0 HIT:          0 MISS:          0 MSHR_MERGE:          0
cpu0->cpu0_DTLB PREFETCH     ACCESS:          0 HIT:          0 MISS:          0 MSHR_MERGE:          0
cpu0->cpu0_DTLB WRITE        ACCESS:          0 HIT:          0 MISS:          0 MSHR_MERGE:          0
cpu0->cpu0_DTLB TRANSLATION  ACCESS:          0 HIT:          0 MISS:          0 MSHR_MERGE:          0
cpu0->cpu0_DTLB PREFETCH REQUESTED:          0 ISSUED:          0 USEFUL:          0 USELESS:          0 LATE:          0
cpu0->cpu0_DTLB AVERAGE MISS LATENCY: 52.63 cycles
cpu0->LLC TOTAL        ACCESS:    1036759 HIT:     310510 MISS:     726249 MSHR_MERGE:        229
cpu0->LLC LOAD         ACCESS:      49629 HIT:       4508 MISS:      45121 MSHR_MERGE:         15
cpu0->LLC RFO          ACCESS:     297689 HIT:          0 MISS:     297689 MSHR_MERGE:          0
cpu0->LLC PREFETCH     ACCESS:     390307 HIT:      44311 MISS:     345996 MSHR_MERGE:        214
cpu0->LLC WRITE        ACCESS:     297755 HIT:     261681 MISS:      36074 MSHR_MERGE:          0
cpu0->LLC TRANSLATION  ACCESS:       1379 HIT:         10 MISS:       1369 MSHR_MERGE:          0
cpu0->LLC PREFETCH REQUESTED:          0 ISSUED:          0 USEFUL:          0 USELESS:          0 LATE:          0
cpu0->LLC AVERAGE MISS LATENCY: 313.2 cycles

DRAM Statistics

Channel 0 RQ ROW_BUFFER_HIT:      12547
  ROW_BUFFER_MISS:     677392
  AVG DBUS CONGESTED CYCLE: 6.139
Channel 0 WQ ROW_BUFFER_HIT:      43727
  ROW_BUFFER_MISS:     253853
  FULL:          0
Channel 0 REFRESHES ISSUED:       2500

[ROI Statistics]
[System Configuration]
num_cpus 1
cpu_freq 4000
fetch_width 6
decode_width 6
dispatch_width 6
execute_width 6
lq_width 2
sq_width 2
retire_width 6
scheduler_size 128
branch_mispredict_penalty 15
rob_size 352
lq_size 128
sq_size 72
ifetch_buffer_size 64
decode_buffer_size 32
dispatch_buffer_size 32
register_file_size 288
decode_latency 1
dispatch_latency 1
schedule_latency 1
execute_latency 1
page_size 4096
block_size 64
core_0_itlb_set 16
core_0_itlb_way 4
core_0_itlb_rq_size 16
core_0_itlb_wq_size 16
core_0_itlb_pq_size 0
core_0_itlb_mshr_size 8
core_0_itlb_hit_latency 1
core_0_itlb_fill_latency 1
core_0_itlb_max_tag_check 2
core_0_itlb_max_fill 2
core_0_dtlb_set 16
core_0_dtlb_way 4
core_0_dtlb_rq_size 16
core_0_dtlb_wq_size 16
core_0_dtlb_pq_size 0
core_0_dtlb_mshr_size 8
core_0_dtlb_hit_latency 1
core_0_dtlb_fill_latency 1
core_0_dtlb_max_tag_check 2
core_0_dtlb_max_fill 2
core_0_stlb_set 128
core_0_stlb_way 12
core_0_stlb_rq_size 32
core_0_stlb_wq_size 32
core_0_stlb_pq_size 0
core_0_stlb_mshr_size 16
core_0_stlb_hit_latency 4
core_0_stlb_fill_latency 4
core_0_stlb_max_tag_check 1
core_0_stlb_max_fill 1
core_0_l1i_set 64
core_0_l1i_way 8
core_0_l1i_rq_size 64
core_0_l1i_wq_size 64
core_0_l1i_pq_size 32
core_0_l1i_mshr_size 8
core_0_l1i_hit_latency 2
core_0_l1i_fill_latency 2
core_0_l1i_max_tag_check 2
core_0_l1i_max_fill 2
core_0_l1d_set 64
core_0_l1d_way 12
core_0_l1d_rq_size 64
core_0_l1d_wq_size 64
core_0_l1d_pq_size 8
core_0_l1d_mshr_size 16
core_0_l1d_hit_latency 2
core_0_l1d_fill_latency 3
core_0_l1d_max_tag_check 2
core_0_l1d_max_fill 2
core_0_l2c_set 1024
core_0_l2c_way 8
core_0_l2c_rq_size 32
core_0_l2c_wq_size 32
core_0_l2c_pq_size 16
core_0_l2c_mshr_size 32
core_0_l2c_hit_latency 5
core_0_l2c_fill_latency 5
core_0_l2c_max_tag_check 1
core_0_l2c_max_fill 1
llc_set 2048
llc_way 16
llc_rq_size 32
llc_wq_size 32
llc_pq_size 32
llc_mshr_size 64
llc_hit_latency 10
llc_fill_latency 10
llc_max_tag_check 1
llc_max_fill 1
dram_channels 1
dram_ranks 1
dram_bankgroups 8
dram_banks 4
dram_rows 65536
dram_columns 1024
dram_channel_width 8
dram_rq_size 64
dram_wq_size 64
dram_size 17179869184
core_0_itlb_prefetcher no
core_0_dtlb_prefetcher no
core_0_stlb_prefetcher no
core_0_l1i_prefetcher next_line
core_0_l1d_prefetcher berti
core_0_l2c_prefetcher ip_stride
llc_prefetcher no
llc_replacement drrip

Core_0_instructions 50000003
Core_0_cycles 30003627
Core_0_IPC 1.66647
Core_0_branch_prediction_accuracy 99.969
Core_0_branch_MPKI 0.00262
Core_0_average_ROB_occupancy_at_mispredict 343.58

Core_0_ITLB_total_access 6784111
Core_0_ITLB_total_hit 6784111
Core_0_ITLB_total_miss 0
Core_0_ITLB_total_MPKI 0
Core_0_ITLB_total_miss_rate 0
Core_0_ITLB_demand_access 6784111
Core_0_ITLB_demand_hit 6784111
Core_0_ITLB_demand_miss 0
Core_0_ITLB_demand_MPKI 0
Core_0_ITLB_demand_miss_rate 0
Core_0_ITLB_load_access 6784111
Core_0_ITLB_load_hit 6784111
Core_0_ITLB_load_miss 0
Core_0_ITLB_load_MPKI 0
Core_0_ITLB_load_miss_rate 0
Core_0_ITLB_rfo_access 0
Core_0_ITLB_rfo_hit 0
Core_0_ITLB_rfo_miss 0
Core_0_ITLB_rfo_MPKI 0
Core_0_ITLB_rfo_miss_rate 0
Core_0_ITLB_prefetch_access 0
Core_0_ITLB_prefetch_hit 0
Core_0_ITLB_prefetch_miss 0
Core_0_ITLB_prefetch_MPKI 0
Core_0_ITLB_prefetch_miss_rate 0
Core_0_ITLB_writeback_access 0
Core_0_ITLB_writeback_hit 0
Core_0_ITLB_writeback_miss 0
Core_0_ITLB_writeback_MPKI 0
Core_0_ITLB_writeback_miss_rate 0
Core_0_ITLB_prefetch_requested 0
Core_0_ITLB_prefetch_issued 0
Core_0_ITLB_prefetch_useful 0
Core_0_ITLB_prefetch_useless 0
Core_0_ITLB_prefetch_late 0
Core_0_ITLB_prefetch_accuracy 0
Core_0_ITLB_prefetch_coverage 0

Core_0_DTLB_total_access 14656703
Core_0_DTLB_total_hit 14586831
Core_0_DTLB_total_miss 69872
Core_0_DTLB_total_MPKI 1.39744
Core_0_DTLB_total_miss_rate 0.00476724
Core_0_DTLB_demand_access 14656703
Core_0_DTLB_demand_hit 14586831
Core_0_DTLB_demand_miss 69872
Core_0_DTLB_demand_MPKI 1.39744
Core_0_DTLB_demand_miss_rate 0.00476724
Core_0_DTLB_load_access 14656703
Core_0_DTLB_load_hit 14586831
Core_0_DTLB_load_miss 69872
Core_0_DTLB_load_MPKI 1.39744
Core_0_DTLB_load_miss_rate 0.00476724
Core_0_DTLB_rfo_access 0
Core_0_DTLB_rfo_hit 0
Core_0_DTLB_rfo_miss 0
Core_0_DTLB_rfo_MPKI 0
Core_0_DTLB_rfo_miss_rate 0
Core_0_DTLB_prefetch_access 0
Core_0_DTLB_prefetch_hit 0
Core_0_DTLB_prefetch_miss 0
Core_0_DTLB_prefetch_MPKI 0
Core_0_DTLB_prefetch_miss_rate 0
Core_0_DTLB_writeback_access 0
Core_0_DTLB_writeback_hit 0
Core_0_DTLB_writeback_miss 0
Core_0_DTLB_writeback_MPKI 0
Core_0_DTLB_writeback_miss_rate 0
Core_0_DTLB_prefetch_requested 0
Core_0_DTLB_prefetch_issued 0
Core_0_DTLB_prefetch_useful 0
Core_0_DTLB_prefetch_useless 0
Core_0_DTLB_prefetch_late 0
Core_0_DTLB_prefetch_accuracy 0
Core_0_DTLB_prefetch_coverage 0

Core_0_STLB_total_access 58820
Core_0_STLB_total_hit 48172
Core_0_STLB_total_miss 10648
Core_0_STLB_total_MPKI 0.21296
Core_0_STLB_total_miss_rate 0.181027
Core_0_STLB_demand_access 58820
Core_0_STLB_demand_hit 48172
Core_0_STLB_demand_miss 10648
Core_0_STLB_demand_MPKI 0.21296
Core_0_STLB_demand_miss_rate 0.181027
Core_0_STLB_load_access 58820
Core_0_STLB_load_hit 48172
Core_0_STLB_load_miss 10648
Core_0_STLB_load_MPKI 0.21296
Core_0_STLB_load_miss_rate 0.181027
Core_0_STLB_rfo_access 0
Core_0_STLB_rfo_hit 0
Core_0_STLB_rfo_miss 0
Core_0_STLB_rfo_MPKI 0
Core_0_STLB_rfo_miss_rate 0
Core_0_STLB_prefetch_access 0
Core_0_STLB_prefetch_hit 0
Core_0_STLB_prefetch_miss 0
Core_0_STLB_prefetch_MPKI 0
Core_0_STLB_prefetch_miss_rate 0
Core_0_STLB_writeback_access 0
Core_0_STLB_writeback_hit 0
Core_0_STLB_writeback_miss 0
Core_0_STLB_writeback_MPKI 0
Core_0_STLB_writeback_miss_rate 0
Core_0_STLB_prefetch_requested 0
Core_0_STLB_prefetch_issued 0
Core_0_STLB_prefetch_useful 0
Core_0_STLB_prefetch_useless 0
Core_0_STLB_prefetch_late 0
Core_0_STLB_prefetch_accuracy 0
Core_0_STLB_prefetch_coverage 0

Core_0_L1I_total_access 8870600
Core_0_L1I_total_hit 8870592
Core_0_L1I_total_miss 8
Core_0_L1I_total_MPKI 0.00016
Core_0_L1I_total_miss_rate 9.01856e-07
Core_0_L1I_demand_access 8870600
Core_0_L1I_demand_hit 8870592
Core_0_L1I_demand_miss 8
Core_0_L1I_demand_MPKI 0.00016
Core_0_L1I_demand_miss_rate 9.01856e-07
Core_0_L1I_load_access 8870600
Core_0_L1I_load_hit 8870592
Core_0_L1I_load_miss 8
Core_0_L1I_load_MPKI 0.00016
Core_0_L1I_load_miss_rate 9.01856e-07
Core_0_L1I_rfo_access 0
Core_0_L1I_rfo_hit 0
Core_0_L1I_rfo_miss 0
Core_0_L1I_rfo_MPKI 0
Core_0_L1I_rfo_miss_rate 0
Core_0_L1I_prefetch_access 0
Core_0_L1I_prefetch_hit 0
Core_0_L1I_prefetch_miss 0
Core_0_L1I_prefetch_MPKI 0
Core_0_L1I_prefetch_miss_rate 0
Core_0_L1I_writeback_access 0
Core_0_L1I_writeback_hit 0
Core_0_L1I_writeback_miss 0
Core_0_L1I_writeback_MPKI 0
Core_0_L1I_writeback_miss_rate 0
Core_0_L1I_prefetch_requested 0
Core_0_L1I_prefetch_issued 0
Core_0_L1I_prefetch_useful 0
Core_0_L1I_prefetch_useless 0
Core_0_L1I_prefetch_late 0
Core_0_L1I_prefetch_accuracy 0
Core_0_L1I_prefetch_coverage 0

Core_0_L1D_total_access 15972403
Core_0_L1D_total_hit 13726016
Core_0_L1D_total_miss 2246387
Core_0_L1D_total_MPKI 44.9277
Core_0_L1D_total_miss_rate 0.140642
Core_0_L1D_demand_access 6666952
Core_0_L1D_demand_hit 6485917
Core_0_L1D_demand_miss 181035
Core_0_L1D_demand_MPKI 3.6207
Core_0_L1D_demand_miss_rate 0.0271541
Core_0_L1D_load_access 6666952
Core_0_L1D_load_hit 6485917
Core_0_L1D_load_miss 181035
Core_0_L1D_load_MPKI 3.6207
Core_0_L1D_load_miss_rate 0.0271541
Core_0_L1D_rfo_access 0
Core_0_L1D_rfo_hit 0
Core_0_L1D_rfo_miss 0
Core_0_L1D_rfo_MPKI 0
Core_0_L1D_rfo_miss_rate 0
Core_0_L1D_prefetch_access 548289
Core_0_L1D_prefetch_hit 129210
Core_0_L1D_prefetch_miss 419079
Core_0_L1D_prefetch_MPKI 8.38158
Core_0_L1D_prefetch_miss_rate 0.76434
Core_0_L1D_writeback_access 8757162
Core_0_L1D_writeback_hit 7110889
Core_0_L1D_writeback_miss 1646273
Core_0_L1D_writeback_MPKI 32.9255
Core_0_L1D_writeback_miss_rate 0.187992
Core_0_L1D_prefetch_requested 548708
Core_0_L1D_prefetch_issued 548281
Core_0_L1D_prefetch_useful 393095
Core_0_L1D_prefetch_useless 1022
Core_0_L1D_prefetch_late 20277
Core_0_L1D_prefetch_accuracy 0.716959
Core_0_L1D_prefetch_coverage 0.684679

Core_0_L2C_total_access 1328756
Core_0_L2C_total_hit 584011
Core_0_L2C_total_miss 744745
Core_0_L2C_total_MPKI 14.8949
Core_0_L2C_total_miss_rate 0.560483
Core_0_L2C_demand_access 433037
Core_0_L2C_demand_hit 85502
Core_0_L2C_demand_miss 347535
Core_0_L2C_demand_MPKI 6.9507
Core_0_L2C_demand_miss_rate 0.802553
Core_0_L2C_load_access 124687
Core_0_L2C_load_hit 74841
Core_0_L2C_load_miss 49846
Core_0_L2C_load_MPKI 0.99692
Core_0_L2C_load_miss_rate 0.399769
Core_0_L2C_rfo_access 308350
Core_0_L2C_rfo_hit 10661
Core_0_L2C_rfo_miss 297689
Core_0_L2C_rfo_MPKI 5.95378
Core_0_L2C_rfo_miss_rate 0.965426
Core_0_L2C_prefetch_access 584527
Core_0_L2C_prefetch_hit 187352
Core_0_L2C_prefetch_miss 397175
Core_0_L2C_prefetch_MPKI 7.9435
Core_0_L2C_prefetch_miss_rate 0.679481
Core_0_L2C_writeback_access 311192
Core_0_L2C_writeback_hit 311157
Core_0_L2C_writeback_miss 35
Core_0_L2C_writeback_MPKI 0.0007
Core_0_L2C_writeback_miss_rate 0.000112471
Core_0_L2C_prefetch_requested 190388
Core_0_L2C_prefetch_issued 190388
Core_0_L2C_prefetch_useful 71017
Core_0_L2C_prefetch_useless 2111
Core_0_L2C_prefetch_late 217
Core_0_L2C_prefetch_accuracy 0.373012
Core_0_L2C_prefetch_coverage 0.169673

Core_0_LLC_total_access 1035380
Core_0_LLC_total_hit 310500
Core_0_LLC_total_miss 724880
Core_0_LLC_total_MPKI 14.4976
Core_0_LLC_total_miss_rate 0.70011
Core_0_LLC_demand_access 347318
Core_0_LLC_demand_hit 4508
Core_0_LLC_demand_miss 342810
Core_0_LLC_demand_MPKI 6.8562
Core_0_LLC_demand_miss_rate 0.987021
Core_0_LLC_load_access 49629
Core_0_LLC_load_hit 4508
Core_0_LLC_load_miss 45121
Core_0_LLC_load_MPKI 0.90242
Core_0_LLC_load_miss_rate 0.909166
Core_0_LLC_rfo_access 297689
Core_0_LLC_rfo_hit 0
Core_0_LLC_rfo_miss 297689
Core_0_LLC_rfo_MPKI 5.95378
Core_0_LLC_rfo_miss_rate 1
Core_0_LLC_prefetch_access 390307
Core_0_LLC_prefetch_hit 44311
Core_0_LLC_prefetch_miss 345996
Core_0_LLC_prefetch_MPKI 6.91992
Core_0_LLC_prefetch_miss_rate 0.886471
Core_0_LLC_writeback_access 297755
Core_0_LLC_writeback_hit 261681
Core_0_LLC_writeback_miss 36074
Core_0_LLC_writeback_MPKI 0.72148
Core_0_LLC_writeback_miss_rate 0.121153
Core_0_LLC_prefetch_requested 0
Core_0_LLC_prefetch_issued 0
Core_0_LLC_prefetch_useful 0
Core_0_LLC_prefetch_useless 0
Core_0_LLC_prefetch_late 0
Core_0_LLC_prefetch_accuracy 0
Core_0_LLC_prefetch_coverage 0

[DRAM Statistics]
Channel_0_RQ_row_buffer_hit 12547
Channel_0_RQ_row_buffer_miss 677392
Channel_0_WQ_row_buffer_hit 43727
Channel_0_WQ_row_buffer_miss 253853
Channel_0_WQ_full 0
Channel_0_dbus_congested 2811111
DRAM_total_RQ_row_buffer_hit 12547
DRAM_total_RQ_row_buffer_miss 677392
DRAM_total_WQ_row_buffer_hit 43727
DRAM_total_WQ_row_buffer_miss 253853
DRAM_total_WQ_full 0
DRAM_total_dbus_congested 2811111
DRAM_avg_congested_cycle 6.13876

======STLB miss causes ========
Core_0_STLB_miss_cause_breakdown
Core_0_STLB_cause_Demand_Data_miss 6902
Core_0_STLB_cause_Demand_Data_miss_rate 0.117341
Core_0_STLB_cause_Demand_Instruction_miss 0
Core_0_STLB_cause_Demand_Instruction_miss_rate 0
Core_0_STLB_cause_L1D_Prefetch_miss 3746
Core_0_STLB_cause_L1D_Prefetch_miss_rate 0.0636858
Core_0_STLB_cause_L1I_Prefetch_miss 0
Core_0_STLB_cause_L1I_Prefetch_miss_rate 0
Core_0_STLB_cause_Other_miss 0
Core_0_STLB_cause_Other_miss_rate 0
Core_0_STLB_Demand_miss 6902
Core_0_STLB_Demand_miss_rate 0.117341
Core_0_STLB_L1D_Prefetch_miss 3746
Core_0_STLB_L1D_Prefetch_miss_rate 0.0636858
Core_0_STLB_Other_miss 0
Core_0_STLB_Other_miss_rate 0
