[VMEM] WARNING: physical memory size is smaller than virtual memory size.

*** ChampSim Multicore Out-of-Order Simulator ***
Warmup Instructions: 20000000
Simulation Instructions: 50000000
Number of CPUs: 1
Page size: 4096
STLB ideal mode: off
Core 0: /data0/tzh/champsim_traces/SPEC17/619.lbm_s-3766B.champsimtrace.xz
 L1D Berti prefetcher
Off-chip DRAM Size: 16 GiB Channels: 1 Width: 64-bit Data Rate: 3205 MT/s
Warmup halting CPU 0 at instruction 20000005 cycle 4273927 for remainder of phase
Warmup finished CPU 0 instructions: 20000005 cycles: 4273927 cumulative IPC: 4.68 (Simulation time: 00 hr 00 min 51 sec)
Warmup complete CPU 0 instructions: 20000005 cycles: 4273927 cumulative IPC: 4.68 (Simulation time: 00 hr 00 min 51 sec)
Simulation finished CPU 0 instructions: 50000001 cycles: 46499420 cumulative IPC: 1.075 (Simulation time: 00 hr 08 min 05 sec)
Simulation complete CPU 0 instructions: 50000001 cycles: 46499420 cumulative IPC: 1.075 (Simulation time: 00 hr 08 min 05 sec)

ChampSim completed all CPUs

=== Simulation ===
CPU 0 runs /data0/tzh/champsim_traces/SPEC17/619.lbm_s-3766B.champsimtrace.xz

Region of Interest Statistics

CPU 0 cumulative IPC: 1.075 instructions: 50000001 cycles: 46499420
CPU 0 Branch Prediction Accuracy: 99.9% MPKI: 0.0112 Average ROB Occupancy at Mispredict: 341.5
Branch type MPKI
BRANCH_DIRECT_JUMP: 0
BRANCH_INDIRECT: 0
BRANCH_CONDITIONAL: 0.0112
BRANCH_DIRECT_CALL: 0
BRANCH_INDIRECT_CALL: 0
BRANCH_RETURN: 0

cpu0->cpu0_STLB TOTAL        ACCESS:      31105 HIT:      14226 MISS:      16879 MSHR_MERGE:          0
cpu0->cpu0_STLB LOAD         ACCESS:      31105 HIT:      14226 MISS:      16879 MSHR_MERGE:          0
cpu0->cpu0_STLB RFO          ACCESS:          0 HIT:          0 MISS:          0 MSHR_MERGE:          0
cpu0->cpu0_STLB PREFETCH     ACCESS:          0 HIT:          0 MISS:          0 MSHR_MERGE:          0
cpu0->cpu0_STLB WRITE        ACCESS:          0 HIT:          0 MISS:          0 MSHR_MERGE:          0
cpu0->cpu0_STLB TRANSLATION  ACCESS:          0 HIT:          0 MISS:          0 MSHR_MERGE:          0
cpu0->cpu0_STLB PREFETCH REQUESTED:          0 ISSUED:          0 USEFUL:          0 USELESS:          0 LATE:          0
cpu0->cpu0_STLB AVERAGE MISS LATENCY: 289.2 cycles
cpu0->cpu0_L2C TOTAL        ACCESS:    3360226 HIT:    2237317 MISS:    1122909 MSHR_MERGE:      13341
cpu0->cpu0_L2C LOAD         ACCESS:      35250 HIT:       3269 MISS:      31981 MSHR_MERGE:        299
cpu0->cpu0_L2C RFO          ACCESS:    1525340 HIT:     692778 MISS:     832562 MSHR_MERGE:          0
cpu0->cpu0_L2C PREFETCH     ACCESS:     271925 HIT:      15695 MISS:     256230 MSHR_MERGE:      13042
cpu0->cpu0_L2C WRITE        ACCESS:    1525579 HIT:    1525575 MISS:          4 MSHR_MERGE:          0
cpu0->cpu0_L2C TRANSLATION  ACCESS:       2132 HIT:          0 MISS:       2132 MSHR_MERGE:          0
cpu0->cpu0_L2C PREFETCH REQUESTED:      37202 ISSUED:      37202 USEFUL:      13542 USELESS:       6691 LATE:        299
cpu0->cpu0_L2C AVERAGE MISS LATENCY: 552.5 cycles
cpu0->cpu0_L1I TOTAL        ACCESS:    8601334 HIT:    8601334 MISS:          0 MSHR_MERGE:          0
cpu0->cpu0_L1I LOAD         ACCESS:    8601334 HIT:    8601334 MISS:          0 MSHR_MERGE:          0
cpu0->cpu0_L1I RFO          ACCESS:          0 HIT:          0 MISS:          0 MSHR_MERGE:          0
cpu0->cpu0_L1I PREFETCH     ACCESS:          0 HIT:          0 MISS:          0 MSHR_MERGE:          0
cpu0->cpu0_L1I WRITE        ACCESS:          0 HIT:          0 MISS:          0 MSHR_MERGE:          0
cpu0->cpu0_L1I TRANSLATION  ACCESS:          0 HIT:          0 MISS:          0 MSHR_MERGE:          0
cpu0->cpu0_L1I PREFETCH REQUESTED:          0 ISSUED:          0 USEFUL:          0 USELESS:          0 LATE:          0
cpu0->cpu0_L1I AVERAGE MISS LATENCY: - cycles
cpu0->cpu0_L1D TOTAL        ACCESS:    9912667 HIT:    7983866 MISS:    1928801 MSHR_MERGE:     131108
cpu0->cpu0_L1D LOAD         ACCESS:    2238520 HIT:    2140679 MISS:      97841 MSHR_MERGE:      62590
cpu0->cpu0_L1D RFO          ACCESS:          0 HIT:          0 MISS:          0 MSHR_MERGE:          0
cpu0->cpu0_L1D PREFETCH     ACCESS:     249932 HIT:      10306 MISS:     239626 MSHR_MERGE:       4903
cpu0->cpu0_L1D WRITE        ACCESS:    7390441 HIT:    5801239 MISS:    1589202 MSHR_MERGE:      63615
cpu0->cpu0_L1D TRANSLATION  ACCESS:      33774 HIT:      31642 MISS:       2132 MSHR_MERGE:          0
cpu0->cpu0_L1D PREFETCH REQUESTED:     251626 ISSUED:     249933 USEFUL:     234717 USELESS:          6 LATE:      37760
cpu0->cpu0_L1D AVERAGE MISS LATENCY: 316.5 cycles
cpu0->cpu0_ITLB TOTAL        ACCESS:    6208995 HIT:    6208995 MISS:          0 MSHR_MERGE:          0
cpu0->cpu0_ITLB LOAD         ACCESS:    6208995 HIT:    6208995 MISS:          0 MSHR_MERGE:          0
cpu0->cpu0_ITLB RFO          ACCESS:          0 HIT:          0 MISS:          0 MSHR_MERGE:          0
cpu0->cpu0_ITLB PREFETCH     ACCESS:          0 HIT:          0 MISS:          0 MSHR_MERGE:          0
cpu0->cpu0_ITLB WRITE        ACCESS:          0 HIT:          0 MISS:          0 MSHR_MERGE:          0
cpu0->cpu0_ITLB TRANSLATION  ACCESS:          0 HIT:          0 MISS:          0 MSHR_MERGE:          0
cpu0->cpu0_ITLB PREFETCH REQUESTED:          0 ISSUED:          0 USEFUL:          0 USELESS:          0 LATE:          0
cpu0->cpu0_ITLB AVERAGE MISS LATENCY: - cycles
cpu0->cpu0_DTLB TOTAL        ACCESS:    9113800 HIT:    9069102 MISS:      44698 MSHR_MERGE:      13593
cpu0->cpu0_DTLB LOAD         ACCESS:    9113800 HIT:    9069102 MISS:      44698 MSHR_MERGE:      13593
cpu0->cpu0_DTLB RFO          ACCESS:          0 HIT:          0 MISS:          0 MSHR_MERGE:          0
cpu0->cpu0_DTLB PREFETCH     ACCESS:          0 HIT:          0 MISS:          0 MSHR_MERGE:          0
cpu0->cpu0_DTLB WRITE        ACCESS:          0 HIT:          0 MISS:          0 MSHR_MERGE:          0
cpu0->cpu0_DTLB TRANSLATION  ACCESS:          0 HIT:          0 MISS:          0 MSHR_MERGE:          0
cpu0->cpu0_DTLB PREFETCH REQUESTED:          0 ISSUED:          0 USEFUL:          0 USELESS:          0 LATE:          0
cpu0->cpu0_DTLB AVERAGE MISS LATENCY: 162.5 cycles
cpu0->LLC TOTAL        ACCESS:    1941931 HIT:     753206 MISS:    1188725 MSHR_MERGE:       1862
cpu0->LLC LOAD         ACCESS:      31682 HIT:        566 MISS:      31116 MSHR_MERGE:         58
cpu0->LLC RFO          ACCESS:     832562 HIT:      22687 MISS:     809875 MSHR_MERGE:          0
cpu0->LLC PREFETCH     ACCESS:     243188 HIT:       2466 MISS:     240722 MSHR_MERGE:       1804
cpu0->LLC WRITE        ACCESS:     832367 HIT:     727487 MISS:     104880 MSHR_MERGE:          0
cpu0->LLC TRANSLATION  ACCESS:       2132 HIT:          0 MISS:       2132 MSHR_MERGE:          0
cpu0->LLC PREFETCH REQUESTED:          0 ISSUED:          0 USEFUL:          0 USELESS:          0 LATE:          0
cpu0->LLC AVERAGE MISS LATENCY: 491.3 cycles

DRAM Statistics

Channel 0 RQ ROW_BUFFER_HIT:      84017
  ROW_BUFFER_MISS:     997954
  AVG DBUS CONGESTED CYCLE: 7.993
Channel 0 WQ ROW_BUFFER_HIT:     112974
  ROW_BUFFER_MISS:     697427
  FULL:          0
Channel 0 REFRESHES ISSUED:       3875

[ROI Statistics]
[System Configuration]
num_cpus 1
cpu_freq 4000
fetch_width 6
decode_width 6
dispatch_width 6
execute_width 6
lq_width 2
sq_width 2
retire_width 6
scheduler_size 128
branch_mispredict_penalty 15
rob_size 352
lq_size 128
sq_size 72
ifetch_buffer_size 64
decode_buffer_size 32
dispatch_buffer_size 32
register_file_size 288
decode_latency 1
dispatch_latency 1
schedule_latency 1
execute_latency 1
page_size 4096
block_size 64
core_0_itlb_set 16
core_0_itlb_way 4
core_0_itlb_rq_size 16
core_0_itlb_wq_size 16
core_0_itlb_pq_size 0
core_0_itlb_mshr_size 8
core_0_itlb_hit_latency 1
core_0_itlb_fill_latency 1
core_0_itlb_max_tag_check 2
core_0_itlb_max_fill 2
core_0_dtlb_set 16
core_0_dtlb_way 4
core_0_dtlb_rq_size 16
core_0_dtlb_wq_size 16
core_0_dtlb_pq_size 0
core_0_dtlb_mshr_size 8
core_0_dtlb_hit_latency 1
core_0_dtlb_fill_latency 1
core_0_dtlb_max_tag_check 2
core_0_dtlb_max_fill 2
core_0_stlb_set 128
core_0_stlb_way 12
core_0_stlb_rq_size 32
core_0_stlb_wq_size 32
core_0_stlb_pq_size 0
core_0_stlb_mshr_size 16
core_0_stlb_hit_latency 4
core_0_stlb_fill_latency 4
core_0_stlb_max_tag_check 1
core_0_stlb_max_fill 1
core_0_l1i_set 64
core_0_l1i_way 8
core_0_l1i_rq_size 64
core_0_l1i_wq_size 64
core_0_l1i_pq_size 32
core_0_l1i_mshr_size 8
core_0_l1i_hit_latency 2
core_0_l1i_fill_latency 2
core_0_l1i_max_tag_check 2
core_0_l1i_max_fill 2
core_0_l1d_set 64
core_0_l1d_way 12
core_0_l1d_rq_size 64
core_0_l1d_wq_size 64
core_0_l1d_pq_size 8
core_0_l1d_mshr_size 16
core_0_l1d_hit_latency 2
core_0_l1d_fill_latency 3
core_0_l1d_max_tag_check 2
core_0_l1d_max_fill 2
core_0_l2c_set 1024
core_0_l2c_way 8
core_0_l2c_rq_size 32
core_0_l2c_wq_size 32
core_0_l2c_pq_size 16
core_0_l2c_mshr_size 32
core_0_l2c_hit_latency 5
core_0_l2c_fill_latency 5
core_0_l2c_max_tag_check 1
core_0_l2c_max_fill 1
llc_set 2048
llc_way 16
llc_rq_size 32
llc_wq_size 32
llc_pq_size 32
llc_mshr_size 64
llc_hit_latency 10
llc_fill_latency 10
llc_max_tag_check 1
llc_max_fill 1
dram_channels 1
dram_ranks 1
dram_bankgroups 8
dram_banks 4
dram_rows 65536
dram_columns 1024
dram_channel_width 8
dram_rq_size 64
dram_wq_size 64
dram_size 17179869184
core_0_itlb_prefetcher no
core_0_dtlb_prefetcher no
core_0_stlb_prefetcher no
core_0_l1i_prefetcher next_line
core_0_l1d_prefetcher berti
core_0_l2c_prefetcher ip_stride
llc_prefetcher no
llc_replacement drrip

Core_0_instructions 50000001
Core_0_cycles 46499420
Core_0_IPC 1.07528
Core_0_branch_prediction_accuracy 99.8954
Core_0_branch_MPKI 0.0112
Core_0_average_ROB_occupancy_at_mispredict 341.52

Core_0_ITLB_total_access 6208995
Core_0_ITLB_total_hit 6208995
Core_0_ITLB_total_miss 0
Core_0_ITLB_total_MPKI 0
Core_0_ITLB_total_miss_rate 0
Core_0_ITLB_demand_access 6208995
Core_0_ITLB_demand_hit 6208995
Core_0_ITLB_demand_miss 0
Core_0_ITLB_demand_MPKI 0
Core_0_ITLB_demand_miss_rate 0
Core_0_ITLB_load_access 6208995
Core_0_ITLB_load_hit 6208995
Core_0_ITLB_load_miss 0
Core_0_ITLB_load_MPKI 0
Core_0_ITLB_load_miss_rate 0
Core_0_ITLB_rfo_access 0
Core_0_ITLB_rfo_hit 0
Core_0_ITLB_rfo_miss 0
Core_0_ITLB_rfo_MPKI 0
Core_0_ITLB_rfo_miss_rate 0
Core_0_ITLB_prefetch_access 0
Core_0_ITLB_prefetch_hit 0
Core_0_ITLB_prefetch_miss 0
Core_0_ITLB_prefetch_MPKI 0
Core_0_ITLB_prefetch_miss_rate 0
Core_0_ITLB_writeback_access 0
Core_0_ITLB_writeback_hit 0
Core_0_ITLB_writeback_miss 0
Core_0_ITLB_writeback_MPKI 0
Core_0_ITLB_writeback_miss_rate 0
Core_0_ITLB_prefetch_requested 0
Core_0_ITLB_prefetch_issued 0
Core_0_ITLB_prefetch_useful 0
Core_0_ITLB_prefetch_useless 0
Core_0_ITLB_prefetch_late 0
Core_0_ITLB_prefetch_accuracy 0
Core_0_ITLB_prefetch_coverage 0

Core_0_DTLB_total_access 9113800
Core_0_DTLB_total_hit 9069102
Core_0_DTLB_total_miss 44698
Core_0_DTLB_total_MPKI 0.89396
Core_0_DTLB_total_miss_rate 0.00490443
Core_0_DTLB_demand_access 9113800
Core_0_DTLB_demand_hit 9069102
Core_0_DTLB_demand_miss 44698
Core_0_DTLB_demand_MPKI 0.89396
Core_0_DTLB_demand_miss_rate 0.00490443
Core_0_DTLB_load_access 9113800
Core_0_DTLB_load_hit 9069102
Core_0_DTLB_load_miss 44698
Core_0_DTLB_load_MPKI 0.89396
Core_0_DTLB_load_miss_rate 0.00490443
Core_0_DTLB_rfo_access 0
Core_0_DTLB_rfo_hit 0
Core_0_DTLB_rfo_miss 0
Core_0_DTLB_rfo_MPKI 0
Core_0_DTLB_rfo_miss_rate 0
Core_0_DTLB_prefetch_access 0
Core_0_DTLB_prefetch_hit 0
Core_0_DTLB_prefetch_miss 0
Core_0_DTLB_prefetch_MPKI 0
Core_0_DTLB_prefetch_miss_rate 0
Core_0_DTLB_writeback_access 0
Core_0_DTLB_writeback_hit 0
Core_0_DTLB_writeback_miss 0
Core_0_DTLB_writeback_MPKI 0
Core_0_DTLB_writeback_miss_rate 0
Core_0_DTLB_prefetch_requested 0
Core_0_DTLB_prefetch_issued 0
Core_0_DTLB_prefetch_useful 0
Core_0_DTLB_prefetch_useless 0
Core_0_DTLB_prefetch_late 0
Core_0_DTLB_prefetch_accuracy 0
Core_0_DTLB_prefetch_coverage 0

Core_0_STLB_total_access 31105
Core_0_STLB_total_hit 14226
Core_0_STLB_total_miss 16879
Core_0_STLB_total_MPKI 0.33758
Core_0_STLB_total_miss_rate 0.542646
Core_0_STLB_demand_access 31105
Core_0_STLB_demand_hit 14226
Core_0_STLB_demand_miss 16879
Core_0_STLB_demand_MPKI 0.33758
Core_0_STLB_demand_miss_rate 0.542646
Core_0_STLB_load_access 31105
Core_0_STLB_load_hit 14226
Core_0_STLB_load_miss 16879
Core_0_STLB_load_MPKI 0.33758
Core_0_STLB_load_miss_rate 0.542646
Core_0_STLB_rfo_access 0
Core_0_STLB_rfo_hit 0
Core_0_STLB_rfo_miss 0
Core_0_STLB_rfo_MPKI 0
Core_0_STLB_rfo_miss_rate 0
Core_0_STLB_prefetch_access 0
Core_0_STLB_prefetch_hit 0
Core_0_STLB_prefetch_miss 0
Core_0_STLB_prefetch_MPKI 0
Core_0_STLB_prefetch_miss_rate 0
Core_0_STLB_writeback_access 0
Core_0_STLB_writeback_hit 0
Core_0_STLB_writeback_miss 0
Core_0_STLB_writeback_MPKI 0
Core_0_STLB_writeback_miss_rate 0
Core_0_STLB_prefetch_requested 0
Core_0_STLB_prefetch_issued 0
Core_0_STLB_prefetch_useful 0
Core_0_STLB_prefetch_useless 0
Core_0_STLB_prefetch_late 0
Core_0_STLB_prefetch_accuracy 0
Core_0_STLB_prefetch_coverage 0

Core_0_L1I_total_access 8601334
Core_0_L1I_total_hit 8601334
Core_0_L1I_total_miss 0
Core_0_L1I_total_MPKI 0
Core_0_L1I_total_miss_rate 0
Core_0_L1I_demand_access 8601334
Core_0_L1I_demand_hit 8601334
Core_0_L1I_demand_miss 0
Core_0_L1I_demand_MPKI 0
Core_0_L1I_demand_miss_rate 0
Core_0_L1I_load_access 8601334
Core_0_L1I_load_hit 8601334
Core_0_L1I_load_miss 0
Core_0_L1I_load_MPKI 0
Core_0_L1I_load_miss_rate 0
Core_0_L1I_rfo_access 0
Core_0_L1I_rfo_hit 0
Core_0_L1I_rfo_miss 0
Core_0_L1I_rfo_MPKI 0
Core_0_L1I_rfo_miss_rate 0
Core_0_L1I_prefetch_access 0
Core_0_L1I_prefetch_hit 0
Core_0_L1I_prefetch_miss 0
Core_0_L1I_prefetch_MPKI 0
Core_0_L1I_prefetch_miss_rate 0
Core_0_L1I_writeback_access 0
Core_0_L1I_writeback_hit 0
Core_0_L1I_writeback_miss 0
Core_0_L1I_writeback_MPKI 0
Core_0_L1I_writeback_miss_rate 0
Core_0_L1I_prefetch_requested 0
Core_0_L1I_prefetch_issued 0
Core_0_L1I_prefetch_useful 0
Core_0_L1I_prefetch_useless 0
Core_0_L1I_prefetch_late 0
Core_0_L1I_prefetch_accuracy 0
Core_0_L1I_prefetch_coverage 0

Core_0_L1D_total_access 9878893
Core_0_L1D_total_hit 7952224
Core_0_L1D_total_miss 1926669
Core_0_L1D_total_MPKI 38.5334
Core_0_L1D_total_miss_rate 0.195029
Core_0_L1D_demand_access 2238520
Core_0_L1D_demand_hit 2140679
Core_0_L1D_demand_miss 97841
Core_0_L1D_demand_MPKI 1.95682
Core_0_L1D_demand_miss_rate 0.0437079
Core_0_L1D_load_access 2238520
Core_0_L1D_load_hit 2140679
Core_0_L1D_load_miss 97841
Core_0_L1D_load_MPKI 1.95682
Core_0_L1D_load_miss_rate 0.0437079
Core_0_L1D_rfo_access 0
Core_0_L1D_rfo_hit 0
Core_0_L1D_rfo_miss 0
Core_0_L1D_rfo_MPKI 0
Core_0_L1D_rfo_miss_rate 0
Core_0_L1D_prefetch_access 249932
Core_0_L1D_prefetch_hit 10306
Core_0_L1D_prefetch_miss 239626
Core_0_L1D_prefetch_MPKI 4.79252
Core_0_L1D_prefetch_miss_rate 0.958765
Core_0_L1D_writeback_access 7390441
Core_0_L1D_writeback_hit 5801239
Core_0_L1D_writeback_miss 1589202
Core_0_L1D_writeback_MPKI 31.784
Core_0_L1D_writeback_miss_rate 0.215035
Core_0_L1D_prefetch_requested 251626
Core_0_L1D_prefetch_issued 249933
Core_0_L1D_prefetch_useful 234717
Core_0_L1D_prefetch_useless 6
Core_0_L1D_prefetch_late 37760
Core_0_L1D_prefetch_accuracy 0.93912
Core_0_L1D_prefetch_coverage 0.705793

Core_0_L2C_total_access 3358094
Core_0_L2C_total_hit 2237317
Core_0_L2C_total_miss 1120777
Core_0_L2C_total_MPKI 22.4155
Core_0_L2C_total_miss_rate 0.333754
Core_0_L2C_demand_access 1560590
Core_0_L2C_demand_hit 696047
Core_0_L2C_demand_miss 864543
Core_0_L2C_demand_MPKI 17.2909
Core_0_L2C_demand_miss_rate 0.553985
Core_0_L2C_load_access 35250
Core_0_L2C_load_hit 3269
Core_0_L2C_load_miss 31981
Core_0_L2C_load_MPKI 0.63962
Core_0_L2C_load_miss_rate 0.907262
Core_0_L2C_rfo_access 1525340
Core_0_L2C_rfo_hit 692778
Core_0_L2C_rfo_miss 832562
Core_0_L2C_rfo_MPKI 16.6512
Core_0_L2C_rfo_miss_rate 0.545821
Core_0_L2C_prefetch_access 271925
Core_0_L2C_prefetch_hit 15695
Core_0_L2C_prefetch_miss 256230
Core_0_L2C_prefetch_MPKI 5.1246
Core_0_L2C_prefetch_miss_rate 0.942282
Core_0_L2C_writeback_access 1525579
Core_0_L2C_writeback_hit 1525575
Core_0_L2C_writeback_miss 4
Core_0_L2C_writeback_MPKI 8e-05
Core_0_L2C_writeback_miss_rate 2.62196e-06
Core_0_L2C_prefetch_requested 37202
Core_0_L2C_prefetch_issued 37202
Core_0_L2C_prefetch_useful 13542
Core_0_L2C_prefetch_useless 6691
Core_0_L2C_prefetch_late 299
Core_0_L2C_prefetch_accuracy 0.364013
Core_0_L2C_prefetch_coverage 0.0154222

Core_0_LLC_total_access 1939799
Core_0_LLC_total_hit 753206
Core_0_LLC_total_miss 1186593
Core_0_LLC_total_MPKI 23.7319
Core_0_LLC_total_miss_rate 0.611709
Core_0_LLC_demand_access 864244
Core_0_LLC_demand_hit 23253
Core_0_LLC_demand_miss 840991
Core_0_LLC_demand_MPKI 16.8198
Core_0_LLC_demand_miss_rate 0.973094
Core_0_LLC_load_access 31682
Core_0_LLC_load_hit 566
Core_0_LLC_load_miss 31116
Core_0_LLC_load_MPKI 0.62232
Core_0_LLC_load_miss_rate 0.982135
Core_0_LLC_rfo_access 832562
Core_0_LLC_rfo_hit 22687
Core_0_LLC_rfo_miss 809875
Core_0_LLC_rfo_MPKI 16.1975
Core_0_LLC_rfo_miss_rate 0.97275
Core_0_LLC_prefetch_access 243188
Core_0_LLC_prefetch_hit 2466
Core_0_LLC_prefetch_miss 240722
Core_0_LLC_prefetch_MPKI 4.81444
Core_0_LLC_prefetch_miss_rate 0.98986
Core_0_LLC_writeback_access 832367
Core_0_LLC_writeback_hit 727487
Core_0_LLC_writeback_miss 104880
Core_0_LLC_writeback_MPKI 2.0976
Core_0_LLC_writeback_miss_rate 0.126002
Core_0_LLC_prefetch_requested 0
Core_0_LLC_prefetch_issued 0
Core_0_LLC_prefetch_useful 0
Core_0_LLC_prefetch_useless 0
Core_0_LLC_prefetch_late 0
Core_0_LLC_prefetch_accuracy 0
Core_0_LLC_prefetch_coverage 0

[DRAM Statistics]
Channel_0_RQ_row_buffer_hit 84017
Channel_0_RQ_row_buffer_miss 997954
Channel_0_WQ_row_buffer_hit 112974
Channel_0_WQ_row_buffer_miss 697427
Channel_0_WQ_full 0
Channel_0_dbus_congested 7460408
DRAM_total_RQ_row_buffer_hit 84017
DRAM_total_RQ_row_buffer_miss 997954
DRAM_total_WQ_row_buffer_hit 112974
DRAM_total_WQ_row_buffer_miss 697427
DRAM_total_WQ_full 0
DRAM_total_dbus_congested 7460408
DRAM_avg_congested_cycle 7.99289

======STLB miss causes ========
Core_0_STLB_miss_cause_breakdown
Core_0_STLB_cause_Demand_Data_miss 16879
Core_0_STLB_cause_Demand_Data_miss_rate 0.542646
Core_0_STLB_cause_Demand_Instruction_miss 0
Core_0_STLB_cause_Demand_Instruction_miss_rate 0
Core_0_STLB_cause_L1D_Prefetch_miss 0
Core_0_STLB_cause_L1D_Prefetch_miss_rate 0
Core_0_STLB_cause_L1I_Prefetch_miss 0
Core_0_STLB_cause_L1I_Prefetch_miss_rate 0
Core_0_STLB_cause_Other_miss 0
Core_0_STLB_cause_Other_miss_rate 0
Core_0_STLB_Demand_miss 16879
Core_0_STLB_Demand_miss_rate 0.542646
Core_0_STLB_L1D_Prefetch_miss 0
Core_0_STLB_L1D_Prefetch_miss_rate 0
Core_0_STLB_Other_miss 0
Core_0_STLB_Other_miss_rate 0
