[VMEM] WARNING: physical memory size is smaller than virtual memory size.

*** ChampSim Multicore Out-of-Order Simulator ***
Warmup Instructions: 20000000
Simulation Instructions: 50000000
Number of CPUs: 1
Page size: 4096
STLB ideal mode: off
Core 0: /data0/tzh/champsim_traces/SPEC17/619.lbm_s-2676B.champsimtrace.xz
 L1D Berti prefetcher
Off-chip DRAM Size: 16 GiB Channels: 1 Width: 64-bit Data Rate: 3205 MT/s
Warmup halting CPU 0 at instruction 20000003 cycle 5379482 for remainder of phase
Warmup finished CPU 0 instructions: 20000003 cycles: 5379482 cumulative IPC: 3.718 (Simulation time: 00 hr 01 min 06 sec)
Warmup complete CPU 0 instructions: 20000003 cycles: 5379482 cumulative IPC: 3.718 (Simulation time: 00 hr 01 min 06 sec)
Simulation finished CPU 0 instructions: 50000001 cycles: 81796442 cumulative IPC: 0.6113 (Simulation time: 00 hr 12 min 49 sec)
Simulation complete CPU 0 instructions: 50000001 cycles: 81796442 cumulative IPC: 0.6113 (Simulation time: 00 hr 12 min 49 sec)

ChampSim completed all CPUs

=== Simulation ===
CPU 0 runs /data0/tzh/champsim_traces/SPEC17/619.lbm_s-2676B.champsimtrace.xz

Region of Interest Statistics

CPU 0 cumulative IPC: 0.6113 instructions: 50000001 cycles: 81796442
CPU 0 Branch Prediction Accuracy: 97.91% MPKI: 0.3249 Average ROB Occupancy at Mispredict: 242.2
Branch type MPKI
BRANCH_DIRECT_JUMP: 0
BRANCH_INDIRECT: 0
BRANCH_CONDITIONAL: 0.3249
BRANCH_DIRECT_CALL: 0
BRANCH_INDIRECT_CALL: 0
BRANCH_RETURN: 0

cpu0->cpu0_STLB TOTAL        ACCESS:      56006 HIT:      25618 MISS:      30388 MSHR_MERGE:          0
cpu0->cpu0_STLB LOAD         ACCESS:      56006 HIT:      25618 MISS:      30388 MSHR_MERGE:          0
cpu0->cpu0_STLB RFO          ACCESS:          0 HIT:          0 MISS:          0 MSHR_MERGE:          0
cpu0->cpu0_STLB PREFETCH     ACCESS:          0 HIT:          0 MISS:          0 MSHR_MERGE:          0
cpu0->cpu0_STLB WRITE        ACCESS:          0 HIT:          0 MISS:          0 MSHR_MERGE:          0
cpu0->cpu0_STLB TRANSLATION  ACCESS:          0 HIT:          0 MISS:          0 MSHR_MERGE:          0
cpu0->cpu0_STLB PREFETCH REQUESTED:          0 ISSUED:          0 USEFUL:          0 USELESS:          0 LATE:          0
cpu0->cpu0_STLB AVERAGE MISS LATENCY: 284.9 cycles
cpu0->cpu0_L2C TOTAL        ACCESS:    6082502 HIT:    4036789 MISS:    2045713 MSHR_MERGE:      19723
cpu0->cpu0_L2C LOAD         ACCESS:     216671 HIT:      22194 MISS:     194477 MSHR_MERGE:       2164
cpu0->cpu0_L2C RFO          ACCESS:    2741201 HIT:    1237934 MISS:    1503267 MSHR_MERGE:          0
cpu0->cpu0_L2C PREFETCH     ACCESS:     379368 HIT:      35234 MISS:     344134 MSHR_MERGE:      17559
cpu0->cpu0_L2C WRITE        ACCESS:    2741427 HIT:    2741427 MISS:          0 MSHR_MERGE:          0
cpu0->cpu0_L2C TRANSLATION  ACCESS:       3835 HIT:          0 MISS:       3835 MSHR_MERGE:          0
cpu0->cpu0_L2C PREFETCH REQUESTED:     109920 ISSUED:     109920 USEFUL:      40320 USELESS:       7658 LATE:       2164
cpu0->cpu0_L2C AVERAGE MISS LATENCY: 582.3 cycles
cpu0->cpu0_L1I TOTAL        ACCESS:    8209689 HIT:    8209689 MISS:          0 MSHR_MERGE:          0
cpu0->cpu0_L1I LOAD         ACCESS:    8209689 HIT:    8209689 MISS:          0 MSHR_MERGE:          0
cpu0->cpu0_L1I RFO          ACCESS:          0 HIT:          0 MISS:          0 MSHR_MERGE:          0
cpu0->cpu0_L1I PREFETCH     ACCESS:          0 HIT:          0 MISS:          0 MSHR_MERGE:          0
cpu0->cpu0_L1I WRITE        ACCESS:          0 HIT:          0 MISS:          0 MSHR_MERGE:          0
cpu0->cpu0_L1I TRANSLATION  ACCESS:          0 HIT:          0 MISS:          0 MSHR_MERGE:          0
cpu0->cpu0_L1I PREFETCH REQUESTED:          0 ISSUED:          0 USEFUL:          0 USELESS:          0 LATE:          0
cpu0->cpu0_L1I AVERAGE MISS LATENCY: - cycles
cpu0->cpu0_L1D TOTAL        ACCESS:   11281756 HIT:    7737601 MISS:    3544155 MSHR_MERGE:     312759
cpu0->cpu0_L1D LOAD         ACCESS:    2339651 HIT:    1997461 MISS:     342190 MSHR_MERGE:     125519
cpu0->cpu0_L1D RFO          ACCESS:          0 HIT:          0 MISS:          0 MSHR_MERGE:          0
cpu0->cpu0_L1D PREFETCH     ACCESS:     367690 HIT:      59210 MISS:     308480 MSHR_MERGE:      39032
cpu0->cpu0_L1D WRITE        ACCESS:    8513609 HIT:    5623959 MISS:    2889650 MSHR_MERGE:     148208
cpu0->cpu0_L1D TRANSLATION  ACCESS:      60806 HIT:      56971 MISS:       3835 MSHR_MERGE:          0
cpu0->cpu0_L1D PREFETCH REQUESTED:     450608 ISSUED:     367690 USEFUL:     269452 USELESS:          0 LATE:      53456
cpu0->cpu0_L1D AVERAGE MISS LATENCY: 344.4 cycles
cpu0->cpu0_ITLB TOTAL        ACCESS:    5942321 HIT:    5942321 MISS:          0 MSHR_MERGE:          0
cpu0->cpu0_ITLB LOAD         ACCESS:    5942321 HIT:    5942321 MISS:          0 MSHR_MERGE:          0
cpu0->cpu0_ITLB RFO          ACCESS:          0 HIT:          0 MISS:          0 MSHR_MERGE:          0
cpu0->cpu0_ITLB PREFETCH     ACCESS:          0 HIT:          0 MISS:          0 MSHR_MERGE:          0
cpu0->cpu0_ITLB WRITE        ACCESS:          0 HIT:          0 MISS:          0 MSHR_MERGE:          0
cpu0->cpu0_ITLB TRANSLATION  ACCESS:          0 HIT:          0 MISS:          0 MSHR_MERGE:          0
cpu0->cpu0_ITLB PREFETCH REQUESTED:          0 ISSUED:          0 USEFUL:          0 USELESS:          0 LATE:          0
cpu0->cpu0_ITLB AVERAGE MISS LATENCY: - cycles
cpu0->cpu0_DTLB TOTAL        ACCESS:   10492281 HIT:   10398718 MISS:      93563 MSHR_MERGE:      37557
cpu0->cpu0_DTLB LOAD         ACCESS:   10492281 HIT:   10398718 MISS:      93563 MSHR_MERGE:      37557
cpu0->cpu0_DTLB RFO          ACCESS:          0 HIT:          0 MISS:          0 MSHR_MERGE:          0
cpu0->cpu0_DTLB PREFETCH     ACCESS:          0 HIT:          0 MISS:          0 MSHR_MERGE:          0
cpu0->cpu0_DTLB WRITE        ACCESS:          0 HIT:          0 MISS:          0 MSHR_MERGE:          0
cpu0->cpu0_DTLB TRANSLATION  ACCESS:          0 HIT:          0 MISS:          0 MSHR_MERGE:          0
cpu0->cpu0_DTLB PREFETCH REQUESTED:          0 ISSUED:          0 USEFUL:          0 USELESS:          0 LATE:          0
cpu0->cpu0_DTLB AVERAGE MISS LATENCY: 160.2 cycles
cpu0->LLC TOTAL        ACCESS:    3529029 HIT:    1365445 MISS:    2163584 MSHR_MERGE:       6041
cpu0->LLC LOAD         ACCESS:     192311 HIT:      10876 MISS:     181435 MSHR_MERGE:       1256
cpu0->LLC RFO          ACCESS:    1503264 HIT:      45016 MISS:    1458248 MSHR_MERGE:          0
cpu0->LLC PREFETCH     ACCESS:     326575 HIT:      15799 MISS:     310776 MSHR_MERGE:       4785
cpu0->LLC WRITE        ACCESS:    1503044 HIT:    1293754 MISS:     209290 MSHR_MERGE:          0
cpu0->LLC TRANSLATION  ACCESS:       3835 HIT:          0 MISS:       3835 MSHR_MERGE:          0
cpu0->LLC PREFETCH REQUESTED:          0 ISSUED:          0 USEFUL:          0 USELESS:          0 LATE:          0
cpu0->LLC AVERAGE MISS LATENCY: 520.6 cycles

DRAM Statistics

Channel 0 RQ ROW_BUFFER_HIT:     169735
  ROW_BUFFER_MISS:    1778508
  AVG DBUS CONGESTED CYCLE: 8.052
Channel 0 WQ ROW_BUFFER_HIT:     191883
  ROW_BUFFER_MISS:    1271052
  FULL:          0
Channel 0 REFRESHES ISSUED:       6816

[ROI Statistics]
[System Configuration]
num_cpus 1
cpu_freq 4000
fetch_width 6
decode_width 6
dispatch_width 6
execute_width 6
lq_width 2
sq_width 2
retire_width 6
scheduler_size 128
branch_mispredict_penalty 15
rob_size 352
lq_size 128
sq_size 72
ifetch_buffer_size 64
decode_buffer_size 32
dispatch_buffer_size 32
register_file_size 288
decode_latency 1
dispatch_latency 1
schedule_latency 1
execute_latency 1
page_size 4096
block_size 64
core_0_itlb_set 16
core_0_itlb_way 4
core_0_itlb_rq_size 16
core_0_itlb_wq_size 16
core_0_itlb_pq_size 0
core_0_itlb_mshr_size 8
core_0_itlb_hit_latency 1
core_0_itlb_fill_latency 1
core_0_itlb_max_tag_check 2
core_0_itlb_max_fill 2
core_0_dtlb_set 16
core_0_dtlb_way 4
core_0_dtlb_rq_size 16
core_0_dtlb_wq_size 16
core_0_dtlb_pq_size 0
core_0_dtlb_mshr_size 8
core_0_dtlb_hit_latency 1
core_0_dtlb_fill_latency 1
core_0_dtlb_max_tag_check 2
core_0_dtlb_max_fill 2
core_0_stlb_set 128
core_0_stlb_way 12
core_0_stlb_rq_size 32
core_0_stlb_wq_size 32
core_0_stlb_pq_size 0
core_0_stlb_mshr_size 16
core_0_stlb_hit_latency 4
core_0_stlb_fill_latency 4
core_0_stlb_max_tag_check 1
core_0_stlb_max_fill 1
core_0_l1i_set 64
core_0_l1i_way 8
core_0_l1i_rq_size 64
core_0_l1i_wq_size 64
core_0_l1i_pq_size 32
core_0_l1i_mshr_size 8
core_0_l1i_hit_latency 2
core_0_l1i_fill_latency 2
core_0_l1i_max_tag_check 2
core_0_l1i_max_fill 2
core_0_l1d_set 64
core_0_l1d_way 12
core_0_l1d_rq_size 64
core_0_l1d_wq_size 64
core_0_l1d_pq_size 8
core_0_l1d_mshr_size 16
core_0_l1d_hit_latency 2
core_0_l1d_fill_latency 3
core_0_l1d_max_tag_check 2
core_0_l1d_max_fill 2
core_0_l2c_set 1024
core_0_l2c_way 8
core_0_l2c_rq_size 32
core_0_l2c_wq_size 32
core_0_l2c_pq_size 16
core_0_l2c_mshr_size 32
core_0_l2c_hit_latency 5
core_0_l2c_fill_latency 5
core_0_l2c_max_tag_check 1
core_0_l2c_max_fill 1
llc_set 2048
llc_way 16
llc_rq_size 32
llc_wq_size 32
llc_pq_size 32
llc_mshr_size 64
llc_hit_latency 10
llc_fill_latency 10
llc_max_tag_check 1
llc_max_fill 1
dram_channels 1
dram_ranks 1
dram_bankgroups 8
dram_banks 4
dram_rows 65536
dram_columns 1024
dram_channel_width 8
dram_rq_size 64
dram_wq_size 64
dram_size 17179869184
core_0_itlb_prefetcher no
core_0_dtlb_prefetcher no
core_0_stlb_prefetcher no
core_0_l1i_prefetcher next_line
core_0_l1d_prefetcher berti
core_0_l2c_prefetcher ip_stride
llc_prefetcher no
llc_replacement drrip

Core_0_instructions 50000001
Core_0_cycles 81796442
Core_0_IPC 0.611274
Core_0_branch_prediction_accuracy 97.9078
Core_0_branch_MPKI 0.32492
Core_0_average_ROB_occupancy_at_mispredict 242.227

Core_0_ITLB_total_access 5942321
Core_0_ITLB_total_hit 5942321
Core_0_ITLB_total_miss 0
Core_0_ITLB_total_MPKI 0
Core_0_ITLB_total_miss_rate 0
Core_0_ITLB_demand_access 5942321
Core_0_ITLB_demand_hit 5942321
Core_0_ITLB_demand_miss 0
Core_0_ITLB_demand_MPKI 0
Core_0_ITLB_demand_miss_rate 0
Core_0_ITLB_load_access 5942321
Core_0_ITLB_load_hit 5942321
Core_0_ITLB_load_miss 0
Core_0_ITLB_load_MPKI 0
Core_0_ITLB_load_miss_rate 0
Core_0_ITLB_rfo_access 0
Core_0_ITLB_rfo_hit 0
Core_0_ITLB_rfo_miss 0
Core_0_ITLB_rfo_MPKI 0
Core_0_ITLB_rfo_miss_rate 0
Core_0_ITLB_prefetch_access 0
Core_0_ITLB_prefetch_hit 0
Core_0_ITLB_prefetch_miss 0
Core_0_ITLB_prefetch_MPKI 0
Core_0_ITLB_prefetch_miss_rate 0
Core_0_ITLB_writeback_access 0
Core_0_ITLB_writeback_hit 0
Core_0_ITLB_writeback_miss 0
Core_0_ITLB_writeback_MPKI 0
Core_0_ITLB_writeback_miss_rate 0
Core_0_ITLB_prefetch_requested 0
Core_0_ITLB_prefetch_issued 0
Core_0_ITLB_prefetch_useful 0
Core_0_ITLB_prefetch_useless 0
Core_0_ITLB_prefetch_late 0
Core_0_ITLB_prefetch_accuracy 0
Core_0_ITLB_prefetch_coverage 0

Core_0_DTLB_total_access 10492281
Core_0_DTLB_total_hit 10398718
Core_0_DTLB_total_miss 93563
Core_0_DTLB_total_MPKI 1.87126
Core_0_DTLB_total_miss_rate 0.00891732
Core_0_DTLB_demand_access 10492281
Core_0_DTLB_demand_hit 10398718
Core_0_DTLB_demand_miss 93563
Core_0_DTLB_demand_MPKI 1.87126
Core_0_DTLB_demand_miss_rate 0.00891732
Core_0_DTLB_load_access 10492281
Core_0_DTLB_load_hit 10398718
Core_0_DTLB_load_miss 93563
Core_0_DTLB_load_MPKI 1.87126
Core_0_DTLB_load_miss_rate 0.00891732
Core_0_DTLB_rfo_access 0
Core_0_DTLB_rfo_hit 0
Core_0_DTLB_rfo_miss 0
Core_0_DTLB_rfo_MPKI 0
Core_0_DTLB_rfo_miss_rate 0
Core_0_DTLB_prefetch_access 0
Core_0_DTLB_prefetch_hit 0
Core_0_DTLB_prefetch_miss 0
Core_0_DTLB_prefetch_MPKI 0
Core_0_DTLB_prefetch_miss_rate 0
Core_0_DTLB_writeback_access 0
Core_0_DTLB_writeback_hit 0
Core_0_DTLB_writeback_miss 0
Core_0_DTLB_writeback_MPKI 0
Core_0_DTLB_writeback_miss_rate 0
Core_0_DTLB_prefetch_requested 0
Core_0_DTLB_prefetch_issued 0
Core_0_DTLB_prefetch_useful 0
Core_0_DTLB_prefetch_useless 0
Core_0_DTLB_prefetch_late 0
Core_0_DTLB_prefetch_accuracy 0
Core_0_DTLB_prefetch_coverage 0

Core_0_STLB_total_access 56006
Core_0_STLB_total_hit 25618
Core_0_STLB_total_miss 30388
Core_0_STLB_total_MPKI 0.60776
Core_0_STLB_total_miss_rate 0.542585
Core_0_STLB_demand_access 56006
Core_0_STLB_demand_hit 25618
Core_0_STLB_demand_miss 30388
Core_0_STLB_demand_MPKI 0.60776
Core_0_STLB_demand_miss_rate 0.542585
Core_0_STLB_load_access 56006
Core_0_STLB_load_hit 25618
Core_0_STLB_load_miss 30388
Core_0_STLB_load_MPKI 0.60776
Core_0_STLB_load_miss_rate 0.542585
Core_0_STLB_rfo_access 0
Core_0_STLB_rfo_hit 0
Core_0_STLB_rfo_miss 0
Core_0_STLB_rfo_MPKI 0
Core_0_STLB_rfo_miss_rate 0
Core_0_STLB_prefetch_access 0
Core_0_STLB_prefetch_hit 0
Core_0_STLB_prefetch_miss 0
Core_0_STLB_prefetch_MPKI 0
Core_0_STLB_prefetch_miss_rate 0
Core_0_STLB_writeback_access 0
Core_0_STLB_writeback_hit 0
Core_0_STLB_writeback_miss 0
Core_0_STLB_writeback_MPKI 0
Core_0_STLB_writeback_miss_rate 0
Core_0_STLB_prefetch_requested 0
Core_0_STLB_prefetch_issued 0
Core_0_STLB_prefetch_useful 0
Core_0_STLB_prefetch_useless 0
Core_0_STLB_prefetch_late 0
Core_0_STLB_prefetch_accuracy 0
Core_0_STLB_prefetch_coverage 0

Core_0_L1I_total_access 8209689
Core_0_L1I_total_hit 8209689
Core_0_L1I_total_miss 0
Core_0_L1I_total_MPKI 0
Core_0_L1I_total_miss_rate 0
Core_0_L1I_demand_access 8209689
Core_0_L1I_demand_hit 8209689
Core_0_L1I_demand_miss 0
Core_0_L1I_demand_MPKI 0
Core_0_L1I_demand_miss_rate 0
Core_0_L1I_load_access 8209689
Core_0_L1I_load_hit 8209689
Core_0_L1I_load_miss 0
Core_0_L1I_load_MPKI 0
Core_0_L1I_load_miss_rate 0
Core_0_L1I_rfo_access 0
Core_0_L1I_rfo_hit 0
Core_0_L1I_rfo_miss 0
Core_0_L1I_rfo_MPKI 0
Core_0_L1I_rfo_miss_rate 0
Core_0_L1I_prefetch_access 0
Core_0_L1I_prefetch_hit 0
Core_0_L1I_prefetch_miss 0
Core_0_L1I_prefetch_MPKI 0
Core_0_L1I_prefetch_miss_rate 0
Core_0_L1I_writeback_access 0
Core_0_L1I_writeback_hit 0
Core_0_L1I_writeback_miss 0
Core_0_L1I_writeback_MPKI 0
Core_0_L1I_writeback_miss_rate 0
Core_0_L1I_prefetch_requested 0
Core_0_L1I_prefetch_issued 0
Core_0_L1I_prefetch_useful 0
Core_0_L1I_prefetch_useless 0
Core_0_L1I_prefetch_late 0
Core_0_L1I_prefetch_accuracy 0
Core_0_L1I_prefetch_coverage 0

Core_0_L1D_total_access 11220950
Core_0_L1D_total_hit 7680630
Core_0_L1D_total_miss 3540320
Core_0_L1D_total_MPKI 70.8064
Core_0_L1D_total_miss_rate 0.31551
Core_0_L1D_demand_access 2339651
Core_0_L1D_demand_hit 1997461
Core_0_L1D_demand_miss 342190
Core_0_L1D_demand_MPKI 6.8438
Core_0_L1D_demand_miss_rate 0.146257
Core_0_L1D_load_access 2339651
Core_0_L1D_load_hit 1997461
Core_0_L1D_load_miss 342190
Core_0_L1D_load_MPKI 6.8438
Core_0_L1D_load_miss_rate 0.146257
Core_0_L1D_rfo_access 0
Core_0_L1D_rfo_hit 0
Core_0_L1D_rfo_miss 0
Core_0_L1D_rfo_MPKI 0
Core_0_L1D_rfo_miss_rate 0
Core_0_L1D_prefetch_access 367690
Core_0_L1D_prefetch_hit 59210
Core_0_L1D_prefetch_miss 308480
Core_0_L1D_prefetch_MPKI 6.1696
Core_0_L1D_prefetch_miss_rate 0.838968
Core_0_L1D_writeback_access 8513609
Core_0_L1D_writeback_hit 5623959
Core_0_L1D_writeback_miss 2889650
Core_0_L1D_writeback_MPKI 57.793
Core_0_L1D_writeback_miss_rate 0.339415
Core_0_L1D_prefetch_requested 450608
Core_0_L1D_prefetch_issued 367690
Core_0_L1D_prefetch_useful 269452
Core_0_L1D_prefetch_useless 0
Core_0_L1D_prefetch_late 53456
Core_0_L1D_prefetch_accuracy 0.732824
Core_0_L1D_prefetch_coverage 0.440539

Core_0_L2C_total_access 6078667
Core_0_L2C_total_hit 4036789
Core_0_L2C_total_miss 2041878
Core_0_L2C_total_MPKI 40.8376
Core_0_L2C_total_miss_rate 0.335909
Core_0_L2C_demand_access 2957872
Core_0_L2C_demand_hit 1260128
Core_0_L2C_demand_miss 1697744
Core_0_L2C_demand_MPKI 33.9549
Core_0_L2C_demand_miss_rate 0.573975
Core_0_L2C_load_access 216671
Core_0_L2C_load_hit 22194
Core_0_L2C_load_miss 194477
Core_0_L2C_load_MPKI 3.88954
Core_0_L2C_load_miss_rate 0.897568
Core_0_L2C_rfo_access 2741201
Core_0_L2C_rfo_hit 1237934
Core_0_L2C_rfo_miss 1503267
Core_0_L2C_rfo_MPKI 30.0653
Core_0_L2C_rfo_miss_rate 0.548397
Core_0_L2C_prefetch_access 379368
Core_0_L2C_prefetch_hit 35234
Core_0_L2C_prefetch_miss 344134
Core_0_L2C_prefetch_MPKI 6.88268
Core_0_L2C_prefetch_miss_rate 0.907124
Core_0_L2C_writeback_access 2741427
Core_0_L2C_writeback_hit 2741427
Core_0_L2C_writeback_miss 0
Core_0_L2C_writeback_MPKI 0
Core_0_L2C_writeback_miss_rate 0
Core_0_L2C_prefetch_requested 109920
Core_0_L2C_prefetch_issued 109920
Core_0_L2C_prefetch_useful 40320
Core_0_L2C_prefetch_useless 7658
Core_0_L2C_prefetch_late 2164
Core_0_L2C_prefetch_accuracy 0.366812
Core_0_L2C_prefetch_coverage 0.0231982

Core_0_LLC_total_access 3525194
Core_0_LLC_total_hit 1365445
Core_0_LLC_total_miss 2159749
Core_0_LLC_total_MPKI 43.195
Core_0_LLC_total_miss_rate 0.612661
Core_0_LLC_demand_access 1695575
Core_0_LLC_demand_hit 55892
Core_0_LLC_demand_miss 1639683
Core_0_LLC_demand_MPKI 32.7937
Core_0_LLC_demand_miss_rate 0.967037
Core_0_LLC_load_access 192311
Core_0_LLC_load_hit 10876
Core_0_LLC_load_miss 181435
Core_0_LLC_load_MPKI 3.6287
Core_0_LLC_load_miss_rate 0.943446
Core_0_LLC_rfo_access 1503264
Core_0_LLC_rfo_hit 45016
Core_0_LLC_rfo_miss 1458248
Core_0_LLC_rfo_MPKI 29.165
Core_0_LLC_rfo_miss_rate 0.970054
Core_0_LLC_prefetch_access 326575
Core_0_LLC_prefetch_hit 15799
Core_0_LLC_prefetch_miss 310776
Core_0_LLC_prefetch_MPKI 6.21552
Core_0_LLC_prefetch_miss_rate 0.951622
Core_0_LLC_writeback_access 1503044
Core_0_LLC_writeback_hit 1293754
Core_0_LLC_writeback_miss 209290
Core_0_LLC_writeback_MPKI 4.1858
Core_0_LLC_writeback_miss_rate 0.139244
Core_0_LLC_prefetch_requested 0
Core_0_LLC_prefetch_issued 0
Core_0_LLC_prefetch_useful 0
Core_0_LLC_prefetch_useless 0
Core_0_LLC_prefetch_late 0
Core_0_LLC_prefetch_accuracy 0
Core_0_LLC_prefetch_coverage 0

[DRAM Statistics]
Channel_0_RQ_row_buffer_hit 169735
Channel_0_RQ_row_buffer_miss 1778508
Channel_0_WQ_row_buffer_hit 191883
Channel_0_WQ_row_buffer_miss 1271052
Channel_0_WQ_full 0
Channel_0_dbus_congested 13581188
DRAM_total_RQ_row_buffer_hit 169735
DRAM_total_RQ_row_buffer_miss 1778508
DRAM_total_WQ_row_buffer_hit 191883
DRAM_total_WQ_row_buffer_miss 1271052
DRAM_total_WQ_full 0
DRAM_total_dbus_congested 13581188
DRAM_avg_congested_cycle 8.0515

======STLB miss causes ========
Core_0_STLB_miss_cause_breakdown
Core_0_STLB_cause_Demand_Data_miss 30388
Core_0_STLB_cause_Demand_Data_miss_rate 0.542585
Core_0_STLB_cause_Demand_Instruction_miss 0
Core_0_STLB_cause_Demand_Instruction_miss_rate 0
Core_0_STLB_cause_L1D_Prefetch_miss 0
Core_0_STLB_cause_L1D_Prefetch_miss_rate 0
Core_0_STLB_cause_L1I_Prefetch_miss 0
Core_0_STLB_cause_L1I_Prefetch_miss_rate 0
Core_0_STLB_cause_Other_miss 0
Core_0_STLB_cause_Other_miss_rate 0
Core_0_STLB_Demand_miss 30388
Core_0_STLB_Demand_miss_rate 0.542585
Core_0_STLB_L1D_Prefetch_miss 0
Core_0_STLB_L1D_Prefetch_miss_rate 0
Core_0_STLB_Other_miss 0
Core_0_STLB_Other_miss_rate 0
