[VMEM] WARNING: physical memory size is smaller than virtual memory size.

*** ChampSim Multicore Out-of-Order Simulator ***
Warmup Instructions: 20000000
Simulation Instructions: 50000000
Number of CPUs: 1
Page size: 4096
STLB ideal mode: off
Core 0: /data0/tzh/champsim_traces/SPEC17/621.wrf_s-8100B.champsimtrace.xz
 L1D Berti prefetcher
Off-chip DRAM Size: 16 GiB Channels: 1 Width: 64-bit Data Rate: 3205 MT/s
Warmup halting CPU 0 at instruction 20000003 cycle 4241529 for remainder of phase
Warmup finished CPU 0 instructions: 20000003 cycles: 4241529 cumulative IPC: 4.715 (Simulation time: 00 hr 00 min 47 sec)
Warmup complete CPU 0 instructions: 20000003 cycles: 4241529 cumulative IPC: 4.715 (Simulation time: 00 hr 00 min 47 sec)
Simulation finished CPU 0 instructions: 50000000 cycles: 46299214 cumulative IPC: 1.08 (Simulation time: 00 hr 04 min 49 sec)
Simulation complete CPU 0 instructions: 50000000 cycles: 46299214 cumulative IPC: 1.08 (Simulation time: 00 hr 04 min 49 sec)

ChampSim completed all CPUs

=== Simulation ===
CPU 0 runs /data0/tzh/champsim_traces/SPEC17/621.wrf_s-8100B.champsimtrace.xz

Region of Interest Statistics

CPU 0 cumulative IPC: 1.08 instructions: 50000000 cycles: 46299214
CPU 0 Branch Prediction Accuracy: 91.61% MPKI: 10.34 Average ROB Occupancy at Mispredict: 44.04
Branch type MPKI
BRANCH_DIRECT_JUMP: 0.00272
BRANCH_INDIRECT: 0
BRANCH_CONDITIONAL: 6.623
BRANCH_DIRECT_CALL: 0
BRANCH_INDIRECT_CALL: 0
BRANCH_RETURN: 3.712

cpu0->cpu0_STLB TOTAL        ACCESS:      11877 HIT:      11692 MISS:        185 MSHR_MERGE:          0
cpu0->cpu0_STLB LOAD         ACCESS:      11877 HIT:      11692 MISS:        185 MSHR_MERGE:          0
cpu0->cpu0_STLB RFO          ACCESS:          0 HIT:          0 MISS:          0 MSHR_MERGE:          0
cpu0->cpu0_STLB PREFETCH     ACCESS:          0 HIT:          0 MISS:          0 MSHR_MERGE:          0
cpu0->cpu0_STLB WRITE        ACCESS:          0 HIT:          0 MISS:          0 MSHR_MERGE:          0
cpu0->cpu0_STLB TRANSLATION  ACCESS:          0 HIT:          0 MISS:          0 MSHR_MERGE:          0
cpu0->cpu0_STLB PREFETCH REQUESTED:          0 ISSUED:          0 USEFUL:          0 USELESS:          0 LATE:          0
cpu0->cpu0_STLB AVERAGE MISS LATENCY: 250.6 cycles
cpu0->cpu0_L2C TOTAL        ACCESS:     373589 HIT:     317830 MISS:      55759 MSHR_MERGE:       2289
cpu0->cpu0_L2C LOAD         ACCESS:      40401 HIT:      33015 MISS:       7386 MSHR_MERGE:         68
cpu0->cpu0_L2C RFO          ACCESS:      87190 HIT:      59616 MISS:      27574 MSHR_MERGE:          0
cpu0->cpu0_L2C PREFETCH     ACCESS:     136800 HIT:     116086 MISS:      20714 MSHR_MERGE:       2221
cpu0->cpu0_L2C WRITE        ACCESS:     109087 HIT:     109080 MISS:          7 MSHR_MERGE:          0
cpu0->cpu0_L2C TRANSLATION  ACCESS:        111 HIT:         33 MISS:         78 MSHR_MERGE:          0
cpu0->cpu0_L2C PREFETCH REQUESTED:      33885 ISSUED:      33885 USEFUL:       2063 USELESS:        380 LATE:         68
cpu0->cpu0_L2C AVERAGE MISS LATENCY: 23.33 cycles
cpu0->cpu0_L1I TOTAL        ACCESS:    2250193 HIT:    2240030 MISS:      10163 MSHR_MERGE:       4866
cpu0->cpu0_L1I LOAD         ACCESS:    2250193 HIT:    2240030 MISS:      10163 MSHR_MERGE:       4866
cpu0->cpu0_L1I RFO          ACCESS:          0 HIT:          0 MISS:          0 MSHR_MERGE:          0
cpu0->cpu0_L1I PREFETCH     ACCESS:          0 HIT:          0 MISS:          0 MSHR_MERGE:          0
cpu0->cpu0_L1I WRITE        ACCESS:          0 HIT:          0 MISS:          0 MSHR_MERGE:          0
cpu0->cpu0_L1I TRANSLATION  ACCESS:          0 HIT:          0 MISS:          0 MSHR_MERGE:          0
cpu0->cpu0_L1I PREFETCH REQUESTED:          0 ISSUED:          0 USEFUL:          0 USELESS:          0 LATE:          0
cpu0->cpu0_L1I AVERAGE MISS LATENCY: 20.29 cycles
cpu0->cpu0_L1D TOTAL        ACCESS:   13243314 HIT:   12858389 MISS:     384925 MSHR_MERGE:     159605
cpu0->cpu0_L1D LOAD         ACCESS:    9105640 HIT:    9057071 MISS:      48569 MSHR_MERGE:      13465
cpu0->cpu0_L1D RFO          ACCESS:          0 HIT:          0 MISS:          0 MSHR_MERGE:          0
cpu0->cpu0_L1D PREFETCH     ACCESS:     179155 HIT:      74971 MISS:     104184 MSHR_MERGE:       1269
cpu0->cpu0_L1D WRITE        ACCESS:    3958149 HIT:    3726088 MISS:     232061 MSHR_MERGE:     144871
cpu0->cpu0_L1D TRANSLATION  ACCESS:        370 HIT:        259 MISS:        111 MSHR_MERGE:          0
cpu0->cpu0_L1D PREFETCH REQUESTED:     193790 ISSUED:     179147 USEFUL:      94180 USELESS:       8713 LATE:       2121
cpu0->cpu0_L1D AVERAGE MISS LATENCY: 15.38 cycles
cpu0->cpu0_ITLB TOTAL        ACCESS:    1893719 HIT:    1893719 MISS:          0 MSHR_MERGE:          0
cpu0->cpu0_ITLB LOAD         ACCESS:    1893719 HIT:    1893719 MISS:          0 MSHR_MERGE:          0
cpu0->cpu0_ITLB RFO          ACCESS:          0 HIT:          0 MISS:          0 MSHR_MERGE:          0
cpu0->cpu0_ITLB PREFETCH     ACCESS:          0 HIT:          0 MISS:          0 MSHR_MERGE:          0
cpu0->cpu0_ITLB WRITE        ACCESS:          0 HIT:          0 MISS:          0 MSHR_MERGE:          0
cpu0->cpu0_ITLB TRANSLATION  ACCESS:          0 HIT:          0 MISS:          0 MSHR_MERGE:          0
cpu0->cpu0_ITLB PREFETCH REQUESTED:          0 ISSUED:          0 USEFUL:          0 USELESS:          0 LATE:          0
cpu0->cpu0_ITLB AVERAGE MISS LATENCY: - cycles
cpu0->cpu0_DTLB TOTAL        ACCESS:   12744689 HIT:   12727016 MISS:      17673 MSHR_MERGE:       5796
cpu0->cpu0_DTLB LOAD         ACCESS:   12744689 HIT:   12727016 MISS:      17673 MSHR_MERGE:       5796
cpu0->cpu0_DTLB RFO          ACCESS:          0 HIT:          0 MISS:          0 MSHR_MERGE:          0
cpu0->cpu0_DTLB PREFETCH     ACCESS:          0 HIT:          0 MISS:          0 MSHR_MERGE:          0
cpu0->cpu0_DTLB WRITE        ACCESS:          0 HIT:          0 MISS:          0 MSHR_MERGE:          0
cpu0->cpu0_DTLB TRANSLATION  ACCESS:          0 HIT:          0 MISS:          0 MSHR_MERGE:          0
cpu0->cpu0_DTLB PREFETCH REQUESTED:          0 ISSUED:          0 USEFUL:          0 USELESS:          0 LATE:          0
cpu0->cpu0_DTLB AVERAGE MISS LATENCY: 8.919 cycles
cpu0->LLC TOTAL        ACCESS:      87955 HIT:      75490 MISS:      12465 MSHR_MERGE:        162
cpu0->LLC LOAD         ACCESS:       7318 HIT:       6214 MISS:       1104 MSHR_MERGE:          0
cpu0->LLC RFO          ACCESS:      27574 HIT:      27377 MISS:        197 MSHR_MERGE:          0
cpu0->LLC PREFETCH     ACCESS:      18493 HIT:       7356 MISS:      11137 MSHR_MERGE:        162
cpu0->LLC WRITE        ACCESS:      34492 HIT:      34489 MISS:          3 MSHR_MERGE:          0
cpu0->LLC TRANSLATION  ACCESS:         78 HIT:         54 MISS:         24 MSHR_MERGE:          0
cpu0->LLC PREFETCH REQUESTED:          0 ISSUED:          0 USEFUL:          0 USELESS:          0 LATE:          0
cpu0->LLC AVERAGE MISS LATENCY: 210.7 cycles

DRAM Statistics

Channel 0 RQ ROW_BUFFER_HIT:        553
  ROW_BUFFER_MISS:      11747
  AVG DBUS CONGESTED CYCLE: 3.475
Channel 0 WQ ROW_BUFFER_HIT:         46
  ROW_BUFFER_MISS:        213
  FULL:          0
Channel 0 REFRESHES ISSUED:       3858

[ROI Statistics]
[System Configuration]
num_cpus 1
cpu_freq 4000
fetch_width 6
decode_width 6
dispatch_width 6
execute_width 6
lq_width 2
sq_width 2
retire_width 6
scheduler_size 128
branch_mispredict_penalty 15
rob_size 352
lq_size 128
sq_size 72
ifetch_buffer_size 64
decode_buffer_size 32
dispatch_buffer_size 32
register_file_size 288
decode_latency 1
dispatch_latency 1
schedule_latency 1
execute_latency 1
page_size 4096
block_size 64
core_0_itlb_set 16
core_0_itlb_way 4
core_0_itlb_rq_size 16
core_0_itlb_wq_size 16
core_0_itlb_pq_size 0
core_0_itlb_mshr_size 8
core_0_itlb_hit_latency 1
core_0_itlb_fill_latency 1
core_0_itlb_max_tag_check 2
core_0_itlb_max_fill 2
core_0_dtlb_set 16
core_0_dtlb_way 4
core_0_dtlb_rq_size 16
core_0_dtlb_wq_size 16
core_0_dtlb_pq_size 0
core_0_dtlb_mshr_size 8
core_0_dtlb_hit_latency 1
core_0_dtlb_fill_latency 1
core_0_dtlb_max_tag_check 2
core_0_dtlb_max_fill 2
core_0_stlb_set 128
core_0_stlb_way 12
core_0_stlb_rq_size 32
core_0_stlb_wq_size 32
core_0_stlb_pq_size 0
core_0_stlb_mshr_size 16
core_0_stlb_hit_latency 4
core_0_stlb_fill_latency 4
core_0_stlb_max_tag_check 1
core_0_stlb_max_fill 1
core_0_l1i_set 64
core_0_l1i_way 8
core_0_l1i_rq_size 64
core_0_l1i_wq_size 64
core_0_l1i_pq_size 32
core_0_l1i_mshr_size 8
core_0_l1i_hit_latency 2
core_0_l1i_fill_latency 2
core_0_l1i_max_tag_check 2
core_0_l1i_max_fill 2
core_0_l1d_set 64
core_0_l1d_way 12
core_0_l1d_rq_size 64
core_0_l1d_wq_size 64
core_0_l1d_pq_size 8
core_0_l1d_mshr_size 16
core_0_l1d_hit_latency 2
core_0_l1d_fill_latency 3
core_0_l1d_max_tag_check 2
core_0_l1d_max_fill 2
core_0_l2c_set 1024
core_0_l2c_way 8
core_0_l2c_rq_size 32
core_0_l2c_wq_size 32
core_0_l2c_pq_size 16
core_0_l2c_mshr_size 32
core_0_l2c_hit_latency 5
core_0_l2c_fill_latency 5
core_0_l2c_max_tag_check 1
core_0_l2c_max_fill 1
llc_set 2048
llc_way 16
llc_rq_size 32
llc_wq_size 32
llc_pq_size 32
llc_mshr_size 64
llc_hit_latency 10
llc_fill_latency 10
llc_max_tag_check 1
llc_max_fill 1
dram_channels 1
dram_ranks 1
dram_bankgroups 8
dram_banks 4
dram_rows 65536
dram_columns 1024
dram_channel_width 8
dram_rq_size 64
dram_wq_size 64
dram_size 17179869184
core_0_itlb_prefetcher no
core_0_dtlb_prefetcher no
core_0_stlb_prefetcher no
core_0_l1i_prefetcher next_line
core_0_l1d_prefetcher berti
core_0_l2c_prefetcher ip_stride
llc_prefetcher no
llc_replacement drrip

Core_0_instructions 50000000
Core_0_cycles 46299214
Core_0_IPC 1.07993
Core_0_branch_prediction_accuracy 91.606
Core_0_branch_MPKI 10.3374
Core_0_average_ROB_occupancy_at_mispredict 44.039

Core_0_ITLB_total_access 1893719
Core_0_ITLB_total_hit 1893719
Core_0_ITLB_total_miss 0
Core_0_ITLB_total_MPKI 0
Core_0_ITLB_total_miss_rate 0
Core_0_ITLB_demand_access 1893719
Core_0_ITLB_demand_hit 1893719
Core_0_ITLB_demand_miss 0
Core_0_ITLB_demand_MPKI 0
Core_0_ITLB_demand_miss_rate 0
Core_0_ITLB_load_access 1893719
Core_0_ITLB_load_hit 1893719
Core_0_ITLB_load_miss 0
Core_0_ITLB_load_MPKI 0
Core_0_ITLB_load_miss_rate 0
Core_0_ITLB_rfo_access 0
Core_0_ITLB_rfo_hit 0
Core_0_ITLB_rfo_miss 0
Core_0_ITLB_rfo_MPKI 0
Core_0_ITLB_rfo_miss_rate 0
Core_0_ITLB_prefetch_access 0
Core_0_ITLB_prefetch_hit 0
Core_0_ITLB_prefetch_miss 0
Core_0_ITLB_prefetch_MPKI 0
Core_0_ITLB_prefetch_miss_rate 0
Core_0_ITLB_writeback_access 0
Core_0_ITLB_writeback_hit 0
Core_0_ITLB_writeback_miss 0
Core_0_ITLB_writeback_MPKI 0
Core_0_ITLB_writeback_miss_rate 0
Core_0_ITLB_prefetch_requested 0
Core_0_ITLB_prefetch_issued 0
Core_0_ITLB_prefetch_useful 0
Core_0_ITLB_prefetch_useless 0
Core_0_ITLB_prefetch_late 0
Core_0_ITLB_prefetch_accuracy 0
Core_0_ITLB_prefetch_coverage 0

Core_0_DTLB_total_access 12744689
Core_0_DTLB_total_hit 12727016
Core_0_DTLB_total_miss 17673
Core_0_DTLB_total_MPKI 0.35346
Core_0_DTLB_total_miss_rate 0.0013867
Core_0_DTLB_demand_access 12744689
Core_0_DTLB_demand_hit 12727016
Core_0_DTLB_demand_miss 17673
Core_0_DTLB_demand_MPKI 0.35346
Core_0_DTLB_demand_miss_rate 0.0013867
Core_0_DTLB_load_access 12744689
Core_0_DTLB_load_hit 12727016
Core_0_DTLB_load_miss 17673
Core_0_DTLB_load_MPKI 0.35346
Core_0_DTLB_load_miss_rate 0.0013867
Core_0_DTLB_rfo_access 0
Core_0_DTLB_rfo_hit 0
Core_0_DTLB_rfo_miss 0
Core_0_DTLB_rfo_MPKI 0
Core_0_DTLB_rfo_miss_rate 0
Core_0_DTLB_prefetch_access 0
Core_0_DTLB_prefetch_hit 0
Core_0_DTLB_prefetch_miss 0
Core_0_DTLB_prefetch_MPKI 0
Core_0_DTLB_prefetch_miss_rate 0
Core_0_DTLB_writeback_access 0
Core_0_DTLB_writeback_hit 0
Core_0_DTLB_writeback_miss 0
Core_0_DTLB_writeback_MPKI 0
Core_0_DTLB_writeback_miss_rate 0
Core_0_DTLB_prefetch_requested 0
Core_0_DTLB_prefetch_issued 0
Core_0_DTLB_prefetch_useful 0
Core_0_DTLB_prefetch_useless 0
Core_0_DTLB_prefetch_late 0
Core_0_DTLB_prefetch_accuracy 0
Core_0_DTLB_prefetch_coverage 0

Core_0_STLB_total_access 11877
Core_0_STLB_total_hit 11692
Core_0_STLB_total_miss 185
Core_0_STLB_total_MPKI 0.0037
Core_0_STLB_total_miss_rate 0.0155763
Core_0_STLB_demand_access 11877
Core_0_STLB_demand_hit 11692
Core_0_STLB_demand_miss 185
Core_0_STLB_demand_MPKI 0.0037
Core_0_STLB_demand_miss_rate 0.0155763
Core_0_STLB_load_access 11877
Core_0_STLB_load_hit 11692
Core_0_STLB_load_miss 185
Core_0_STLB_load_MPKI 0.0037
Core_0_STLB_load_miss_rate 0.0155763
Core_0_STLB_rfo_access 0
Core_0_STLB_rfo_hit 0
Core_0_STLB_rfo_miss 0
Core_0_STLB_rfo_MPKI 0
Core_0_STLB_rfo_miss_rate 0
Core_0_STLB_prefetch_access 0
Core_0_STLB_prefetch_hit 0
Core_0_STLB_prefetch_miss 0
Core_0_STLB_prefetch_MPKI 0
Core_0_STLB_prefetch_miss_rate 0
Core_0_STLB_writeback_access 0
Core_0_STLB_writeback_hit 0
Core_0_STLB_writeback_miss 0
Core_0_STLB_writeback_MPKI 0
Core_0_STLB_writeback_miss_rate 0
Core_0_STLB_prefetch_requested 0
Core_0_STLB_prefetch_issued 0
Core_0_STLB_prefetch_useful 0
Core_0_STLB_prefetch_useless 0
Core_0_STLB_prefetch_late 0
Core_0_STLB_prefetch_accuracy 0
Core_0_STLB_prefetch_coverage 0

Core_0_L1I_total_access 2250193
Core_0_L1I_total_hit 2240030
Core_0_L1I_total_miss 10163
Core_0_L1I_total_MPKI 0.20326
Core_0_L1I_total_miss_rate 0.0045165
Core_0_L1I_demand_access 2250193
Core_0_L1I_demand_hit 2240030
Core_0_L1I_demand_miss 10163
Core_0_L1I_demand_MPKI 0.20326
Core_0_L1I_demand_miss_rate 0.0045165
Core_0_L1I_load_access 2250193
Core_0_L1I_load_hit 2240030
Core_0_L1I_load_miss 10163
Core_0_L1I_load_MPKI 0.20326
Core_0_L1I_load_miss_rate 0.0045165
Core_0_L1I_rfo_access 0
Core_0_L1I_rfo_hit 0
Core_0_L1I_rfo_miss 0
Core_0_L1I_rfo_MPKI 0
Core_0_L1I_rfo_miss_rate 0
Core_0_L1I_prefetch_access 0
Core_0_L1I_prefetch_hit 0
Core_0_L1I_prefetch_miss 0
Core_0_L1I_prefetch_MPKI 0
Core_0_L1I_prefetch_miss_rate 0
Core_0_L1I_writeback_access 0
Core_0_L1I_writeback_hit 0
Core_0_L1I_writeback_miss 0
Core_0_L1I_writeback_MPKI 0
Core_0_L1I_writeback_miss_rate 0
Core_0_L1I_prefetch_requested 0
Core_0_L1I_prefetch_issued 0
Core_0_L1I_prefetch_useful 0
Core_0_L1I_prefetch_useless 0
Core_0_L1I_prefetch_late 0
Core_0_L1I_prefetch_accuracy 0
Core_0_L1I_prefetch_coverage 0

Core_0_L1D_total_access 13242944
Core_0_L1D_total_hit 12858130
Core_0_L1D_total_miss 384814
Core_0_L1D_total_MPKI 7.69628
Core_0_L1D_total_miss_rate 0.029058
Core_0_L1D_demand_access 9105640
Core_0_L1D_demand_hit 9057071
Core_0_L1D_demand_miss 48569
Core_0_L1D_demand_MPKI 0.97138
Core_0_L1D_demand_miss_rate 0.00533395
Core_0_L1D_load_access 9105640
Core_0_L1D_load_hit 9057071
Core_0_L1D_load_miss 48569
Core_0_L1D_load_MPKI 0.97138
Core_0_L1D_load_miss_rate 0.00533395
Core_0_L1D_rfo_access 0
Core_0_L1D_rfo_hit 0
Core_0_L1D_rfo_miss 0
Core_0_L1D_rfo_MPKI 0
Core_0_L1D_rfo_miss_rate 0
Core_0_L1D_prefetch_access 179155
Core_0_L1D_prefetch_hit 74971
Core_0_L1D_prefetch_miss 104184
Core_0_L1D_prefetch_MPKI 2.08368
Core_0_L1D_prefetch_miss_rate 0.58153
Core_0_L1D_writeback_access 3958149
Core_0_L1D_writeback_hit 3726088
Core_0_L1D_writeback_miss 232061
Core_0_L1D_writeback_MPKI 4.64122
Core_0_L1D_writeback_miss_rate 0.0586287
Core_0_L1D_prefetch_requested 193790
Core_0_L1D_prefetch_issued 179147
Core_0_L1D_prefetch_useful 94180
Core_0_L1D_prefetch_useless 8713
Core_0_L1D_prefetch_late 2121
Core_0_L1D_prefetch_accuracy 0.525714
Core_0_L1D_prefetch_coverage 0.659759

Core_0_L2C_total_access 373478
Core_0_L2C_total_hit 317797
Core_0_L2C_total_miss 55681
Core_0_L2C_total_MPKI 1.11362
Core_0_L2C_total_miss_rate 0.149088
Core_0_L2C_demand_access 127591
Core_0_L2C_demand_hit 92631
Core_0_L2C_demand_miss 34960
Core_0_L2C_demand_MPKI 0.6992
Core_0_L2C_demand_miss_rate 0.274001
Core_0_L2C_load_access 40401
Core_0_L2C_load_hit 33015
Core_0_L2C_load_miss 7386
Core_0_L2C_load_MPKI 0.14772
Core_0_L2C_load_miss_rate 0.182817
Core_0_L2C_rfo_access 87190
Core_0_L2C_rfo_hit 59616
Core_0_L2C_rfo_miss 27574
Core_0_L2C_rfo_MPKI 0.55148
Core_0_L2C_rfo_miss_rate 0.316252
Core_0_L2C_prefetch_access 136800
Core_0_L2C_prefetch_hit 116086
Core_0_L2C_prefetch_miss 20714
Core_0_L2C_prefetch_MPKI 0.41428
Core_0_L2C_prefetch_miss_rate 0.151418
Core_0_L2C_writeback_access 109087
Core_0_L2C_writeback_hit 109080
Core_0_L2C_writeback_miss 7
Core_0_L2C_writeback_MPKI 0.00014
Core_0_L2C_writeback_miss_rate 6.4169e-05
Core_0_L2C_prefetch_requested 33885
Core_0_L2C_prefetch_issued 33885
Core_0_L2C_prefetch_useful 2063
Core_0_L2C_prefetch_useless 380
Core_0_L2C_prefetch_late 68
Core_0_L2C_prefetch_accuracy 0.0608824
Core_0_L2C_prefetch_coverage 0.0557221

Core_0_LLC_total_access 87877
Core_0_LLC_total_hit 75436
Core_0_LLC_total_miss 12441
Core_0_LLC_total_MPKI 0.24882
Core_0_LLC_total_miss_rate 0.141573
Core_0_LLC_demand_access 34892
Core_0_LLC_demand_hit 33591
Core_0_LLC_demand_miss 1301
Core_0_LLC_demand_MPKI 0.02602
Core_0_LLC_demand_miss_rate 0.0372865
Core_0_LLC_load_access 7318
Core_0_LLC_load_hit 6214
Core_0_LLC_load_miss 1104
Core_0_LLC_load_MPKI 0.02208
Core_0_LLC_load_miss_rate 0.150861
Core_0_LLC_rfo_access 27574
Core_0_LLC_rfo_hit 27377
Core_0_LLC_rfo_miss 197
Core_0_LLC_rfo_MPKI 0.00394
Core_0_LLC_rfo_miss_rate 0.00714441
Core_0_LLC_prefetch_access 18493
Core_0_LLC_prefetch_hit 7356
Core_0_LLC_prefetch_miss 11137
Core_0_LLC_prefetch_MPKI 0.22274
Core_0_LLC_prefetch_miss_rate 0.602228
Core_0_LLC_writeback_access 34492
Core_0_LLC_writeback_hit 34489
Core_0_LLC_writeback_miss 3
Core_0_LLC_writeback_MPKI 6e-05
Core_0_LLC_writeback_miss_rate 8.69767e-05
Core_0_LLC_prefetch_requested 0
Core_0_LLC_prefetch_issued 0
Core_0_LLC_prefetch_useful 0
Core_0_LLC_prefetch_useless 0
Core_0_LLC_prefetch_late 0
Core_0_LLC_prefetch_accuracy 0
Core_0_LLC_prefetch_coverage 0

[DRAM Statistics]
Channel_0_RQ_row_buffer_hit 553
Channel_0_RQ_row_buffer_miss 11747
Channel_0_WQ_row_buffer_hit 46
Channel_0_WQ_row_buffer_miss 213
Channel_0_WQ_full 0
Channel_0_dbus_congested 21070
DRAM_total_RQ_row_buffer_hit 553
DRAM_total_RQ_row_buffer_miss 11747
DRAM_total_WQ_row_buffer_hit 46
DRAM_total_WQ_row_buffer_miss 213
DRAM_total_WQ_full 0
DRAM_total_dbus_congested 21070
DRAM_avg_congested_cycle 3.47518

======STLB miss causes ========
Core_0_STLB_miss_cause_breakdown
Core_0_STLB_cause_Demand_Data_miss 97
Core_0_STLB_cause_Demand_Data_miss_rate 0.00816705
Core_0_STLB_cause_Demand_Instruction_miss 0
Core_0_STLB_cause_Demand_Instruction_miss_rate 0
Core_0_STLB_cause_L1D_Prefetch_miss 88
Core_0_STLB_cause_L1D_Prefetch_miss_rate 0.00740928
Core_0_STLB_cause_L1I_Prefetch_miss 0
Core_0_STLB_cause_L1I_Prefetch_miss_rate 0
Core_0_STLB_cause_Other_miss 0
Core_0_STLB_cause_Other_miss_rate 0
Core_0_STLB_Demand_miss 97
Core_0_STLB_Demand_miss_rate 0.00816705
Core_0_STLB_L1D_Prefetch_miss 88
Core_0_STLB_L1D_Prefetch_miss_rate 0.00740928
Core_0_STLB_Other_miss 0
Core_0_STLB_Other_miss_rate 0
