[VMEM] WARNING: physical memory size is smaller than virtual memory size.

*** ChampSim Multicore Out-of-Order Simulator ***
Warmup Instructions: 20000000
Simulation Instructions: 50000000
Number of CPUs: 1
Page size: 4096
STLB ideal mode: off
Core 0: /data0/tzh/champsim_traces/SPEC17/623.xalancbmk_s-10B.champsimtrace.xz
 L1D Berti prefetcher
Off-chip DRAM Size: 16 GiB Channels: 1 Width: 64-bit Data Rate: 3205 MT/s
Warmup halting CPU 0 at instruction 20000002 cycle 5247056 for remainder of phase
Warmup finished CPU 0 instructions: 20000002 cycles: 5247056 cumulative IPC: 3.812 (Simulation time: 00 hr 00 min 58 sec)
Warmup complete CPU 0 instructions: 20000002 cycles: 5247056 cumulative IPC: 3.812 (Simulation time: 00 hr 00 min 58 sec)
Simulation finished CPU 0 instructions: 50000005 cycles: 79979197 cumulative IPC: 0.6252 (Simulation time: 00 hr 09 min 20 sec)
Simulation complete CPU 0 instructions: 50000005 cycles: 79979197 cumulative IPC: 0.6252 (Simulation time: 00 hr 09 min 20 sec)

ChampSim completed all CPUs

=== Simulation ===
CPU 0 runs /data0/tzh/champsim_traces/SPEC17/623.xalancbmk_s-10B.champsimtrace.xz

Region of Interest Statistics

CPU 0 cumulative IPC: 0.6252 instructions: 50000005 cycles: 79979197
CPU 0 Branch Prediction Accuracy: 99.32% MPKI: 1.761 Average ROB Occupancy at Mispredict: 94.96
Branch type MPKI
BRANCH_DIRECT_JUMP: 0.09068
BRANCH_INDIRECT: 0.01906
BRANCH_CONDITIONAL: 1.151
BRANCH_DIRECT_CALL: 4e-05
BRANCH_INDIRECT_CALL: 0.1207
BRANCH_RETURN: 0.3802

cpu0->cpu0_STLB TOTAL        ACCESS:     401722 HIT:     120027 MISS:     281695 MSHR_MERGE:          0
cpu0->cpu0_STLB LOAD         ACCESS:     401722 HIT:     120027 MISS:     281695 MSHR_MERGE:          0
cpu0->cpu0_STLB RFO          ACCESS:          0 HIT:          0 MISS:          0 MSHR_MERGE:          0
cpu0->cpu0_STLB PREFETCH     ACCESS:          0 HIT:          0 MISS:          0 MSHR_MERGE:          0
cpu0->cpu0_STLB WRITE        ACCESS:          0 HIT:          0 MISS:          0 MSHR_MERGE:          0
cpu0->cpu0_STLB TRANSLATION  ACCESS:          0 HIT:          0 MISS:          0 MSHR_MERGE:          0
cpu0->cpu0_STLB PREFETCH REQUESTED:          0 ISSUED:          0 USEFUL:          0 USELESS:          0 LATE:          0
cpu0->cpu0_STLB AVERAGE MISS LATENCY: 49.39 cycles
cpu0->cpu0_L2C TOTAL        ACCESS:    2429307 HIT:     367078 MISS:    2062229 MSHR_MERGE:      16077
cpu0->cpu0_L2C LOAD         ACCESS:    1346834 HIT:     224532 MISS:    1122302 MSHR_MERGE:        605
cpu0->cpu0_L2C RFO          ACCESS:      21185 HIT:       8018 MISS:      13167 MSHR_MERGE:          1
cpu0->cpu0_L2C PREFETCH     ACCESS:     951372 HIT:      87923 MISS:     863449 MSHR_MERGE:      15471
cpu0->cpu0_L2C WRITE        ACCESS:      43384 HIT:      43080 MISS:        304 MSHR_MERGE:          0
cpu0->cpu0_L2C TRANSLATION  ACCESS:      66532 HIT:       3525 MISS:      63007 MSHR_MERGE:          0
cpu0->cpu0_L2C PREFETCH REQUESTED:      74325 ISSUED:      74318 USEFUL:      18277 USELESS:      27037 LATE:        606
cpu0->cpu0_L2C AVERAGE MISS LATENCY: 140.6 cycles
cpu0->cpu0_L1I TOTAL        ACCESS:    7609056 HIT:    7351102 MISS:     257954 MSHR_MERGE:      82171
cpu0->cpu0_L1I LOAD         ACCESS:    7609056 HIT:    7351102 MISS:     257954 MSHR_MERGE:      82171
cpu0->cpu0_L1I RFO          ACCESS:          0 HIT:          0 MISS:          0 MSHR_MERGE:          0
cpu0->cpu0_L1I PREFETCH     ACCESS:          0 HIT:          0 MISS:          0 MSHR_MERGE:          0
cpu0->cpu0_L1I WRITE        ACCESS:          0 HIT:          0 MISS:          0 MSHR_MERGE:          0
cpu0->cpu0_L1I TRANSLATION  ACCESS:          0 HIT:          0 MISS:          0 MSHR_MERGE:          0
cpu0->cpu0_L1I PREFETCH REQUESTED:          0 ISSUED:          0 USEFUL:          0 USELESS:          0 LATE:          0
cpu0->cpu0_L1I AVERAGE MISS LATENCY: 20.57 cycles
cpu0->cpu0_L1D TOTAL        ACCESS:   14508846 HIT:   11022688 MISS:    3486158 MSHR_MERGE:    1350327
cpu0->cpu0_L1D LOAD         ACCESS:   10459948 HIT:    8090427 MISS:    2369521 MSHR_MERGE:    1198465
cpu0->cpu0_L1D RFO          ACCESS:          0 HIT:          0 MISS:          0 MSHR_MERGE:          0
cpu0->cpu0_L1D PREFETCH     ACCESS:    1102507 HIT:     189989 MISS:     912518 MSHR_MERGE:      35462
cpu0->cpu0_L1D WRITE        ACCESS:    2397378 HIT:    2267964 MISS:     129414 MSHR_MERGE:     108227
cpu0->cpu0_L1D TRANSLATION  ACCESS:     549013 HIT:     474308 MISS:      74705 MSHR_MERGE:       8173
cpu0->cpu0_L1D PREFETCH REQUESTED:    1106996 ISSUED:    1102507 USEFUL:     183111 USELESS:     693812 LATE:      36700
cpu0->cpu0_L1D AVERAGE MISS LATENCY: 140.2 cycles
cpu0->cpu0_ITLB TOTAL        ACCESS:    6890588 HIT:    6811501 MISS:      79087 MSHR_MERGE:      47401
cpu0->cpu0_ITLB LOAD         ACCESS:    6890588 HIT:    6811501 MISS:      79087 MSHR_MERGE:      47401
cpu0->cpu0_ITLB RFO          ACCESS:          0 HIT:          0 MISS:          0 MSHR_MERGE:          0
cpu0->cpu0_ITLB PREFETCH     ACCESS:          0 HIT:          0 MISS:          0 MSHR_MERGE:          0
cpu0->cpu0_ITLB WRITE        ACCESS:          0 HIT:          0 MISS:          0 MSHR_MERGE:          0
cpu0->cpu0_ITLB TRANSLATION  ACCESS:          0 HIT:          0 MISS:          0 MSHR_MERGE:          0
cpu0->cpu0_ITLB PREFETCH REQUESTED:          0 ISSUED:          0 USEFUL:          0 USELESS:          0 LATE:          0
cpu0->cpu0_ITLB AVERAGE MISS LATENCY: 12.3 cycles
cpu0->cpu0_DTLB TOTAL        ACCESS:   13363021 HIT:   12568475 MISS:     794546 MSHR_MERGE:     424510
cpu0->cpu0_DTLB LOAD         ACCESS:   13363021 HIT:   12568475 MISS:     794546 MSHR_MERGE:     424510
cpu0->cpu0_DTLB RFO          ACCESS:          0 HIT:          0 MISS:          0 MSHR_MERGE:          0
cpu0->cpu0_DTLB PREFETCH     ACCESS:          0 HIT:          0 MISS:          0 MSHR_MERGE:          0
cpu0->cpu0_DTLB WRITE        ACCESS:          0 HIT:          0 MISS:          0 MSHR_MERGE:          0
cpu0->cpu0_DTLB TRANSLATION  ACCESS:          0 HIT:          0 MISS:          0 MSHR_MERGE:          0
cpu0->cpu0_DTLB PREFETCH REQUESTED:          0 ISSUED:          0 USEFUL:          0 USELESS:          0 LATE:          0
cpu0->cpu0_DTLB AVERAGE MISS LATENCY: 42.73 cycles
cpu0->LLC TOTAL        ACCESS:    2068620 HIT:     633989 MISS:    1434631 MSHR_MERGE:        370
cpu0->LLC LOAD         ACCESS:    1121697 HIT:     476036 MISS:     645661 MSHR_MERGE:         72
cpu0->LLC RFO          ACCESS:      13166 HIT:       4407 MISS:       8759 MSHR_MERGE:          0
cpu0->LLC PREFETCH     ACCESS:     847978 HIT:     111871 MISS:     736107 MSHR_MERGE:        298
cpu0->LLC WRITE        ACCESS:      22772 HIT:      14794 MISS:       7978 MSHR_MERGE:          0
cpu0->LLC TRANSLATION  ACCESS:      63007 HIT:      26881 MISS:      36126 MSHR_MERGE:          0
cpu0->LLC PREFETCH REQUESTED:          0 ISSUED:          0 USEFUL:          0 USELESS:          0 LATE:          0
cpu0->LLC AVERAGE MISS LATENCY: 214.6 cycles

DRAM Statistics

Channel 0 RQ ROW_BUFFER_HIT:      27193
  ROW_BUFFER_MISS:    1398969
  AVG DBUS CONGESTED CYCLE: 4.575
Channel 0 WQ ROW_BUFFER_HIT:       4102
  ROW_BUFFER_MISS:       7246
  FULL:          0
Channel 0 REFRESHES ISSUED:       6665

[ROI Statistics]
[System Configuration]
num_cpus 1
cpu_freq 4000
fetch_width 6
decode_width 6
dispatch_width 6
execute_width 6
lq_width 2
sq_width 2
retire_width 6
scheduler_size 128
branch_mispredict_penalty 15
rob_size 352
lq_size 128
sq_size 72
ifetch_buffer_size 64
decode_buffer_size 32
dispatch_buffer_size 32
register_file_size 288
decode_latency 1
dispatch_latency 1
schedule_latency 1
execute_latency 1
page_size 4096
block_size 64
core_0_itlb_set 16
core_0_itlb_way 4
core_0_itlb_rq_size 16
core_0_itlb_wq_size 16
core_0_itlb_pq_size 0
core_0_itlb_mshr_size 8
core_0_itlb_hit_latency 1
core_0_itlb_fill_latency 1
core_0_itlb_max_tag_check 2
core_0_itlb_max_fill 2
core_0_dtlb_set 16
core_0_dtlb_way 4
core_0_dtlb_rq_size 16
core_0_dtlb_wq_size 16
core_0_dtlb_pq_size 0
core_0_dtlb_mshr_size 8
core_0_dtlb_hit_latency 1
core_0_dtlb_fill_latency 1
core_0_dtlb_max_tag_check 2
core_0_dtlb_max_fill 2
core_0_stlb_set 128
core_0_stlb_way 12
core_0_stlb_rq_size 32
core_0_stlb_wq_size 32
core_0_stlb_pq_size 0
core_0_stlb_mshr_size 16
core_0_stlb_hit_latency 4
core_0_stlb_fill_latency 4
core_0_stlb_max_tag_check 1
core_0_stlb_max_fill 1
core_0_l1i_set 64
core_0_l1i_way 8
core_0_l1i_rq_size 64
core_0_l1i_wq_size 64
core_0_l1i_pq_size 32
core_0_l1i_mshr_size 8
core_0_l1i_hit_latency 2
core_0_l1i_fill_latency 2
core_0_l1i_max_tag_check 2
core_0_l1i_max_fill 2
core_0_l1d_set 64
core_0_l1d_way 12
core_0_l1d_rq_size 64
core_0_l1d_wq_size 64
core_0_l1d_pq_size 8
core_0_l1d_mshr_size 16
core_0_l1d_hit_latency 2
core_0_l1d_fill_latency 3
core_0_l1d_max_tag_check 2
core_0_l1d_max_fill 2
core_0_l2c_set 1024
core_0_l2c_way 8
core_0_l2c_rq_size 32
core_0_l2c_wq_size 32
core_0_l2c_pq_size 16
core_0_l2c_mshr_size 32
core_0_l2c_hit_latency 5
core_0_l2c_fill_latency 5
core_0_l2c_max_tag_check 1
core_0_l2c_max_fill 1
llc_set 2048
llc_way 16
llc_rq_size 32
llc_wq_size 32
llc_pq_size 32
llc_mshr_size 64
llc_hit_latency 10
llc_fill_latency 10
llc_max_tag_check 1
llc_max_fill 1
dram_channels 1
dram_ranks 1
dram_bankgroups 8
dram_banks 4
dram_rows 65536
dram_columns 1024
dram_channel_width 8
dram_rq_size 64
dram_wq_size 64
dram_size 17179869184
core_0_itlb_prefetcher no
core_0_dtlb_prefetcher no
core_0_stlb_prefetcher no
core_0_l1i_prefetcher next_line
core_0_l1d_prefetcher berti
core_0_l2c_prefetcher ip_stride
llc_prefetcher no
llc_replacement drrip

Core_0_instructions 50000005
Core_0_cycles 79979197
Core_0_IPC 0.625163
Core_0_branch_prediction_accuracy 99.3209
Core_0_branch_MPKI 1.76126
Core_0_average_ROB_occupancy_at_mispredict 94.9557

Core_0_ITLB_total_access 6890588
Core_0_ITLB_total_hit 6811501
Core_0_ITLB_total_miss 79087
Core_0_ITLB_total_MPKI 1.58174
Core_0_ITLB_total_miss_rate 0.0114775
Core_0_ITLB_demand_access 6890588
Core_0_ITLB_demand_hit 6811501
Core_0_ITLB_demand_miss 79087
Core_0_ITLB_demand_MPKI 1.58174
Core_0_ITLB_demand_miss_rate 0.0114775
Core_0_ITLB_load_access 6890588
Core_0_ITLB_load_hit 6811501
Core_0_ITLB_load_miss 79087
Core_0_ITLB_load_MPKI 1.58174
Core_0_ITLB_load_miss_rate 0.0114775
Core_0_ITLB_rfo_access 0
Core_0_ITLB_rfo_hit 0
Core_0_ITLB_rfo_miss 0
Core_0_ITLB_rfo_MPKI 0
Core_0_ITLB_rfo_miss_rate 0
Core_0_ITLB_prefetch_access 0
Core_0_ITLB_prefetch_hit 0
Core_0_ITLB_prefetch_miss 0
Core_0_ITLB_prefetch_MPKI 0
Core_0_ITLB_prefetch_miss_rate 0
Core_0_ITLB_writeback_access 0
Core_0_ITLB_writeback_hit 0
Core_0_ITLB_writeback_miss 0
Core_0_ITLB_writeback_MPKI 0
Core_0_ITLB_writeback_miss_rate 0
Core_0_ITLB_prefetch_requested 0
Core_0_ITLB_prefetch_issued 0
Core_0_ITLB_prefetch_useful 0
Core_0_ITLB_prefetch_useless 0
Core_0_ITLB_prefetch_late 0
Core_0_ITLB_prefetch_accuracy 0
Core_0_ITLB_prefetch_coverage 0

Core_0_DTLB_total_access 13363021
Core_0_DTLB_total_hit 12568475
Core_0_DTLB_total_miss 794546
Core_0_DTLB_total_MPKI 15.8909
Core_0_DTLB_total_miss_rate 0.0594586
Core_0_DTLB_demand_access 13363021
Core_0_DTLB_demand_hit 12568475
Core_0_DTLB_demand_miss 794546
Core_0_DTLB_demand_MPKI 15.8909
Core_0_DTLB_demand_miss_rate 0.0594586
Core_0_DTLB_load_access 13363021
Core_0_DTLB_load_hit 12568475
Core_0_DTLB_load_miss 794546
Core_0_DTLB_load_MPKI 15.8909
Core_0_DTLB_load_miss_rate 0.0594586
Core_0_DTLB_rfo_access 0
Core_0_DTLB_rfo_hit 0
Core_0_DTLB_rfo_miss 0
Core_0_DTLB_rfo_MPKI 0
Core_0_DTLB_rfo_miss_rate 0
Core_0_DTLB_prefetch_access 0
Core_0_DTLB_prefetch_hit 0
Core_0_DTLB_prefetch_miss 0
Core_0_DTLB_prefetch_MPKI 0
Core_0_DTLB_prefetch_miss_rate 0
Core_0_DTLB_writeback_access 0
Core_0_DTLB_writeback_hit 0
Core_0_DTLB_writeback_miss 0
Core_0_DTLB_writeback_MPKI 0
Core_0_DTLB_writeback_miss_rate 0
Core_0_DTLB_prefetch_requested 0
Core_0_DTLB_prefetch_issued 0
Core_0_DTLB_prefetch_useful 0
Core_0_DTLB_prefetch_useless 0
Core_0_DTLB_prefetch_late 0
Core_0_DTLB_prefetch_accuracy 0
Core_0_DTLB_prefetch_coverage 0

Core_0_STLB_total_access 401722
Core_0_STLB_total_hit 120027
Core_0_STLB_total_miss 281695
Core_0_STLB_total_MPKI 5.6339
Core_0_STLB_total_miss_rate 0.701219
Core_0_STLB_demand_access 401722
Core_0_STLB_demand_hit 120027
Core_0_STLB_demand_miss 281695
Core_0_STLB_demand_MPKI 5.6339
Core_0_STLB_demand_miss_rate 0.701219
Core_0_STLB_load_access 401722
Core_0_STLB_load_hit 120027
Core_0_STLB_load_miss 281695
Core_0_STLB_load_MPKI 5.6339
Core_0_STLB_load_miss_rate 0.701219
Core_0_STLB_rfo_access 0
Core_0_STLB_rfo_hit 0
Core_0_STLB_rfo_miss 0
Core_0_STLB_rfo_MPKI 0
Core_0_STLB_rfo_miss_rate 0
Core_0_STLB_prefetch_access 0
Core_0_STLB_prefetch_hit 0
Core_0_STLB_prefetch_miss 0
Core_0_STLB_prefetch_MPKI 0
Core_0_STLB_prefetch_miss_rate 0
Core_0_STLB_writeback_access 0
Core_0_STLB_writeback_hit 0
Core_0_STLB_writeback_miss 0
Core_0_STLB_writeback_MPKI 0
Core_0_STLB_writeback_miss_rate 0
Core_0_STLB_prefetch_requested 0
Core_0_STLB_prefetch_issued 0
Core_0_STLB_prefetch_useful 0
Core_0_STLB_prefetch_useless 0
Core_0_STLB_prefetch_late 0
Core_0_STLB_prefetch_accuracy 0
Core_0_STLB_prefetch_coverage 0

Core_0_L1I_total_access 7609056
Core_0_L1I_total_hit 7351102
Core_0_L1I_total_miss 257954
Core_0_L1I_total_MPKI 5.15908
Core_0_L1I_total_miss_rate 0.0339009
Core_0_L1I_demand_access 7609056
Core_0_L1I_demand_hit 7351102
Core_0_L1I_demand_miss 257954
Core_0_L1I_demand_MPKI 5.15908
Core_0_L1I_demand_miss_rate 0.0339009
Core_0_L1I_load_access 7609056
Core_0_L1I_load_hit 7351102
Core_0_L1I_load_miss 257954
Core_0_L1I_load_MPKI 5.15908
Core_0_L1I_load_miss_rate 0.0339009
Core_0_L1I_rfo_access 0
Core_0_L1I_rfo_hit 0
Core_0_L1I_rfo_miss 0
Core_0_L1I_rfo_MPKI 0
Core_0_L1I_rfo_miss_rate 0
Core_0_L1I_prefetch_access 0
Core_0_L1I_prefetch_hit 0
Core_0_L1I_prefetch_miss 0
Core_0_L1I_prefetch_MPKI 0
Core_0_L1I_prefetch_miss_rate 0
Core_0_L1I_writeback_access 0
Core_0_L1I_writeback_hit 0
Core_0_L1I_writeback_miss 0
Core_0_L1I_writeback_MPKI 0
Core_0_L1I_writeback_miss_rate 0
Core_0_L1I_prefetch_requested 0
Core_0_L1I_prefetch_issued 0
Core_0_L1I_prefetch_useful 0
Core_0_L1I_prefetch_useless 0
Core_0_L1I_prefetch_late 0
Core_0_L1I_prefetch_accuracy 0
Core_0_L1I_prefetch_coverage 0

Core_0_L1D_total_access 13959833
Core_0_L1D_total_hit 10548380
Core_0_L1D_total_miss 3411453
Core_0_L1D_total_MPKI 68.2291
Core_0_L1D_total_miss_rate 0.244376
Core_0_L1D_demand_access 10459948
Core_0_L1D_demand_hit 8090427
Core_0_L1D_demand_miss 2369521
Core_0_L1D_demand_MPKI 47.3904
Core_0_L1D_demand_miss_rate 0.226533
Core_0_L1D_load_access 10459948
Core_0_L1D_load_hit 8090427
Core_0_L1D_load_miss 2369521
Core_0_L1D_load_MPKI 47.3904
Core_0_L1D_load_miss_rate 0.226533
Core_0_L1D_rfo_access 0
Core_0_L1D_rfo_hit 0
Core_0_L1D_rfo_miss 0
Core_0_L1D_rfo_MPKI 0
Core_0_L1D_rfo_miss_rate 0
Core_0_L1D_prefetch_access 1102507
Core_0_L1D_prefetch_hit 189989
Core_0_L1D_prefetch_miss 912518
Core_0_L1D_prefetch_MPKI 18.2504
Core_0_L1D_prefetch_miss_rate 0.827675
Core_0_L1D_writeback_access 2397378
Core_0_L1D_writeback_hit 2267964
Core_0_L1D_writeback_miss 129414
Core_0_L1D_writeback_MPKI 2.58828
Core_0_L1D_writeback_miss_rate 0.0539815
Core_0_L1D_prefetch_requested 1106996
Core_0_L1D_prefetch_issued 1102507
Core_0_L1D_prefetch_useful 183111
Core_0_L1D_prefetch_useless 693812
Core_0_L1D_prefetch_late 36700
Core_0_L1D_prefetch_accuracy 0.166086
Core_0_L1D_prefetch_coverage 0.0717342

Core_0_L2C_total_access 2362775
Core_0_L2C_total_hit 363553
Core_0_L2C_total_miss 1999222
Core_0_L2C_total_MPKI 39.9844
Core_0_L2C_total_miss_rate 0.846133
Core_0_L2C_demand_access 1368019
Core_0_L2C_demand_hit 232550
Core_0_L2C_demand_miss 1135469
Core_0_L2C_demand_MPKI 22.7094
Core_0_L2C_demand_miss_rate 0.83001
Core_0_L2C_load_access 1346834
Core_0_L2C_load_hit 224532
Core_0_L2C_load_miss 1122302
Core_0_L2C_load_MPKI 22.446
Core_0_L2C_load_miss_rate 0.833289
Core_0_L2C_rfo_access 21185
Core_0_L2C_rfo_hit 8018
Core_0_L2C_rfo_miss 13167
Core_0_L2C_rfo_MPKI 0.26334
Core_0_L2C_rfo_miss_rate 0.621525
Core_0_L2C_prefetch_access 951372
Core_0_L2C_prefetch_hit 87923
Core_0_L2C_prefetch_miss 863449
Core_0_L2C_prefetch_MPKI 17.269
Core_0_L2C_prefetch_miss_rate 0.907583
Core_0_L2C_writeback_access 43384
Core_0_L2C_writeback_hit 43080
Core_0_L2C_writeback_miss 304
Core_0_L2C_writeback_MPKI 0.00608
Core_0_L2C_writeback_miss_rate 0.00700719
Core_0_L2C_prefetch_requested 74325
Core_0_L2C_prefetch_issued 74318
Core_0_L2C_prefetch_useful 18277
Core_0_L2C_prefetch_useless 27037
Core_0_L2C_prefetch_late 606
Core_0_L2C_prefetch_accuracy 0.24593
Core_0_L2C_prefetch_coverage 0.0158414

Core_0_LLC_total_access 2005613
Core_0_LLC_total_hit 607108
Core_0_LLC_total_miss 1398505
Core_0_LLC_total_MPKI 27.9701
Core_0_LLC_total_miss_rate 0.697296
Core_0_LLC_demand_access 1134863
Core_0_LLC_demand_hit 480443
Core_0_LLC_demand_miss 654420
Core_0_LLC_demand_MPKI 13.0884
Core_0_LLC_demand_miss_rate 0.576651
Core_0_LLC_load_access 1121697
Core_0_LLC_load_hit 476036
Core_0_LLC_load_miss 645661
Core_0_LLC_load_MPKI 12.9132
Core_0_LLC_load_miss_rate 0.575611
Core_0_LLC_rfo_access 13166
Core_0_LLC_rfo_hit 4407
Core_0_LLC_rfo_miss 8759
Core_0_LLC_rfo_MPKI 0.17518
Core_0_LLC_rfo_miss_rate 0.665274
Core_0_LLC_prefetch_access 847978
Core_0_LLC_prefetch_hit 111871
Core_0_LLC_prefetch_miss 736107
Core_0_LLC_prefetch_MPKI 14.7221
Core_0_LLC_prefetch_miss_rate 0.868073
Core_0_LLC_writeback_access 22772
Core_0_LLC_writeback_hit 14794
Core_0_LLC_writeback_miss 7978
Core_0_LLC_writeback_MPKI 0.15956
Core_0_LLC_writeback_miss_rate 0.350343
Core_0_LLC_prefetch_requested 0
Core_0_LLC_prefetch_issued 0
Core_0_LLC_prefetch_useful 0
Core_0_LLC_prefetch_useless 0
Core_0_LLC_prefetch_late 0
Core_0_LLC_prefetch_accuracy 0
Core_0_LLC_prefetch_coverage 0

[DRAM Statistics]
Channel_0_RQ_row_buffer_hit 27193
Channel_0_RQ_row_buffer_miss 1398969
Channel_0_WQ_row_buffer_hit 4102
Channel_0_WQ_row_buffer_miss 7246
Channel_0_WQ_full 0
Channel_0_dbus_congested 2140058
DRAM_total_RQ_row_buffer_hit 27193
DRAM_total_RQ_row_buffer_miss 1398969
DRAM_total_WQ_row_buffer_hit 4102
DRAM_total_WQ_row_buffer_miss 7246
DRAM_total_WQ_full 0
DRAM_total_dbus_congested 2140058
DRAM_avg_congested_cycle 4.57479

======STLB miss causes ========
Core_0_STLB_miss_cause_breakdown
Core_0_STLB_cause_Demand_Data_miss 243246
Core_0_STLB_cause_Demand_Data_miss_rate 0.605508
Core_0_STLB_cause_Demand_Instruction_miss 2667
Core_0_STLB_cause_Demand_Instruction_miss_rate 0.00663892
Core_0_STLB_cause_L1D_Prefetch_miss 35782
Core_0_STLB_cause_L1D_Prefetch_miss_rate 0.0890715
Core_0_STLB_cause_L1I_Prefetch_miss 0
Core_0_STLB_cause_L1I_Prefetch_miss_rate 0
Core_0_STLB_cause_Other_miss 0
Core_0_STLB_cause_Other_miss_rate 0
Core_0_STLB_Demand_miss 245913
Core_0_STLB_Demand_miss_rate 0.612147
Core_0_STLB_L1D_Prefetch_miss 35782
Core_0_STLB_L1D_Prefetch_miss_rate 0.0890715
Core_0_STLB_Other_miss 0
Core_0_STLB_Other_miss_rate 0
