[VMEM] WARNING: physical memory size is smaller than virtual memory size.

*** ChampSim Multicore Out-of-Order Simulator ***
Warmup Instructions: 20000000
Simulation Instructions: 50000000
Number of CPUs: 1
Page size: 4096
STLB ideal mode: off
Core 0: /data0/tzh/champsim_traces/SPEC17/625.x264_s-33B.champsimtrace.xz
 L1D Berti prefetcher
Off-chip DRAM Size: 16 GiB Channels: 1 Width: 64-bit Data Rate: 3205 MT/s
Warmup halting CPU 0 at instruction 20000001 cycle 4033844 for remainder of phase
Warmup finished CPU 0 instructions: 20000001 cycles: 4033844 cumulative IPC: 4.958 (Simulation time: 00 hr 00 min 43 sec)
Warmup complete CPU 0 instructions: 20000001 cycles: 4033844 cumulative IPC: 4.958 (Simulation time: 00 hr 00 min 43 sec)
Simulation finished CPU 0 instructions: 50000002 cycles: 10799200 cumulative IPC: 4.63 (Simulation time: 00 hr 02 min 45 sec)
Simulation complete CPU 0 instructions: 50000002 cycles: 10799200 cumulative IPC: 4.63 (Simulation time: 00 hr 02 min 45 sec)

ChampSim completed all CPUs

=== Simulation ===
CPU 0 runs /data0/tzh/champsim_traces/SPEC17/625.x264_s-33B.champsimtrace.xz

Region of Interest Statistics

CPU 0 cumulative IPC: 4.63 instructions: 50000002 cycles: 10799200
CPU 0 Branch Prediction Accuracy: 99.5% MPKI: 0.1738 Average ROB Occupancy at Mispredict: 146.8
Branch type MPKI
BRANCH_DIRECT_JUMP: 8e-05
BRANCH_INDIRECT: 2e-05
BRANCH_CONDITIONAL: 0.09984
BRANCH_DIRECT_CALL: 8e-05
BRANCH_INDIRECT_CALL: 0.0011
BRANCH_RETURN: 0.0727

cpu0->cpu0_STLB TOTAL        ACCESS:       2157 HIT:       1954 MISS:        203 MSHR_MERGE:          0
cpu0->cpu0_STLB LOAD         ACCESS:       2157 HIT:       1954 MISS:        203 MSHR_MERGE:          0
cpu0->cpu0_STLB RFO          ACCESS:          0 HIT:          0 MISS:          0 MSHR_MERGE:          0
cpu0->cpu0_STLB PREFETCH     ACCESS:          0 HIT:          0 MISS:          0 MSHR_MERGE:          0
cpu0->cpu0_STLB WRITE        ACCESS:          0 HIT:          0 MISS:          0 MSHR_MERGE:          0
cpu0->cpu0_STLB TRANSLATION  ACCESS:          0 HIT:          0 MISS:          0 MSHR_MERGE:          0
cpu0->cpu0_STLB PREFETCH REQUESTED:          0 ISSUED:          0 USEFUL:          0 USELESS:          0 LATE:          0
cpu0->cpu0_STLB AVERAGE MISS LATENCY: 260.6 cycles
cpu0->cpu0_L2C TOTAL        ACCESS:      15136 HIT:       3022 MISS:      12114 MSHR_MERGE:       1419
cpu0->cpu0_L2C LOAD         ACCESS:       3786 HIT:        639 MISS:       3147 MSHR_MERGE:        153
cpu0->cpu0_L2C RFO          ACCESS:        369 HIT:          3 MISS:        366 MSHR_MERGE:          0
cpu0->cpu0_L2C PREFETCH     ACCESS:      10525 HIT:       1965 MISS:       8560 MSHR_MERGE:       1266
cpu0->cpu0_L2C WRITE        ACCESS:        386 HIT:        384 MISS:          2 MSHR_MERGE:          0
cpu0->cpu0_L2C TRANSLATION  ACCESS:         70 HIT:         31 MISS:         39 MSHR_MERGE:          0
cpu0->cpu0_L2C PREFETCH REQUESTED:       3104 ISSUED:       3104 USEFUL:        558 USELESS:        286 LATE:        153
cpu0->cpu0_L2C AVERAGE MISS LATENCY: 184 cycles
cpu0->cpu0_L1I TOTAL        ACCESS:    6880688 HIT:    6880474 MISS:        214 MSHR_MERGE:         91
cpu0->cpu0_L1I LOAD         ACCESS:    6880688 HIT:    6880474 MISS:        214 MSHR_MERGE:         91
cpu0->cpu0_L1I RFO          ACCESS:          0 HIT:          0 MISS:          0 MSHR_MERGE:          0
cpu0->cpu0_L1I PREFETCH     ACCESS:          0 HIT:          0 MISS:          0 MSHR_MERGE:          0
cpu0->cpu0_L1I WRITE        ACCESS:          0 HIT:          0 MISS:          0 MSHR_MERGE:          0
cpu0->cpu0_L1I TRANSLATION  ACCESS:          0 HIT:          0 MISS:          0 MSHR_MERGE:          0
cpu0->cpu0_L1I PREFETCH REQUESTED:          0 ISSUED:          0 USEFUL:          0 USELESS:          0 LATE:          0
cpu0->cpu0_L1I AVERAGE MISS LATENCY: 208.6 cycles
cpu0->cpu0_L1D TOTAL        ACCESS:    8509808 HIT:    8493755 MISS:      16053 MSHR_MERGE:       4530
cpu0->cpu0_L1D LOAD         ACCESS:    4815398 HIT:    4807531 MISS:       7867 MSHR_MERGE:       4204
cpu0->cpu0_L1D RFO          ACCESS:          0 HIT:          0 MISS:          0 MSHR_MERGE:          0
cpu0->cpu0_L1D PREFETCH     ACCESS:      14588 HIT:       6856 MISS:       7732 MSHR_MERGE:        311
cpu0->cpu0_L1D WRITE        ACCESS:    3679418 HIT:    3679040 MISS:        378 MSHR_MERGE:          9
cpu0->cpu0_L1D TRANSLATION  ACCESS:        404 HIT:        328 MISS:         76 MSHR_MERGE:          6
cpu0->cpu0_L1D PREFETCH REQUESTED:      15658 ISSUED:      14588 USEFUL:       6418 USELESS:        947 LATE:        235
cpu0->cpu0_L1D AVERAGE MISS LATENCY: 159.8 cycles
cpu0->cpu0_ITLB TOTAL        ACCESS:    5871224 HIT:    5871205 MISS:         19 MSHR_MERGE:         14
cpu0->cpu0_ITLB LOAD         ACCESS:    5871224 HIT:    5871205 MISS:         19 MSHR_MERGE:         14
cpu0->cpu0_ITLB RFO          ACCESS:          0 HIT:          0 MISS:          0 MSHR_MERGE:          0
cpu0->cpu0_ITLB PREFETCH     ACCESS:          0 HIT:          0 MISS:          0 MSHR_MERGE:          0
cpu0->cpu0_ITLB WRITE        ACCESS:          0 HIT:          0 MISS:          0 MSHR_MERGE:          0
cpu0->cpu0_ITLB TRANSLATION  ACCESS:          0 HIT:          0 MISS:          0 MSHR_MERGE:          0
cpu0->cpu0_ITLB PREFETCH REQUESTED:          0 ISSUED:          0 USEFUL:          0 USELESS:          0 LATE:          0
cpu0->cpu0_ITLB AVERAGE MISS LATENCY: 268.4 cycles
cpu0->cpu0_DTLB TOTAL        ACCESS:    7831197 HIT:    7827554 MISS:       3643 MSHR_MERGE:       1491
cpu0->cpu0_DTLB LOAD         ACCESS:    7831197 HIT:    7827554 MISS:       3643 MSHR_MERGE:       1491
cpu0->cpu0_DTLB RFO          ACCESS:          0 HIT:          0 MISS:          0 MSHR_MERGE:          0
cpu0->cpu0_DTLB PREFETCH     ACCESS:          0 HIT:          0 MISS:          0 MSHR_MERGE:          0
cpu0->cpu0_DTLB WRITE        ACCESS:          0 HIT:          0 MISS:          0 MSHR_MERGE:          0
cpu0->cpu0_DTLB TRANSLATION  ACCESS:          0 HIT:          0 MISS:          0 MSHR_MERGE:          0
cpu0->cpu0_DTLB PREFETCH REQUESTED:          0 ISSUED:          0 USEFUL:          0 USELESS:          0 LATE:          0
cpu0->cpu0_DTLB AVERAGE MISS LATENCY: 29.06 cycles
cpu0->LLC TOTAL        ACCESS:      10901 HIT:        216 MISS:      10685 MSHR_MERGE:          0
cpu0->LLC LOAD         ACCESS:       2994 HIT:          3 MISS:       2991 MSHR_MERGE:          0
cpu0->LLC RFO          ACCESS:        366 HIT:          0 MISS:        366 MSHR_MERGE:          0
cpu0->LLC PREFETCH     ACCESS:       7294 HIT:          3 MISS:       7291 MSHR_MERGE:          0
cpu0->LLC WRITE        ACCESS:        208 HIT:        208 MISS:          0 MSHR_MERGE:          0
cpu0->LLC TRANSLATION  ACCESS:         39 HIT:          2 MISS:         37 MSHR_MERGE:          0
cpu0->LLC PREFETCH REQUESTED:          0 ISSUED:          0 USEFUL:          0 USELESS:          0 LATE:          0
cpu0->LLC AVERAGE MISS LATENCY: 173.3 cycles

DRAM Statistics

Channel 0 RQ ROW_BUFFER_HIT:        507
  ROW_BUFFER_MISS:      10178
  AVG DBUS CONGESTED CYCLE: 2.838
Channel 0 WQ ROW_BUFFER_HIT:          0
  ROW_BUFFER_MISS:          0
  FULL:          0
Channel 0 REFRESHES ISSUED:        900

[ROI Statistics]
[System Configuration]
num_cpus 1
cpu_freq 4000
fetch_width 6
decode_width 6
dispatch_width 6
execute_width 6
lq_width 2
sq_width 2
retire_width 6
scheduler_size 128
branch_mispredict_penalty 15
rob_size 352
lq_size 128
sq_size 72
ifetch_buffer_size 64
decode_buffer_size 32
dispatch_buffer_size 32
register_file_size 288
decode_latency 1
dispatch_latency 1
schedule_latency 1
execute_latency 1
page_size 4096
block_size 64
core_0_itlb_set 16
core_0_itlb_way 4
core_0_itlb_rq_size 16
core_0_itlb_wq_size 16
core_0_itlb_pq_size 0
core_0_itlb_mshr_size 8
core_0_itlb_hit_latency 1
core_0_itlb_fill_latency 1
core_0_itlb_max_tag_check 2
core_0_itlb_max_fill 2
core_0_dtlb_set 16
core_0_dtlb_way 4
core_0_dtlb_rq_size 16
core_0_dtlb_wq_size 16
core_0_dtlb_pq_size 0
core_0_dtlb_mshr_size 8
core_0_dtlb_hit_latency 1
core_0_dtlb_fill_latency 1
core_0_dtlb_max_tag_check 2
core_0_dtlb_max_fill 2
core_0_stlb_set 128
core_0_stlb_way 12
core_0_stlb_rq_size 32
core_0_stlb_wq_size 32
core_0_stlb_pq_size 0
core_0_stlb_mshr_size 16
core_0_stlb_hit_latency 4
core_0_stlb_fill_latency 4
core_0_stlb_max_tag_check 1
core_0_stlb_max_fill 1
core_0_l1i_set 64
core_0_l1i_way 8
core_0_l1i_rq_size 64
core_0_l1i_wq_size 64
core_0_l1i_pq_size 32
core_0_l1i_mshr_size 8
core_0_l1i_hit_latency 2
core_0_l1i_fill_latency 2
core_0_l1i_max_tag_check 2
core_0_l1i_max_fill 2
core_0_l1d_set 64
core_0_l1d_way 12
core_0_l1d_rq_size 64
core_0_l1d_wq_size 64
core_0_l1d_pq_size 8
core_0_l1d_mshr_size 16
core_0_l1d_hit_latency 2
core_0_l1d_fill_latency 3
core_0_l1d_max_tag_check 2
core_0_l1d_max_fill 2
core_0_l2c_set 1024
core_0_l2c_way 8
core_0_l2c_rq_size 32
core_0_l2c_wq_size 32
core_0_l2c_pq_size 16
core_0_l2c_mshr_size 32
core_0_l2c_hit_latency 5
core_0_l2c_fill_latency 5
core_0_l2c_max_tag_check 1
core_0_l2c_max_fill 1
llc_set 2048
llc_way 16
llc_rq_size 32
llc_wq_size 32
llc_pq_size 32
llc_mshr_size 64
llc_hit_latency 10
llc_fill_latency 10
llc_max_tag_check 1
llc_max_fill 1
dram_channels 1
dram_ranks 1
dram_bankgroups 8
dram_banks 4
dram_rows 65536
dram_columns 1024
dram_channel_width 8
dram_rq_size 64
dram_wq_size 64
dram_size 17179869184
core_0_itlb_prefetcher no
core_0_dtlb_prefetcher no
core_0_stlb_prefetcher no
core_0_l1i_prefetcher next_line
core_0_l1d_prefetcher berti
core_0_l2c_prefetcher ip_stride
llc_prefetcher no
llc_replacement drrip

Core_0_instructions 50000002
Core_0_cycles 10799200
Core_0_IPC 4.62997
Core_0_branch_prediction_accuracy 99.4957
Core_0_branch_MPKI 0.17382
Core_0_average_ROB_occupancy_at_mispredict 146.815

Core_0_ITLB_total_access 5871224
Core_0_ITLB_total_hit 5871205
Core_0_ITLB_total_miss 19
Core_0_ITLB_total_MPKI 0.00038
Core_0_ITLB_total_miss_rate 3.23612e-06
Core_0_ITLB_demand_access 5871224
Core_0_ITLB_demand_hit 5871205
Core_0_ITLB_demand_miss 19
Core_0_ITLB_demand_MPKI 0.00038
Core_0_ITLB_demand_miss_rate 3.23612e-06
Core_0_ITLB_load_access 5871224
Core_0_ITLB_load_hit 5871205
Core_0_ITLB_load_miss 19
Core_0_ITLB_load_MPKI 0.00038
Core_0_ITLB_load_miss_rate 3.23612e-06
Core_0_ITLB_rfo_access 0
Core_0_ITLB_rfo_hit 0
Core_0_ITLB_rfo_miss 0
Core_0_ITLB_rfo_MPKI 0
Core_0_ITLB_rfo_miss_rate 0
Core_0_ITLB_prefetch_access 0
Core_0_ITLB_prefetch_hit 0
Core_0_ITLB_prefetch_miss 0
Core_0_ITLB_prefetch_MPKI 0
Core_0_ITLB_prefetch_miss_rate 0
Core_0_ITLB_writeback_access 0
Core_0_ITLB_writeback_hit 0
Core_0_ITLB_writeback_miss 0
Core_0_ITLB_writeback_MPKI 0
Core_0_ITLB_writeback_miss_rate 0
Core_0_ITLB_prefetch_requested 0
Core_0_ITLB_prefetch_issued 0
Core_0_ITLB_prefetch_useful 0
Core_0_ITLB_prefetch_useless 0
Core_0_ITLB_prefetch_late 0
Core_0_ITLB_prefetch_accuracy 0
Core_0_ITLB_prefetch_coverage 0

Core_0_DTLB_total_access 7831197
Core_0_DTLB_total_hit 7827554
Core_0_DTLB_total_miss 3643
Core_0_DTLB_total_MPKI 0.07286
Core_0_DTLB_total_miss_rate 0.000465191
Core_0_DTLB_demand_access 7831197
Core_0_DTLB_demand_hit 7827554
Core_0_DTLB_demand_miss 3643
Core_0_DTLB_demand_MPKI 0.07286
Core_0_DTLB_demand_miss_rate 0.000465191
Core_0_DTLB_load_access 7831197
Core_0_DTLB_load_hit 7827554
Core_0_DTLB_load_miss 3643
Core_0_DTLB_load_MPKI 0.07286
Core_0_DTLB_load_miss_rate 0.000465191
Core_0_DTLB_rfo_access 0
Core_0_DTLB_rfo_hit 0
Core_0_DTLB_rfo_miss 0
Core_0_DTLB_rfo_MPKI 0
Core_0_DTLB_rfo_miss_rate 0
Core_0_DTLB_prefetch_access 0
Core_0_DTLB_prefetch_hit 0
Core_0_DTLB_prefetch_miss 0
Core_0_DTLB_prefetch_MPKI 0
Core_0_DTLB_prefetch_miss_rate 0
Core_0_DTLB_writeback_access 0
Core_0_DTLB_writeback_hit 0
Core_0_DTLB_writeback_miss 0
Core_0_DTLB_writeback_MPKI 0
Core_0_DTLB_writeback_miss_rate 0
Core_0_DTLB_prefetch_requested 0
Core_0_DTLB_prefetch_issued 0
Core_0_DTLB_prefetch_useful 0
Core_0_DTLB_prefetch_useless 0
Core_0_DTLB_prefetch_late 0
Core_0_DTLB_prefetch_accuracy 0
Core_0_DTLB_prefetch_coverage 0

Core_0_STLB_total_access 2157
Core_0_STLB_total_hit 1954
Core_0_STLB_total_miss 203
Core_0_STLB_total_MPKI 0.00406
Core_0_STLB_total_miss_rate 0.0941122
Core_0_STLB_demand_access 2157
Core_0_STLB_demand_hit 1954
Core_0_STLB_demand_miss 203
Core_0_STLB_demand_MPKI 0.00406
Core_0_STLB_demand_miss_rate 0.0941122
Core_0_STLB_load_access 2157
Core_0_STLB_load_hit 1954
Core_0_STLB_load_miss 203
Core_0_STLB_load_MPKI 0.00406
Core_0_STLB_load_miss_rate 0.0941122
Core_0_STLB_rfo_access 0
Core_0_STLB_rfo_hit 0
Core_0_STLB_rfo_miss 0
Core_0_STLB_rfo_MPKI 0
Core_0_STLB_rfo_miss_rate 0
Core_0_STLB_prefetch_access 0
Core_0_STLB_prefetch_hit 0
Core_0_STLB_prefetch_miss 0
Core_0_STLB_prefetch_MPKI 0
Core_0_STLB_prefetch_miss_rate 0
Core_0_STLB_writeback_access 0
Core_0_STLB_writeback_hit 0
Core_0_STLB_writeback_miss 0
Core_0_STLB_writeback_MPKI 0
Core_0_STLB_writeback_miss_rate 0
Core_0_STLB_prefetch_requested 0
Core_0_STLB_prefetch_issued 0
Core_0_STLB_prefetch_useful 0
Core_0_STLB_prefetch_useless 0
Core_0_STLB_prefetch_late 0
Core_0_STLB_prefetch_accuracy 0
Core_0_STLB_prefetch_coverage 0

Core_0_L1I_total_access 6880688
Core_0_L1I_total_hit 6880474
Core_0_L1I_total_miss 214
Core_0_L1I_total_MPKI 0.00428
Core_0_L1I_total_miss_rate 3.11015e-05
Core_0_L1I_demand_access 6880688
Core_0_L1I_demand_hit 6880474
Core_0_L1I_demand_miss 214
Core_0_L1I_demand_MPKI 0.00428
Core_0_L1I_demand_miss_rate 3.11015e-05
Core_0_L1I_load_access 6880688
Core_0_L1I_load_hit 6880474
Core_0_L1I_load_miss 214
Core_0_L1I_load_MPKI 0.00428
Core_0_L1I_load_miss_rate 3.11015e-05
Core_0_L1I_rfo_access 0
Core_0_L1I_rfo_hit 0
Core_0_L1I_rfo_miss 0
Core_0_L1I_rfo_MPKI 0
Core_0_L1I_rfo_miss_rate 0
Core_0_L1I_prefetch_access 0
Core_0_L1I_prefetch_hit 0
Core_0_L1I_prefetch_miss 0
Core_0_L1I_prefetch_MPKI 0
Core_0_L1I_prefetch_miss_rate 0
Core_0_L1I_writeback_access 0
Core_0_L1I_writeback_hit 0
Core_0_L1I_writeback_miss 0
Core_0_L1I_writeback_MPKI 0
Core_0_L1I_writeback_miss_rate 0
Core_0_L1I_prefetch_requested 0
Core_0_L1I_prefetch_issued 0
Core_0_L1I_prefetch_useful 0
Core_0_L1I_prefetch_useless 0
Core_0_L1I_prefetch_late 0
Core_0_L1I_prefetch_accuracy 0
Core_0_L1I_prefetch_coverage 0

Core_0_L1D_total_access 8509404
Core_0_L1D_total_hit 8493427
Core_0_L1D_total_miss 15977
Core_0_L1D_total_MPKI 0.31954
Core_0_L1D_total_miss_rate 0.00187757
Core_0_L1D_demand_access 4815398
Core_0_L1D_demand_hit 4807531
Core_0_L1D_demand_miss 7867
Core_0_L1D_demand_MPKI 0.15734
Core_0_L1D_demand_miss_rate 0.00163372
Core_0_L1D_load_access 4815398
Core_0_L1D_load_hit 4807531
Core_0_L1D_load_miss 7867
Core_0_L1D_load_MPKI 0.15734
Core_0_L1D_load_miss_rate 0.00163372
Core_0_L1D_rfo_access 0
Core_0_L1D_rfo_hit 0
Core_0_L1D_rfo_miss 0
Core_0_L1D_rfo_MPKI 0
Core_0_L1D_rfo_miss_rate 0
Core_0_L1D_prefetch_access 14588
Core_0_L1D_prefetch_hit 6856
Core_0_L1D_prefetch_miss 7732
Core_0_L1D_prefetch_MPKI 0.15464
Core_0_L1D_prefetch_miss_rate 0.530025
Core_0_L1D_writeback_access 3679418
Core_0_L1D_writeback_hit 3679040
Core_0_L1D_writeback_miss 378
Core_0_L1D_writeback_MPKI 0.00756
Core_0_L1D_writeback_miss_rate 0.000102734
Core_0_L1D_prefetch_requested 15658
Core_0_L1D_prefetch_issued 14588
Core_0_L1D_prefetch_useful 6418
Core_0_L1D_prefetch_useless 947
Core_0_L1D_prefetch_late 235
Core_0_L1D_prefetch_accuracy 0.439951
Core_0_L1D_prefetch_coverage 0.449282

Core_0_L2C_total_access 15066
Core_0_L2C_total_hit 2991
Core_0_L2C_total_miss 12075
Core_0_L2C_total_MPKI 0.2415
Core_0_L2C_total_miss_rate 0.801474
Core_0_L2C_demand_access 4155
Core_0_L2C_demand_hit 642
Core_0_L2C_demand_miss 3513
Core_0_L2C_demand_MPKI 0.07026
Core_0_L2C_demand_miss_rate 0.845487
Core_0_L2C_load_access 3786
Core_0_L2C_load_hit 639
Core_0_L2C_load_miss 3147
Core_0_L2C_load_MPKI 0.06294
Core_0_L2C_load_miss_rate 0.83122
Core_0_L2C_rfo_access 369
Core_0_L2C_rfo_hit 3
Core_0_L2C_rfo_miss 366
Core_0_L2C_rfo_MPKI 0.00732
Core_0_L2C_rfo_miss_rate 0.99187
Core_0_L2C_prefetch_access 10525
Core_0_L2C_prefetch_hit 1965
Core_0_L2C_prefetch_miss 8560
Core_0_L2C_prefetch_MPKI 0.1712
Core_0_L2C_prefetch_miss_rate 0.813302
Core_0_L2C_writeback_access 386
Core_0_L2C_writeback_hit 384
Core_0_L2C_writeback_miss 2
Core_0_L2C_writeback_MPKI 4e-05
Core_0_L2C_writeback_miss_rate 0.00518135
Core_0_L2C_prefetch_requested 3104
Core_0_L2C_prefetch_issued 3104
Core_0_L2C_prefetch_useful 558
Core_0_L2C_prefetch_useless 286
Core_0_L2C_prefetch_late 153
Core_0_L2C_prefetch_accuracy 0.179768
Core_0_L2C_prefetch_coverage 0.137067

Core_0_LLC_total_access 10862
Core_0_LLC_total_hit 214
Core_0_LLC_total_miss 10648
Core_0_LLC_total_MPKI 0.21296
Core_0_LLC_total_miss_rate 0.980298
Core_0_LLC_demand_access 3360
Core_0_LLC_demand_hit 3
Core_0_LLC_demand_miss 3357
Core_0_LLC_demand_MPKI 0.06714
Core_0_LLC_demand_miss_rate 0.999107
Core_0_LLC_load_access 2994
Core_0_LLC_load_hit 3
Core_0_LLC_load_miss 2991
Core_0_LLC_load_MPKI 0.05982
Core_0_LLC_load_miss_rate 0.998998
Core_0_LLC_rfo_access 366
Core_0_LLC_rfo_hit 0
Core_0_LLC_rfo_miss 366
Core_0_LLC_rfo_MPKI 0.00732
Core_0_LLC_rfo_miss_rate 1
Core_0_LLC_prefetch_access 7294
Core_0_LLC_prefetch_hit 3
Core_0_LLC_prefetch_miss 7291
Core_0_LLC_prefetch_MPKI 0.14582
Core_0_LLC_prefetch_miss_rate 0.999589
Core_0_LLC_writeback_access 208
Core_0_LLC_writeback_hit 208
Core_0_LLC_writeback_miss 0
Core_0_LLC_writeback_MPKI 0
Core_0_LLC_writeback_miss_rate 0
Core_0_LLC_prefetch_requested 0
Core_0_LLC_prefetch_issued 0
Core_0_LLC_prefetch_useful 0
Core_0_LLC_prefetch_useless 0
Core_0_LLC_prefetch_late 0
Core_0_LLC_prefetch_accuracy 0
Core_0_LLC_prefetch_coverage 0

[DRAM Statistics]
Channel_0_RQ_row_buffer_hit 507
Channel_0_RQ_row_buffer_miss 10178
Channel_0_WQ_row_buffer_hit 0
Channel_0_WQ_row_buffer_miss 0
Channel_0_WQ_full 0
Channel_0_dbus_congested 12115
DRAM_total_RQ_row_buffer_hit 507
DRAM_total_RQ_row_buffer_miss 10178
DRAM_total_WQ_row_buffer_hit 0
DRAM_total_WQ_row_buffer_miss 0
DRAM_total_WQ_full 0
DRAM_total_dbus_congested 12115
DRAM_avg_congested_cycle 2.83772

======STLB miss causes ========
Core_0_STLB_miss_cause_breakdown
Core_0_STLB_cause_Demand_Data_miss 162
Core_0_STLB_cause_Demand_Data_miss_rate 0.0751043
Core_0_STLB_cause_Demand_Instruction_miss 5
Core_0_STLB_cause_Demand_Instruction_miss_rate 0.00231803
Core_0_STLB_cause_L1D_Prefetch_miss 36
Core_0_STLB_cause_L1D_Prefetch_miss_rate 0.0166898
Core_0_STLB_cause_L1I_Prefetch_miss 0
Core_0_STLB_cause_L1I_Prefetch_miss_rate 0
Core_0_STLB_cause_Other_miss 0
Core_0_STLB_cause_Other_miss_rate 0
Core_0_STLB_Demand_miss 167
Core_0_STLB_Demand_miss_rate 0.0774223
Core_0_STLB_L1D_Prefetch_miss 36
Core_0_STLB_L1D_Prefetch_miss_rate 0.0166898
Core_0_STLB_Other_miss 0
Core_0_STLB_Other_miss_rate 0
