[VMEM] WARNING: physical memory size is smaller than virtual memory size.

*** ChampSim Multicore Out-of-Order Simulator ***
Warmup Instructions: 20000000
Simulation Instructions: 50000000
Number of CPUs: 1
Page size: 4096
STLB ideal mode: off
Core 0: /data0/tzh/champsim_traces/SPEC17/628.pop2_s-17B.champsimtrace.xz
 L1D Berti prefetcher
Off-chip DRAM Size: 16 GiB Channels: 1 Width: 64-bit Data Rate: 3205 MT/s
Warmup halting CPU 0 at instruction 20000002 cycle 4696544 for remainder of phase
Warmup finished CPU 0 instructions: 20000002 cycles: 4696544 cumulative IPC: 4.258 (Simulation time: 00 hr 00 min 49 sec)
Warmup complete CPU 0 instructions: 20000002 cycles: 4696544 cumulative IPC: 4.258 (Simulation time: 00 hr 00 min 49 sec)
Simulation finished CPU 0 instructions: 50000000 cycles: 18235518 cumulative IPC: 2.742 (Simulation time: 00 hr 03 min 35 sec)
Simulation complete CPU 0 instructions: 50000000 cycles: 18235518 cumulative IPC: 2.742 (Simulation time: 00 hr 03 min 35 sec)

ChampSim completed all CPUs

=== Simulation ===
CPU 0 runs /data0/tzh/champsim_traces/SPEC17/628.pop2_s-17B.champsimtrace.xz

Region of Interest Statistics

CPU 0 cumulative IPC: 2.742 instructions: 50000000 cycles: 18235518
CPU 0 Branch Prediction Accuracy: 99.28% MPKI: 0.8326 Average ROB Occupancy at Mispredict: 90.59
Branch type MPKI
BRANCH_DIRECT_JUMP: 0.05064
BRANCH_INDIRECT: 0.0017
BRANCH_CONDITIONAL: 0.7803
BRANCH_DIRECT_CALL: 0
BRANCH_INDIRECT_CALL: 0
BRANCH_RETURN: 0

cpu0->cpu0_STLB TOTAL        ACCESS:      45205 HIT:      42724 MISS:       2481 MSHR_MERGE:          0
cpu0->cpu0_STLB LOAD         ACCESS:      45205 HIT:      42724 MISS:       2481 MSHR_MERGE:          0
cpu0->cpu0_STLB RFO          ACCESS:          0 HIT:          0 MISS:          0 MSHR_MERGE:          0
cpu0->cpu0_STLB PREFETCH     ACCESS:          0 HIT:          0 MISS:          0 MSHR_MERGE:          0
cpu0->cpu0_STLB WRITE        ACCESS:          0 HIT:          0 MISS:          0 MSHR_MERGE:          0
cpu0->cpu0_STLB TRANSLATION  ACCESS:          0 HIT:          0 MISS:          0 MSHR_MERGE:          0
cpu0->cpu0_STLB PREFETCH REQUESTED:          0 ISSUED:          0 USEFUL:          0 USELESS:          0 LATE:          0
cpu0->cpu0_STLB AVERAGE MISS LATENCY: 292.2 cycles
cpu0->cpu0_L2C TOTAL        ACCESS:    2066535 HIT:    1476404 MISS:     590131 MSHR_MERGE:     102058
cpu0->cpu0_L2C LOAD         ACCESS:     329107 HIT:     196777 MISS:     132330 MSHR_MERGE:       8624
cpu0->cpu0_L2C RFO          ACCESS:     274718 HIT:     181304 MISS:      93414 MSHR_MERGE:          0
cpu0->cpu0_L2C PREFETCH     ACCESS:    1049826 HIT:     687990 MISS:     361836 MSHR_MERGE:      93434
cpu0->cpu0_L2C WRITE        ACCESS:     410008 HIT:     409989 MISS:         19 MSHR_MERGE:          0
cpu0->cpu0_L2C TRANSLATION  ACCESS:       2876 HIT:        344 MISS:       2532 MSHR_MERGE:          0
cpu0->cpu0_L2C PREFETCH REQUESTED:     507038 ISSUED:     499039 USEFUL:      65279 USELESS:      18530 LATE:       8624
cpu0->cpu0_L2C AVERAGE MISS LATENCY: 48.88 cycles
cpu0->cpu0_L1I TOTAL        ACCESS:    5414236 HIT:    5288286 MISS:     125950 MSHR_MERGE:      66916
cpu0->cpu0_L1I LOAD         ACCESS:    5414236 HIT:    5288286 MISS:     125950 MSHR_MERGE:      66916
cpu0->cpu0_L1I RFO          ACCESS:          0 HIT:          0 MISS:          0 MSHR_MERGE:          0
cpu0->cpu0_L1I PREFETCH     ACCESS:          0 HIT:          0 MISS:          0 MSHR_MERGE:          0
cpu0->cpu0_L1I WRITE        ACCESS:          0 HIT:          0 MISS:          0 MSHR_MERGE:          0
cpu0->cpu0_L1I TRANSLATION  ACCESS:          0 HIT:          0 MISS:          0 MSHR_MERGE:          0
cpu0->cpu0_L1I PREFETCH REQUESTED:          0 ISSUED:          0 USEFUL:          0 USELESS:          0 LATE:          0
cpu0->cpu0_L1I AVERAGE MISS LATENCY: 22.45 cycles
cpu0->cpu0_L1D TOTAL        ACCESS:   11270019 HIT:    9061416 MISS:    2208603 MSHR_MERGE:    1110111
cpu0->cpu0_L1D LOAD         ACCESS:    6659523 HIT:    6057963 MISS:     601560 MSHR_MERGE:     331471
cpu0->cpu0_L1D RFO          ACCESS:          0 HIT:          0 MISS:          0 MSHR_MERGE:          0
cpu0->cpu0_L1D PREFETCH     ACCESS:     812960 HIT:     229240 MISS:     583720 MSHR_MERGE:      32927
cpu0->cpu0_L1D WRITE        ACCESS:    3791776 HIT:    2771463 MISS:    1020313 MSHR_MERGE:     745579
cpu0->cpu0_L1D TRANSLATION  ACCESS:       5760 HIT:       2750 MISS:       3010 MSHR_MERGE:        134
cpu0->cpu0_L1D PREFETCH REQUESTED:     926186 ISSUED:     812960 USEFUL:     492231 USELESS:      58529 LATE:      59184
cpu0->cpu0_L1D AVERAGE MISS LATENCY: 31.33 cycles
cpu0->cpu0_ITLB TOTAL        ACCESS:    4454433 HIT:    4448304 MISS:       6129 MSHR_MERGE:       3650
cpu0->cpu0_ITLB LOAD         ACCESS:    4454433 HIT:    4448304 MISS:       6129 MSHR_MERGE:       3650
cpu0->cpu0_ITLB RFO          ACCESS:          0 HIT:          0 MISS:          0 MSHR_MERGE:          0
cpu0->cpu0_ITLB PREFETCH     ACCESS:          0 HIT:          0 MISS:          0 MSHR_MERGE:          0
cpu0->cpu0_ITLB WRITE        ACCESS:          0 HIT:          0 MISS:          0 MSHR_MERGE:          0
cpu0->cpu0_ITLB TRANSLATION  ACCESS:          0 HIT:          0 MISS:          0 MSHR_MERGE:          0
cpu0->cpu0_ITLB PREFETCH REQUESTED:          0 ISSUED:          0 USEFUL:          0 USELESS:          0 LATE:          0
cpu0->cpu0_ITLB AVERAGE MISS LATENCY: 5.012 cycles
cpu0->cpu0_DTLB TOTAL        ACCESS:   10482888 HIT:   10396748 MISS:      86140 MSHR_MERGE:      43414
cpu0->cpu0_DTLB LOAD         ACCESS:   10482888 HIT:   10396748 MISS:      86140 MSHR_MERGE:      43414
cpu0->cpu0_DTLB RFO          ACCESS:          0 HIT:          0 MISS:          0 MSHR_MERGE:          0
cpu0->cpu0_DTLB PREFETCH     ACCESS:          0 HIT:          0 MISS:          0 MSHR_MERGE:          0
cpu0->cpu0_DTLB WRITE        ACCESS:          0 HIT:          0 MISS:          0 MSHR_MERGE:          0
cpu0->cpu0_DTLB TRANSLATION  ACCESS:          0 HIT:          0 MISS:          0 MSHR_MERGE:          0
cpu0->cpu0_DTLB PREFETCH REQUESTED:          0 ISSUED:          0 USEFUL:          0 USELESS:          0 LATE:          0
cpu0->cpu0_DTLB AVERAGE MISS LATENCY: 22.03 cycles
cpu0->LLC TOTAL        ACCESS:     650628 HIT:     478603 MISS:     172025 MSHR_MERGE:        217
cpu0->LLC LOAD         ACCESS:     123706 HIT:     102627 MISS:      21079 MSHR_MERGE:         21
cpu0->LLC RFO          ACCESS:      93414 HIT:      81192 MISS:      12222 MSHR_MERGE:          0
cpu0->LLC PREFETCH     ACCESS:     268402 HIT:     135902 MISS:     132500 MSHR_MERGE:        196
cpu0->LLC WRITE        ACCESS:     162574 HIT:     156920 MISS:       5654 MSHR_MERGE:          0
cpu0->LLC TRANSLATION  ACCESS:       2532 HIT:       1962 MISS:        570 MSHR_MERGE:          0
cpu0->LLC PREFETCH REQUESTED:          0 ISSUED:          0 USEFUL:          0 USELESS:          0 LATE:          0
cpu0->LLC AVERAGE MISS LATENCY: 180.1 cycles

DRAM Statistics

Channel 0 RQ ROW_BUFFER_HIT:       7464
  ROW_BUFFER_MISS:     158670
  AVG DBUS CONGESTED CYCLE: 7.75
Channel 0 WQ ROW_BUFFER_HIT:       7366
  ROW_BUFFER_MISS:      39639
  FULL:          0
Channel 0 REFRESHES ISSUED:       1520

[ROI Statistics]
[System Configuration]
num_cpus 1
cpu_freq 4000
fetch_width 6
decode_width 6
dispatch_width 6
execute_width 6
lq_width 2
sq_width 2
retire_width 6
scheduler_size 128
branch_mispredict_penalty 15
rob_size 352
lq_size 128
sq_size 72
ifetch_buffer_size 64
decode_buffer_size 32
dispatch_buffer_size 32
register_file_size 288
decode_latency 1
dispatch_latency 1
schedule_latency 1
execute_latency 1
page_size 4096
block_size 64
core_0_itlb_set 16
core_0_itlb_way 4
core_0_itlb_rq_size 16
core_0_itlb_wq_size 16
core_0_itlb_pq_size 0
core_0_itlb_mshr_size 8
core_0_itlb_hit_latency 1
core_0_itlb_fill_latency 1
core_0_itlb_max_tag_check 2
core_0_itlb_max_fill 2
core_0_dtlb_set 16
core_0_dtlb_way 4
core_0_dtlb_rq_size 16
core_0_dtlb_wq_size 16
core_0_dtlb_pq_size 0
core_0_dtlb_mshr_size 8
core_0_dtlb_hit_latency 1
core_0_dtlb_fill_latency 1
core_0_dtlb_max_tag_check 2
core_0_dtlb_max_fill 2
core_0_stlb_set 128
core_0_stlb_way 12
core_0_stlb_rq_size 32
core_0_stlb_wq_size 32
core_0_stlb_pq_size 0
core_0_stlb_mshr_size 16
core_0_stlb_hit_latency 4
core_0_stlb_fill_latency 4
core_0_stlb_max_tag_check 1
core_0_stlb_max_fill 1
core_0_l1i_set 64
core_0_l1i_way 8
core_0_l1i_rq_size 64
core_0_l1i_wq_size 64
core_0_l1i_pq_size 32
core_0_l1i_mshr_size 8
core_0_l1i_hit_latency 2
core_0_l1i_fill_latency 2
core_0_l1i_max_tag_check 2
core_0_l1i_max_fill 2
core_0_l1d_set 64
core_0_l1d_way 12
core_0_l1d_rq_size 64
core_0_l1d_wq_size 64
core_0_l1d_pq_size 8
core_0_l1d_mshr_size 16
core_0_l1d_hit_latency 2
core_0_l1d_fill_latency 3
core_0_l1d_max_tag_check 2
core_0_l1d_max_fill 2
core_0_l2c_set 1024
core_0_l2c_way 8
core_0_l2c_rq_size 32
core_0_l2c_wq_size 32
core_0_l2c_pq_size 16
core_0_l2c_mshr_size 32
core_0_l2c_hit_latency 5
core_0_l2c_fill_latency 5
core_0_l2c_max_tag_check 1
core_0_l2c_max_fill 1
llc_set 2048
llc_way 16
llc_rq_size 32
llc_wq_size 32
llc_pq_size 32
llc_mshr_size 64
llc_hit_latency 10
llc_fill_latency 10
llc_max_tag_check 1
llc_max_fill 1
dram_channels 1
dram_ranks 1
dram_bankgroups 8
dram_banks 4
dram_rows 65536
dram_columns 1024
dram_channel_width 8
dram_rq_size 64
dram_wq_size 64
dram_size 17179869184
core_0_itlb_prefetcher no
core_0_dtlb_prefetcher no
core_0_stlb_prefetcher no
core_0_l1i_prefetcher next_line
core_0_l1d_prefetcher berti
core_0_l2c_prefetcher ip_stride
llc_prefetcher no
llc_replacement drrip

Core_0_instructions 50000000
Core_0_cycles 18235518
Core_0_IPC 2.7419
Core_0_branch_prediction_accuracy 99.2784
Core_0_branch_MPKI 0.83262
Core_0_average_ROB_occupancy_at_mispredict 90.59

Core_0_ITLB_total_access 4454433
Core_0_ITLB_total_hit 4448304
Core_0_ITLB_total_miss 6129
Core_0_ITLB_total_MPKI 0.12258
Core_0_ITLB_total_miss_rate 0.00137593
Core_0_ITLB_demand_access 4454433
Core_0_ITLB_demand_hit 4448304
Core_0_ITLB_demand_miss 6129
Core_0_ITLB_demand_MPKI 0.12258
Core_0_ITLB_demand_miss_rate 0.00137593
Core_0_ITLB_load_access 4454433
Core_0_ITLB_load_hit 4448304
Core_0_ITLB_load_miss 6129
Core_0_ITLB_load_MPKI 0.12258
Core_0_ITLB_load_miss_rate 0.00137593
Core_0_ITLB_rfo_access 0
Core_0_ITLB_rfo_hit 0
Core_0_ITLB_rfo_miss 0
Core_0_ITLB_rfo_MPKI 0
Core_0_ITLB_rfo_miss_rate 0
Core_0_ITLB_prefetch_access 0
Core_0_ITLB_prefetch_hit 0
Core_0_ITLB_prefetch_miss 0
Core_0_ITLB_prefetch_MPKI 0
Core_0_ITLB_prefetch_miss_rate 0
Core_0_ITLB_writeback_access 0
Core_0_ITLB_writeback_hit 0
Core_0_ITLB_writeback_miss 0
Core_0_ITLB_writeback_MPKI 0
Core_0_ITLB_writeback_miss_rate 0
Core_0_ITLB_prefetch_requested 0
Core_0_ITLB_prefetch_issued 0
Core_0_ITLB_prefetch_useful 0
Core_0_ITLB_prefetch_useless 0
Core_0_ITLB_prefetch_late 0
Core_0_ITLB_prefetch_accuracy 0
Core_0_ITLB_prefetch_coverage 0

Core_0_DTLB_total_access 10482888
Core_0_DTLB_total_hit 10396748
Core_0_DTLB_total_miss 86140
Core_0_DTLB_total_MPKI 1.7228
Core_0_DTLB_total_miss_rate 0.0082172
Core_0_DTLB_demand_access 10482888
Core_0_DTLB_demand_hit 10396748
Core_0_DTLB_demand_miss 86140
Core_0_DTLB_demand_MPKI 1.7228
Core_0_DTLB_demand_miss_rate 0.0082172
Core_0_DTLB_load_access 10482888
Core_0_DTLB_load_hit 10396748
Core_0_DTLB_load_miss 86140
Core_0_DTLB_load_MPKI 1.7228
Core_0_DTLB_load_miss_rate 0.0082172
Core_0_DTLB_rfo_access 0
Core_0_DTLB_rfo_hit 0
Core_0_DTLB_rfo_miss 0
Core_0_DTLB_rfo_MPKI 0
Core_0_DTLB_rfo_miss_rate 0
Core_0_DTLB_prefetch_access 0
Core_0_DTLB_prefetch_hit 0
Core_0_DTLB_prefetch_miss 0
Core_0_DTLB_prefetch_MPKI 0
Core_0_DTLB_prefetch_miss_rate 0
Core_0_DTLB_writeback_access 0
Core_0_DTLB_writeback_hit 0
Core_0_DTLB_writeback_miss 0
Core_0_DTLB_writeback_MPKI 0
Core_0_DTLB_writeback_miss_rate 0
Core_0_DTLB_prefetch_requested 0
Core_0_DTLB_prefetch_issued 0
Core_0_DTLB_prefetch_useful 0
Core_0_DTLB_prefetch_useless 0
Core_0_DTLB_prefetch_late 0
Core_0_DTLB_prefetch_accuracy 0
Core_0_DTLB_prefetch_coverage 0

Core_0_STLB_total_access 45205
Core_0_STLB_total_hit 42724
Core_0_STLB_total_miss 2481
Core_0_STLB_total_MPKI 0.04962
Core_0_STLB_total_miss_rate 0.0548833
Core_0_STLB_demand_access 45205
Core_0_STLB_demand_hit 42724
Core_0_STLB_demand_miss 2481
Core_0_STLB_demand_MPKI 0.04962
Core_0_STLB_demand_miss_rate 0.0548833
Core_0_STLB_load_access 45205
Core_0_STLB_load_hit 42724
Core_0_STLB_load_miss 2481
Core_0_STLB_load_MPKI 0.04962
Core_0_STLB_load_miss_rate 0.0548833
Core_0_STLB_rfo_access 0
Core_0_STLB_rfo_hit 0
Core_0_STLB_rfo_miss 0
Core_0_STLB_rfo_MPKI 0
Core_0_STLB_rfo_miss_rate 0
Core_0_STLB_prefetch_access 0
Core_0_STLB_prefetch_hit 0
Core_0_STLB_prefetch_miss 0
Core_0_STLB_prefetch_MPKI 0
Core_0_STLB_prefetch_miss_rate 0
Core_0_STLB_writeback_access 0
Core_0_STLB_writeback_hit 0
Core_0_STLB_writeback_miss 0
Core_0_STLB_writeback_MPKI 0
Core_0_STLB_writeback_miss_rate 0
Core_0_STLB_prefetch_requested 0
Core_0_STLB_prefetch_issued 0
Core_0_STLB_prefetch_useful 0
Core_0_STLB_prefetch_useless 0
Core_0_STLB_prefetch_late 0
Core_0_STLB_prefetch_accuracy 0
Core_0_STLB_prefetch_coverage 0

Core_0_L1I_total_access 5414236
Core_0_L1I_total_hit 5288286
Core_0_L1I_total_miss 125950
Core_0_L1I_total_MPKI 2.519
Core_0_L1I_total_miss_rate 0.0232627
Core_0_L1I_demand_access 5414236
Core_0_L1I_demand_hit 5288286
Core_0_L1I_demand_miss 125950
Core_0_L1I_demand_MPKI 2.519
Core_0_L1I_demand_miss_rate 0.0232627
Core_0_L1I_load_access 5414236
Core_0_L1I_load_hit 5288286
Core_0_L1I_load_miss 125950
Core_0_L1I_load_MPKI 2.519
Core_0_L1I_load_miss_rate 0.0232627
Core_0_L1I_rfo_access 0
Core_0_L1I_rfo_hit 0
Core_0_L1I_rfo_miss 0
Core_0_L1I_rfo_MPKI 0
Core_0_L1I_rfo_miss_rate 0
Core_0_L1I_prefetch_access 0
Core_0_L1I_prefetch_hit 0
Core_0_L1I_prefetch_miss 0
Core_0_L1I_prefetch_MPKI 0
Core_0_L1I_prefetch_miss_rate 0
Core_0_L1I_writeback_access 0
Core_0_L1I_writeback_hit 0
Core_0_L1I_writeback_miss 0
Core_0_L1I_writeback_MPKI 0
Core_0_L1I_writeback_miss_rate 0
Core_0_L1I_prefetch_requested 0
Core_0_L1I_prefetch_issued 0
Core_0_L1I_prefetch_useful 0
Core_0_L1I_prefetch_useless 0
Core_0_L1I_prefetch_late 0
Core_0_L1I_prefetch_accuracy 0
Core_0_L1I_prefetch_coverage 0

Core_0_L1D_total_access 11264259
Core_0_L1D_total_hit 9058666
Core_0_L1D_total_miss 2205593
Core_0_L1D_total_MPKI 44.1119
Core_0_L1D_total_miss_rate 0.195805
Core_0_L1D_demand_access 6659523
Core_0_L1D_demand_hit 6057963
Core_0_L1D_demand_miss 601560
Core_0_L1D_demand_MPKI 12.0312
Core_0_L1D_demand_miss_rate 0.0903308
Core_0_L1D_load_access 6659523
Core_0_L1D_load_hit 6057963
Core_0_L1D_load_miss 601560
Core_0_L1D_load_MPKI 12.0312
Core_0_L1D_load_miss_rate 0.0903308
Core_0_L1D_rfo_access 0
Core_0_L1D_rfo_hit 0
Core_0_L1D_rfo_miss 0
Core_0_L1D_rfo_MPKI 0
Core_0_L1D_rfo_miss_rate 0
Core_0_L1D_prefetch_access 812960
Core_0_L1D_prefetch_hit 229240
Core_0_L1D_prefetch_miss 583720
Core_0_L1D_prefetch_MPKI 11.6744
Core_0_L1D_prefetch_miss_rate 0.718018
Core_0_L1D_writeback_access 3791776
Core_0_L1D_writeback_hit 2771463
Core_0_L1D_writeback_miss 1020313
Core_0_L1D_writeback_MPKI 20.4063
Core_0_L1D_writeback_miss_rate 0.269086
Core_0_L1D_prefetch_requested 926186
Core_0_L1D_prefetch_issued 812960
Core_0_L1D_prefetch_useful 492231
Core_0_L1D_prefetch_useless 58529
Core_0_L1D_prefetch_late 59184
Core_0_L1D_prefetch_accuracy 0.60548
Core_0_L1D_prefetch_coverage 0.450023

Core_0_L2C_total_access 2063659
Core_0_L2C_total_hit 1476060
Core_0_L2C_total_miss 587599
Core_0_L2C_total_MPKI 11.752
Core_0_L2C_total_miss_rate 0.284736
Core_0_L2C_demand_access 603825
Core_0_L2C_demand_hit 378081
Core_0_L2C_demand_miss 225744
Core_0_L2C_demand_MPKI 4.51488
Core_0_L2C_demand_miss_rate 0.373857
Core_0_L2C_load_access 329107
Core_0_L2C_load_hit 196777
Core_0_L2C_load_miss 132330
Core_0_L2C_load_MPKI 2.6466
Core_0_L2C_load_miss_rate 0.402088
Core_0_L2C_rfo_access 274718
Core_0_L2C_rfo_hit 181304
Core_0_L2C_rfo_miss 93414
Core_0_L2C_rfo_MPKI 1.86828
Core_0_L2C_rfo_miss_rate 0.340036
Core_0_L2C_prefetch_access 1049826
Core_0_L2C_prefetch_hit 687990
Core_0_L2C_prefetch_miss 361836
Core_0_L2C_prefetch_MPKI 7.23672
Core_0_L2C_prefetch_miss_rate 0.344663
Core_0_L2C_writeback_access 410008
Core_0_L2C_writeback_hit 409989
Core_0_L2C_writeback_miss 19
Core_0_L2C_writeback_MPKI 0.00038
Core_0_L2C_writeback_miss_rate 4.63406e-05
Core_0_L2C_prefetch_requested 507038
Core_0_L2C_prefetch_issued 499039
Core_0_L2C_prefetch_useful 65279
Core_0_L2C_prefetch_useless 18530
Core_0_L2C_prefetch_late 8624
Core_0_L2C_prefetch_accuracy 0.130809
Core_0_L2C_prefetch_coverage 0.224309

Core_0_LLC_total_access 648096
Core_0_LLC_total_hit 476641
Core_0_LLC_total_miss 171455
Core_0_LLC_total_MPKI 3.4291
Core_0_LLC_total_miss_rate 0.264552
Core_0_LLC_demand_access 217120
Core_0_LLC_demand_hit 183819
Core_0_LLC_demand_miss 33301
Core_0_LLC_demand_MPKI 0.66602
Core_0_LLC_demand_miss_rate 0.153376
Core_0_LLC_load_access 123706
Core_0_LLC_load_hit 102627
Core_0_LLC_load_miss 21079
Core_0_LLC_load_MPKI 0.42158
Core_0_LLC_load_miss_rate 0.170396
Core_0_LLC_rfo_access 93414
Core_0_LLC_rfo_hit 81192
Core_0_LLC_rfo_miss 12222
Core_0_LLC_rfo_MPKI 0.24444
Core_0_LLC_rfo_miss_rate 0.130837
Core_0_LLC_prefetch_access 268402
Core_0_LLC_prefetch_hit 135902
Core_0_LLC_prefetch_miss 132500
Core_0_LLC_prefetch_MPKI 2.65
Core_0_LLC_prefetch_miss_rate 0.493662
Core_0_LLC_writeback_access 162574
Core_0_LLC_writeback_hit 156920
Core_0_LLC_writeback_miss 5654
Core_0_LLC_writeback_MPKI 0.11308
Core_0_LLC_writeback_miss_rate 0.034778
Core_0_LLC_prefetch_requested 0
Core_0_LLC_prefetch_issued 0
Core_0_LLC_prefetch_useful 0
Core_0_LLC_prefetch_useless 0
Core_0_LLC_prefetch_late 0
Core_0_LLC_prefetch_accuracy 0
Core_0_LLC_prefetch_coverage 0

[DRAM Statistics]
Channel_0_RQ_row_buffer_hit 7464
Channel_0_RQ_row_buffer_miss 158670
Channel_0_WQ_row_buffer_hit 7366
Channel_0_WQ_row_buffer_miss 39639
Channel_0_WQ_full 0
Channel_0_dbus_congested 425871
DRAM_total_RQ_row_buffer_hit 7464
DRAM_total_RQ_row_buffer_miss 158670
DRAM_total_WQ_row_buffer_hit 7366
DRAM_total_WQ_row_buffer_miss 39639
DRAM_total_WQ_full 0
DRAM_total_dbus_congested 425871
DRAM_avg_congested_cycle 7.75027

======STLB miss causes ========
Core_0_STLB_miss_cause_breakdown
Core_0_STLB_cause_Demand_Data_miss 1513
Core_0_STLB_cause_Demand_Data_miss_rate 0.0334697
Core_0_STLB_cause_Demand_Instruction_miss 0
Core_0_STLB_cause_Demand_Instruction_miss_rate 0
Core_0_STLB_cause_L1D_Prefetch_miss 968
Core_0_STLB_cause_L1D_Prefetch_miss_rate 0.0214136
Core_0_STLB_cause_L1I_Prefetch_miss 0
Core_0_STLB_cause_L1I_Prefetch_miss_rate 0
Core_0_STLB_cause_Other_miss 0
Core_0_STLB_cause_Other_miss_rate 0
Core_0_STLB_Demand_miss 1513
Core_0_STLB_Demand_miss_rate 0.0334697
Core_0_STLB_L1D_Prefetch_miss 968
Core_0_STLB_L1D_Prefetch_miss_rate 0.0214136
Core_0_STLB_Other_miss 0
Core_0_STLB_Other_miss_rate 0
