[VMEM] WARNING: physical memory size is smaller than virtual memory size.

*** ChampSim Multicore Out-of-Order Simulator ***
Warmup Instructions: 20000000
Simulation Instructions: 50000000
Number of CPUs: 1
Page size: 4096
STLB ideal mode: off
Core 0: /data0/tzh/champsim_traces/SPEC17/638.imagick_s-4128B.champsimtrace.xz
 L1D Berti prefetcher
Off-chip DRAM Size: 16 GiB Channels: 1 Width: 64-bit Data Rate: 3205 MT/s
Warmup halting CPU 0 at instruction 20000000 cycle 4243889 for remainder of phase
Warmup finished CPU 0 instructions: 20000000 cycles: 4243889 cumulative IPC: 4.713 (Simulation time: 00 hr 00 min 43 sec)
Warmup complete CPU 0 instructions: 20000000 cycles: 4243889 cumulative IPC: 4.713 (Simulation time: 00 hr 00 min 43 sec)
Simulation finished CPU 0 instructions: 50000003 cycles: 13716067 cumulative IPC: 3.645 (Simulation time: 00 hr 02 min 40 sec)
Simulation complete CPU 0 instructions: 50000003 cycles: 13716067 cumulative IPC: 3.645 (Simulation time: 00 hr 02 min 40 sec)

ChampSim completed all CPUs

=== Simulation ===
CPU 0 runs /data0/tzh/champsim_traces/SPEC17/638.imagick_s-4128B.champsimtrace.xz

Region of Interest Statistics

CPU 0 cumulative IPC: 3.645 instructions: 50000003 cycles: 13716067
CPU 0 Branch Prediction Accuracy: 99.11% MPKI: 1.73 Average ROB Occupancy at Mispredict: 109.6
Branch type MPKI
BRANCH_DIRECT_JUMP: 0.02338
BRANCH_INDIRECT: 0
BRANCH_CONDITIONAL: 1.707
BRANCH_DIRECT_CALL: 0
BRANCH_INDIRECT_CALL: 0
BRANCH_RETURN: 0

cpu0->cpu0_STLB TOTAL        ACCESS:      21042 HIT:      20956 MISS:         86 MSHR_MERGE:          0
cpu0->cpu0_STLB LOAD         ACCESS:      21042 HIT:      20956 MISS:         86 MSHR_MERGE:          0
cpu0->cpu0_STLB RFO          ACCESS:          0 HIT:          0 MISS:          0 MSHR_MERGE:          0
cpu0->cpu0_STLB PREFETCH     ACCESS:          0 HIT:          0 MISS:          0 MSHR_MERGE:          0
cpu0->cpu0_STLB WRITE        ACCESS:          0 HIT:          0 MISS:          0 MSHR_MERGE:          0
cpu0->cpu0_STLB TRANSLATION  ACCESS:          0 HIT:          0 MISS:          0 MSHR_MERGE:          0
cpu0->cpu0_STLB PREFETCH REQUESTED:          0 ISSUED:          0 USEFUL:          0 USELESS:          0 LATE:          0
cpu0->cpu0_STLB AVERAGE MISS LATENCY: 237.5 cycles
cpu0->cpu0_L2C TOTAL        ACCESS:      13400 HIT:       7864 MISS:       5536 MSHR_MERGE:         53
cpu0->cpu0_L2C LOAD         ACCESS:       5944 HIT:       2279 MISS:       3665 MSHR_MERGE:          0
cpu0->cpu0_L2C RFO          ACCESS:        254 HIT:        107 MISS:        147 MSHR_MERGE:          0
cpu0->cpu0_L2C PREFETCH     ACCESS:       5621 HIT:       3912 MISS:       1709 MSHR_MERGE:         53
cpu0->cpu0_L2C WRITE        ACCESS:       1495 HIT:       1490 MISS:          5 MSHR_MERGE:          0
cpu0->cpu0_L2C TRANSLATION  ACCESS:         86 HIT:         76 MISS:         10 MSHR_MERGE:          0
cpu0->cpu0_L2C PREFETCH REQUESTED:        802 ISSUED:        802 USEFUL:        116 USELESS:          0 LATE:          0
cpu0->cpu0_L2C AVERAGE MISS LATENCY: 174.9 cycles
cpu0->cpu0_L1I TOTAL        ACCESS:      34347 HIT:      34347 MISS:          0 MSHR_MERGE:          0
cpu0->cpu0_L1I LOAD         ACCESS:      34347 HIT:      34347 MISS:          0 MSHR_MERGE:          0
cpu0->cpu0_L1I RFO          ACCESS:          0 HIT:          0 MISS:          0 MSHR_MERGE:          0
cpu0->cpu0_L1I PREFETCH     ACCESS:          0 HIT:          0 MISS:          0 MSHR_MERGE:          0
cpu0->cpu0_L1I WRITE        ACCESS:          0 HIT:          0 MISS:          0 MSHR_MERGE:          0
cpu0->cpu0_L1I TRANSLATION  ACCESS:          0 HIT:          0 MISS:          0 MSHR_MERGE:          0
cpu0->cpu0_L1I PREFETCH REQUESTED:          0 ISSUED:          0 USEFUL:          0 USELESS:          0 LATE:          0
cpu0->cpu0_L1I AVERAGE MISS LATENCY: - cycles
cpu0->cpu0_L1D TOTAL        ACCESS:   11049264 HIT:   11035110 MISS:      14154 MSHR_MERGE:       3051
cpu0->cpu0_L1D LOAD         ACCESS:    9310455 HIT:    9302294 MISS:       8161 MSHR_MERGE:       2217
cpu0->cpu0_L1D RFO          ACCESS:          0 HIT:          0 MISS:          0 MSHR_MERGE:          0
cpu0->cpu0_L1D PREFETCH     ACCESS:     153473 HIT:     148226 MISS:       5247 MSHR_MERGE:        428
cpu0->cpu0_L1D WRITE        ACCESS:    1585164 HIT:    1584504 MISS:        660 MSHR_MERGE:        406
cpu0->cpu0_L1D TRANSLATION  ACCESS:        172 HIT:         86 MISS:         86 MSHR_MERGE:          0
cpu0->cpu0_L1D PREFETCH REQUESTED:     153783 ISSUED:     153465 USEFUL:       3408 USELESS:       1375 LATE:         40
cpu0->cpu0_L1D AVERAGE MISS LATENCY: 114.5 cycles
cpu0->cpu0_ITLB TOTAL        ACCESS:      28344 HIT:      28344 MISS:          0 MSHR_MERGE:          0
cpu0->cpu0_ITLB LOAD         ACCESS:      28344 HIT:      28344 MISS:          0 MSHR_MERGE:          0
cpu0->cpu0_ITLB RFO          ACCESS:          0 HIT:          0 MISS:          0 MSHR_MERGE:          0
cpu0->cpu0_ITLB PREFETCH     ACCESS:          0 HIT:          0 MISS:          0 MSHR_MERGE:          0
cpu0->cpu0_ITLB WRITE        ACCESS:          0 HIT:          0 MISS:          0 MSHR_MERGE:          0
cpu0->cpu0_ITLB TRANSLATION  ACCESS:          0 HIT:          0 MISS:          0 MSHR_MERGE:          0
cpu0->cpu0_ITLB PREFETCH REQUESTED:          0 ISSUED:          0 USEFUL:          0 USELESS:          0 LATE:          0
cpu0->cpu0_ITLB AVERAGE MISS LATENCY: - cycles
cpu0->cpu0_DTLB TOTAL        ACCESS:   10740892 HIT:   10691645 MISS:      49247 MSHR_MERGE:      28205
cpu0->cpu0_DTLB LOAD         ACCESS:   10740892 HIT:   10691645 MISS:      49247 MSHR_MERGE:      28205
cpu0->cpu0_DTLB RFO          ACCESS:          0 HIT:          0 MISS:          0 MSHR_MERGE:          0
cpu0->cpu0_DTLB PREFETCH     ACCESS:          0 HIT:          0 MISS:          0 MSHR_MERGE:          0
cpu0->cpu0_DTLB WRITE        ACCESS:          0 HIT:          0 MISS:          0 MSHR_MERGE:          0
cpu0->cpu0_DTLB TRANSLATION  ACCESS:          0 HIT:          0 MISS:          0 MSHR_MERGE:          0
cpu0->cpu0_DTLB PREFETCH REQUESTED:          0 ISSUED:          0 USEFUL:          0 USELESS:          0 LATE:          0
cpu0->cpu0_DTLB AVERAGE MISS LATENCY: 5.975 cycles
cpu0->LLC TOTAL        ACCESS:       5516 HIT:         39 MISS:       5477 MSHR_MERGE:          0
cpu0->LLC LOAD         ACCESS:       3665 HIT:          0 MISS:       3665 MSHR_MERGE:          0
cpu0->LLC RFO          ACCESS:        147 HIT:          0 MISS:        147 MSHR_MERGE:          0
cpu0->LLC PREFETCH     ACCESS:       1656 HIT:          1 MISS:       1655 MSHR_MERGE:          0
cpu0->LLC WRITE        ACCESS:         38 HIT:         38 MISS:          0 MSHR_MERGE:          0
cpu0->LLC TRANSLATION  ACCESS:         10 HIT:          0 MISS:         10 MSHR_MERGE:          0
cpu0->LLC PREFETCH REQUESTED:          0 ISSUED:          0 USEFUL:          0 USELESS:          0 LATE:          0
cpu0->LLC AVERAGE MISS LATENCY: 159.1 cycles

DRAM Statistics

Channel 0 RQ ROW_BUFFER_HIT:          7
  ROW_BUFFER_MISS:       5470
  AVG DBUS CONGESTED CYCLE: 2.827
Channel 0 WQ ROW_BUFFER_HIT:          0
  ROW_BUFFER_MISS:          0
  FULL:          0
Channel 0 REFRESHES ISSUED:       1143

[ROI Statistics]
[System Configuration]
num_cpus 1
cpu_freq 4000
fetch_width 6
decode_width 6
dispatch_width 6
execute_width 6
lq_width 2
sq_width 2
retire_width 6
scheduler_size 128
branch_mispredict_penalty 15
rob_size 352
lq_size 128
sq_size 72
ifetch_buffer_size 64
decode_buffer_size 32
dispatch_buffer_size 32
register_file_size 288
decode_latency 1
dispatch_latency 1
schedule_latency 1
execute_latency 1
page_size 4096
block_size 64
core_0_itlb_set 16
core_0_itlb_way 4
core_0_itlb_rq_size 16
core_0_itlb_wq_size 16
core_0_itlb_pq_size 0
core_0_itlb_mshr_size 8
core_0_itlb_hit_latency 1
core_0_itlb_fill_latency 1
core_0_itlb_max_tag_check 2
core_0_itlb_max_fill 2
core_0_dtlb_set 16
core_0_dtlb_way 4
core_0_dtlb_rq_size 16
core_0_dtlb_wq_size 16
core_0_dtlb_pq_size 0
core_0_dtlb_mshr_size 8
core_0_dtlb_hit_latency 1
core_0_dtlb_fill_latency 1
core_0_dtlb_max_tag_check 2
core_0_dtlb_max_fill 2
core_0_stlb_set 128
core_0_stlb_way 12
core_0_stlb_rq_size 32
core_0_stlb_wq_size 32
core_0_stlb_pq_size 0
core_0_stlb_mshr_size 16
core_0_stlb_hit_latency 4
core_0_stlb_fill_latency 4
core_0_stlb_max_tag_check 1
core_0_stlb_max_fill 1
core_0_l1i_set 64
core_0_l1i_way 8
core_0_l1i_rq_size 64
core_0_l1i_wq_size 64
core_0_l1i_pq_size 32
core_0_l1i_mshr_size 8
core_0_l1i_hit_latency 2
core_0_l1i_fill_latency 2
core_0_l1i_max_tag_check 2
core_0_l1i_max_fill 2
core_0_l1d_set 64
core_0_l1d_way 12
core_0_l1d_rq_size 64
core_0_l1d_wq_size 64
core_0_l1d_pq_size 8
core_0_l1d_mshr_size 16
core_0_l1d_hit_latency 2
core_0_l1d_fill_latency 3
core_0_l1d_max_tag_check 2
core_0_l1d_max_fill 2
core_0_l2c_set 1024
core_0_l2c_way 8
core_0_l2c_rq_size 32
core_0_l2c_wq_size 32
core_0_l2c_pq_size 16
core_0_l2c_mshr_size 32
core_0_l2c_hit_latency 5
core_0_l2c_fill_latency 5
core_0_l2c_max_tag_check 1
core_0_l2c_max_fill 1
llc_set 2048
llc_way 16
llc_rq_size 32
llc_wq_size 32
llc_pq_size 32
llc_mshr_size 64
llc_hit_latency 10
llc_fill_latency 10
llc_max_tag_check 1
llc_max_fill 1
dram_channels 1
dram_ranks 1
dram_bankgroups 8
dram_banks 4
dram_rows 65536
dram_columns 1024
dram_channel_width 8
dram_rq_size 64
dram_wq_size 64
dram_size 17179869184
core_0_itlb_prefetcher no
core_0_dtlb_prefetcher no
core_0_stlb_prefetcher no
core_0_l1i_prefetcher next_line
core_0_l1d_prefetcher berti
core_0_l2c_prefetcher ip_stride
llc_prefetcher no
llc_replacement drrip

Core_0_instructions 50000003
Core_0_cycles 13716067
Core_0_IPC 3.64536
Core_0_branch_prediction_accuracy 99.1059
Core_0_branch_MPKI 1.73024
Core_0_average_ROB_occupancy_at_mispredict 109.572

Core_0_ITLB_total_access 28344
Core_0_ITLB_total_hit 28344
Core_0_ITLB_total_miss 0
Core_0_ITLB_total_MPKI 0
Core_0_ITLB_total_miss_rate 0
Core_0_ITLB_demand_access 28344
Core_0_ITLB_demand_hit 28344
Core_0_ITLB_demand_miss 0
Core_0_ITLB_demand_MPKI 0
Core_0_ITLB_demand_miss_rate 0
Core_0_ITLB_load_access 28344
Core_0_ITLB_load_hit 28344
Core_0_ITLB_load_miss 0
Core_0_ITLB_load_MPKI 0
Core_0_ITLB_load_miss_rate 0
Core_0_ITLB_rfo_access 0
Core_0_ITLB_rfo_hit 0
Core_0_ITLB_rfo_miss 0
Core_0_ITLB_rfo_MPKI 0
Core_0_ITLB_rfo_miss_rate 0
Core_0_ITLB_prefetch_access 0
Core_0_ITLB_prefetch_hit 0
Core_0_ITLB_prefetch_miss 0
Core_0_ITLB_prefetch_MPKI 0
Core_0_ITLB_prefetch_miss_rate 0
Core_0_ITLB_writeback_access 0
Core_0_ITLB_writeback_hit 0
Core_0_ITLB_writeback_miss 0
Core_0_ITLB_writeback_MPKI 0
Core_0_ITLB_writeback_miss_rate 0
Core_0_ITLB_prefetch_requested 0
Core_0_ITLB_prefetch_issued 0
Core_0_ITLB_prefetch_useful 0
Core_0_ITLB_prefetch_useless 0
Core_0_ITLB_prefetch_late 0
Core_0_ITLB_prefetch_accuracy 0
Core_0_ITLB_prefetch_coverage 0

Core_0_DTLB_total_access 10740892
Core_0_DTLB_total_hit 10691645
Core_0_DTLB_total_miss 49247
Core_0_DTLB_total_MPKI 0.98494
Core_0_DTLB_total_miss_rate 0.004585
Core_0_DTLB_demand_access 10740892
Core_0_DTLB_demand_hit 10691645
Core_0_DTLB_demand_miss 49247
Core_0_DTLB_demand_MPKI 0.98494
Core_0_DTLB_demand_miss_rate 0.004585
Core_0_DTLB_load_access 10740892
Core_0_DTLB_load_hit 10691645
Core_0_DTLB_load_miss 49247
Core_0_DTLB_load_MPKI 0.98494
Core_0_DTLB_load_miss_rate 0.004585
Core_0_DTLB_rfo_access 0
Core_0_DTLB_rfo_hit 0
Core_0_DTLB_rfo_miss 0
Core_0_DTLB_rfo_MPKI 0
Core_0_DTLB_rfo_miss_rate 0
Core_0_DTLB_prefetch_access 0
Core_0_DTLB_prefetch_hit 0
Core_0_DTLB_prefetch_miss 0
Core_0_DTLB_prefetch_MPKI 0
Core_0_DTLB_prefetch_miss_rate 0
Core_0_DTLB_writeback_access 0
Core_0_DTLB_writeback_hit 0
Core_0_DTLB_writeback_miss 0
Core_0_DTLB_writeback_MPKI 0
Core_0_DTLB_writeback_miss_rate 0
Core_0_DTLB_prefetch_requested 0
Core_0_DTLB_prefetch_issued 0
Core_0_DTLB_prefetch_useful 0
Core_0_DTLB_prefetch_useless 0
Core_0_DTLB_prefetch_late 0
Core_0_DTLB_prefetch_accuracy 0
Core_0_DTLB_prefetch_coverage 0

Core_0_STLB_total_access 21042
Core_0_STLB_total_hit 20956
Core_0_STLB_total_miss 86
Core_0_STLB_total_MPKI 0.00172
Core_0_STLB_total_miss_rate 0.00408706
Core_0_STLB_demand_access 21042
Core_0_STLB_demand_hit 20956
Core_0_STLB_demand_miss 86
Core_0_STLB_demand_MPKI 0.00172
Core_0_STLB_demand_miss_rate 0.00408706
Core_0_STLB_load_access 21042
Core_0_STLB_load_hit 20956
Core_0_STLB_load_miss 86
Core_0_STLB_load_MPKI 0.00172
Core_0_STLB_load_miss_rate 0.00408706
Core_0_STLB_rfo_access 0
Core_0_STLB_rfo_hit 0
Core_0_STLB_rfo_miss 0
Core_0_STLB_rfo_MPKI 0
Core_0_STLB_rfo_miss_rate 0
Core_0_STLB_prefetch_access 0
Core_0_STLB_prefetch_hit 0
Core_0_STLB_prefetch_miss 0
Core_0_STLB_prefetch_MPKI 0
Core_0_STLB_prefetch_miss_rate 0
Core_0_STLB_writeback_access 0
Core_0_STLB_writeback_hit 0
Core_0_STLB_writeback_miss 0
Core_0_STLB_writeback_MPKI 0
Core_0_STLB_writeback_miss_rate 0
Core_0_STLB_prefetch_requested 0
Core_0_STLB_prefetch_issued 0
Core_0_STLB_prefetch_useful 0
Core_0_STLB_prefetch_useless 0
Core_0_STLB_prefetch_late 0
Core_0_STLB_prefetch_accuracy 0
Core_0_STLB_prefetch_coverage 0

Core_0_L1I_total_access 34347
Core_0_L1I_total_hit 34347
Core_0_L1I_total_miss 0
Core_0_L1I_total_MPKI 0
Core_0_L1I_total_miss_rate 0
Core_0_L1I_demand_access 34347
Core_0_L1I_demand_hit 34347
Core_0_L1I_demand_miss 0
Core_0_L1I_demand_MPKI 0
Core_0_L1I_demand_miss_rate 0
Core_0_L1I_load_access 34347
Core_0_L1I_load_hit 34347
Core_0_L1I_load_miss 0
Core_0_L1I_load_MPKI 0
Core_0_L1I_load_miss_rate 0
Core_0_L1I_rfo_access 0
Core_0_L1I_rfo_hit 0
Core_0_L1I_rfo_miss 0
Core_0_L1I_rfo_MPKI 0
Core_0_L1I_rfo_miss_rate 0
Core_0_L1I_prefetch_access 0
Core_0_L1I_prefetch_hit 0
Core_0_L1I_prefetch_miss 0
Core_0_L1I_prefetch_MPKI 0
Core_0_L1I_prefetch_miss_rate 0
Core_0_L1I_writeback_access 0
Core_0_L1I_writeback_hit 0
Core_0_L1I_writeback_miss 0
Core_0_L1I_writeback_MPKI 0
Core_0_L1I_writeback_miss_rate 0
Core_0_L1I_prefetch_requested 0
Core_0_L1I_prefetch_issued 0
Core_0_L1I_prefetch_useful 0
Core_0_L1I_prefetch_useless 0
Core_0_L1I_prefetch_late 0
Core_0_L1I_prefetch_accuracy 0
Core_0_L1I_prefetch_coverage 0

Core_0_L1D_total_access 11049092
Core_0_L1D_total_hit 11035024
Core_0_L1D_total_miss 14068
Core_0_L1D_total_MPKI 0.28136
Core_0_L1D_total_miss_rate 0.00127323
Core_0_L1D_demand_access 9310455
Core_0_L1D_demand_hit 9302294
Core_0_L1D_demand_miss 8161
Core_0_L1D_demand_MPKI 0.16322
Core_0_L1D_demand_miss_rate 0.000876541
Core_0_L1D_load_access 9310455
Core_0_L1D_load_hit 9302294
Core_0_L1D_load_miss 8161
Core_0_L1D_load_MPKI 0.16322
Core_0_L1D_load_miss_rate 0.000876541
Core_0_L1D_rfo_access 0
Core_0_L1D_rfo_hit 0
Core_0_L1D_rfo_miss 0
Core_0_L1D_rfo_MPKI 0
Core_0_L1D_rfo_miss_rate 0
Core_0_L1D_prefetch_access 153473
Core_0_L1D_prefetch_hit 148226
Core_0_L1D_prefetch_miss 5247
Core_0_L1D_prefetch_MPKI 0.10494
Core_0_L1D_prefetch_miss_rate 0.0341884
Core_0_L1D_writeback_access 1585164
Core_0_L1D_writeback_hit 1584504
Core_0_L1D_writeback_miss 660
Core_0_L1D_writeback_MPKI 0.0132
Core_0_L1D_writeback_miss_rate 0.000416361
Core_0_L1D_prefetch_requested 153783
Core_0_L1D_prefetch_issued 153465
Core_0_L1D_prefetch_useful 3408
Core_0_L1D_prefetch_useless 1375
Core_0_L1D_prefetch_late 40
Core_0_L1D_prefetch_accuracy 0.022207
Core_0_L1D_prefetch_coverage 0.29458

Core_0_L2C_total_access 13314
Core_0_L2C_total_hit 7788
Core_0_L2C_total_miss 5526
Core_0_L2C_total_MPKI 0.11052
Core_0_L2C_total_miss_rate 0.415052
Core_0_L2C_demand_access 6198
Core_0_L2C_demand_hit 2386
Core_0_L2C_demand_miss 3812
Core_0_L2C_demand_MPKI 0.07624
Core_0_L2C_demand_miss_rate 0.615037
Core_0_L2C_load_access 5944
Core_0_L2C_load_hit 2279
Core_0_L2C_load_miss 3665
Core_0_L2C_load_MPKI 0.0733
Core_0_L2C_load_miss_rate 0.616588
Core_0_L2C_rfo_access 254
Core_0_L2C_rfo_hit 107
Core_0_L2C_rfo_miss 147
Core_0_L2C_rfo_MPKI 0.00294
Core_0_L2C_rfo_miss_rate 0.57874
Core_0_L2C_prefetch_access 5621
Core_0_L2C_prefetch_hit 3912
Core_0_L2C_prefetch_miss 1709
Core_0_L2C_prefetch_MPKI 0.03418
Core_0_L2C_prefetch_miss_rate 0.304038
Core_0_L2C_writeback_access 1495
Core_0_L2C_writeback_hit 1490
Core_0_L2C_writeback_miss 5
Core_0_L2C_writeback_MPKI 0.0001
Core_0_L2C_writeback_miss_rate 0.00334448
Core_0_L2C_prefetch_requested 802
Core_0_L2C_prefetch_issued 802
Core_0_L2C_prefetch_useful 116
Core_0_L2C_prefetch_useless 0
Core_0_L2C_prefetch_late 0
Core_0_L2C_prefetch_accuracy 0.144638
Core_0_L2C_prefetch_coverage 0.0295316

Core_0_LLC_total_access 5506
Core_0_LLC_total_hit 39
Core_0_LLC_total_miss 5467
Core_0_LLC_total_MPKI 0.10934
Core_0_LLC_total_miss_rate 0.992917
Core_0_LLC_demand_access 3812
Core_0_LLC_demand_hit 0
Core_0_LLC_demand_miss 3812
Core_0_LLC_demand_MPKI 0.07624
Core_0_LLC_demand_miss_rate 1
Core_0_LLC_load_access 3665
Core_0_LLC_load_hit 0
Core_0_LLC_load_miss 3665
Core_0_LLC_load_MPKI 0.0733
Core_0_LLC_load_miss_rate 1
Core_0_LLC_rfo_access 147
Core_0_LLC_rfo_hit 0
Core_0_LLC_rfo_miss 147
Core_0_LLC_rfo_MPKI 0.00294
Core_0_LLC_rfo_miss_rate 1
Core_0_LLC_prefetch_access 1656
Core_0_LLC_prefetch_hit 1
Core_0_LLC_prefetch_miss 1655
Core_0_LLC_prefetch_MPKI 0.0331
Core_0_LLC_prefetch_miss_rate 0.999396
Core_0_LLC_writeback_access 38
Core_0_LLC_writeback_hit 38
Core_0_LLC_writeback_miss 0
Core_0_LLC_writeback_MPKI 0
Core_0_LLC_writeback_miss_rate 0
Core_0_LLC_prefetch_requested 0
Core_0_LLC_prefetch_issued 0
Core_0_LLC_prefetch_useful 0
Core_0_LLC_prefetch_useless 0
Core_0_LLC_prefetch_late 0
Core_0_LLC_prefetch_accuracy 0
Core_0_LLC_prefetch_coverage 0

[DRAM Statistics]
Channel_0_RQ_row_buffer_hit 7
Channel_0_RQ_row_buffer_miss 5470
Channel_0_WQ_row_buffer_hit 0
Channel_0_WQ_row_buffer_miss 0
Channel_0_WQ_full 0
Channel_0_dbus_congested 508
DRAM_total_RQ_row_buffer_hit 7
DRAM_total_RQ_row_buffer_miss 5470
DRAM_total_WQ_row_buffer_hit 0
DRAM_total_WQ_row_buffer_miss 0
DRAM_total_WQ_full 0
DRAM_total_dbus_congested 508
DRAM_avg_congested_cycle 2.82677

======STLB miss causes ========
Core_0_STLB_miss_cause_breakdown
Core_0_STLB_cause_Demand_Data_miss 69
Core_0_STLB_cause_Demand_Data_miss_rate 0.00327916
Core_0_STLB_cause_Demand_Instruction_miss 0
Core_0_STLB_cause_Demand_Instruction_miss_rate 0
Core_0_STLB_cause_L1D_Prefetch_miss 17
Core_0_STLB_cause_L1D_Prefetch_miss_rate 0.000807908
Core_0_STLB_cause_L1I_Prefetch_miss 0
Core_0_STLB_cause_L1I_Prefetch_miss_rate 0
Core_0_STLB_cause_Other_miss 0
Core_0_STLB_cause_Other_miss_rate 0
Core_0_STLB_Demand_miss 69
Core_0_STLB_Demand_miss_rate 0.00327916
Core_0_STLB_L1D_Prefetch_miss 17
Core_0_STLB_L1D_Prefetch_miss_rate 0.000807908
Core_0_STLB_Other_miss 0
Core_0_STLB_Other_miss_rate 0
