[VMEM] WARNING: physical memory size is smaller than virtual memory size.

*** ChampSim Multicore Out-of-Order Simulator ***
Warmup Instructions: 20000000
Simulation Instructions: 50000000
Number of CPUs: 1
Page size: 4096
STLB ideal mode: off
Core 0: /data0/tzh/champsim_traces/SPEC17/641.leela_s-334B.champsimtrace.xz
 L1D Berti prefetcher
Off-chip DRAM Size: 16 GiB Channels: 1 Width: 64-bit Data Rate: 3205 MT/s
Warmup halting CPU 0 at instruction 20000004 cycle 4509226 for remainder of phase
Warmup finished CPU 0 instructions: 20000004 cycles: 4509226 cumulative IPC: 4.435 (Simulation time: 00 hr 00 min 51 sec)
Warmup complete CPU 0 instructions: 20000004 cycles: 4509226 cumulative IPC: 4.435 (Simulation time: 00 hr 00 min 51 sec)
Simulation finished CPU 0 instructions: 50000000 cycles: 36365574 cumulative IPC: 1.375 (Simulation time: 00 hr 04 min 30 sec)
Simulation complete CPU 0 instructions: 50000000 cycles: 36365574 cumulative IPC: 1.375 (Simulation time: 00 hr 04 min 30 sec)

ChampSim completed all CPUs

=== Simulation ===
CPU 0 runs /data0/tzh/champsim_traces/SPEC17/641.leela_s-334B.champsimtrace.xz

Region of Interest Statistics

CPU 0 cumulative IPC: 1.375 instructions: 50000000 cycles: 36365574
CPU 0 Branch Prediction Accuracy: 93.81% MPKI: 10.83 Average ROB Occupancy at Mispredict: 41.63
Branch type MPKI
BRANCH_DIRECT_JUMP: 0.1991
BRANCH_INDIRECT: 0.00166
BRANCH_CONDITIONAL: 10.6
BRANCH_DIRECT_CALL: 0
BRANCH_INDIRECT_CALL: 0
BRANCH_RETURN: 0.02578

cpu0->cpu0_STLB TOTAL        ACCESS:      36071 HIT:      35821 MISS:        250 MSHR_MERGE:          0
cpu0->cpu0_STLB LOAD         ACCESS:      36071 HIT:      35821 MISS:        250 MSHR_MERGE:          0
cpu0->cpu0_STLB RFO          ACCESS:          0 HIT:          0 MISS:          0 MSHR_MERGE:          0
cpu0->cpu0_STLB PREFETCH     ACCESS:          0 HIT:          0 MISS:          0 MSHR_MERGE:          0
cpu0->cpu0_STLB WRITE        ACCESS:          0 HIT:          0 MISS:          0 MSHR_MERGE:          0
cpu0->cpu0_STLB TRANSLATION  ACCESS:          0 HIT:          0 MISS:          0 MSHR_MERGE:          0
cpu0->cpu0_STLB PREFETCH REQUESTED:          0 ISSUED:          0 USEFUL:          0 USELESS:          0 LATE:          0
cpu0->cpu0_STLB AVERAGE MISS LATENCY: 235.2 cycles
cpu0->cpu0_L2C TOTAL        ACCESS:     232161 HIT:     228637 MISS:       3524 MSHR_MERGE:        289
cpu0->cpu0_L2C LOAD         ACCESS:      64788 HIT:      64104 MISS:        684 MSHR_MERGE:          3
cpu0->cpu0_L2C RFO          ACCESS:      28799 HIT:      28600 MISS:        199 MSHR_MERGE:          0
cpu0->cpu0_L2C PREFETCH     ACCESS:      90721 HIT:      88123 MISS:       2598 MSHR_MERGE:        286
cpu0->cpu0_L2C WRITE        ACCESS:      47603 HIT:      47592 MISS:         11 MSHR_MERGE:          0
cpu0->cpu0_L2C TRANSLATION  ACCESS:        250 HIT:        218 MISS:         32 MSHR_MERGE:          0
cpu0->cpu0_L2C PREFETCH REQUESTED:      39185 ISSUED:      39185 USEFUL:        274 USELESS:         37 LATE:          3
cpu0->cpu0_L2C AVERAGE MISS LATENCY: 151.2 cycles
cpu0->cpu0_L1I TOTAL        ACCESS:    5217765 HIT:    5185699 MISS:      32066 MSHR_MERGE:      14054
cpu0->cpu0_L1I LOAD         ACCESS:    5217765 HIT:    5185699 MISS:      32066 MSHR_MERGE:      14054
cpu0->cpu0_L1I RFO          ACCESS:          0 HIT:          0 MISS:          0 MSHR_MERGE:          0
cpu0->cpu0_L1I PREFETCH     ACCESS:          0 HIT:          0 MISS:          0 MSHR_MERGE:          0
cpu0->cpu0_L1I WRITE        ACCESS:          0 HIT:          0 MISS:          0 MSHR_MERGE:          0
cpu0->cpu0_L1I TRANSLATION  ACCESS:          0 HIT:          0 MISS:          0 MSHR_MERGE:          0
cpu0->cpu0_L1I PREFETCH REQUESTED:          0 ISSUED:          0 USEFUL:          0 USELESS:          0 LATE:          0
cpu0->cpu0_L1I AVERAGE MISS LATENCY: 7.036 cycles
cpu0->cpu0_L1D TOTAL        ACCESS:   14519933 HIT:   14342366 MISS:     177567 MSHR_MERGE:      50194
cpu0->cpu0_L1D LOAD         ACCESS:    8298163 HIT:    8244228 MISS:      53935 MSHR_MERGE:       7159
cpu0->cpu0_L1D RFO          ACCESS:          0 HIT:          0 MISS:          0 MSHR_MERGE:          0
cpu0->cpu0_L1D PREFETCH     ACCESS:     271839 HIT:     219136 MISS:      52703 MSHR_MERGE:       1167
cpu0->cpu0_L1D WRITE        ACCESS:    5949431 HIT:    5878752 MISS:      70679 MSHR_MERGE:      41868
cpu0->cpu0_L1D TRANSLATION  ACCESS:        500 HIT:        250 MISS:        250 MSHR_MERGE:          0
cpu0->cpu0_L1D PREFETCH REQUESTED:     295268 ISSUED:     271839 USEFUL:      32317 USELESS:      19180 LATE:        632
cpu0->cpu0_L1D AVERAGE MISS LATENCY: 9.863 cycles
cpu0->cpu0_ITLB TOTAL        ACCESS:    4600641 HIT:    4600641 MISS:          0 MSHR_MERGE:          0
cpu0->cpu0_ITLB LOAD         ACCESS:    4600641 HIT:    4600641 MISS:          0 MSHR_MERGE:          0
cpu0->cpu0_ITLB RFO          ACCESS:          0 HIT:          0 MISS:          0 MSHR_MERGE:          0
cpu0->cpu0_ITLB PREFETCH     ACCESS:          0 HIT:          0 MISS:          0 MSHR_MERGE:          0
cpu0->cpu0_ITLB WRITE        ACCESS:          0 HIT:          0 MISS:          0 MSHR_MERGE:          0
cpu0->cpu0_ITLB TRANSLATION  ACCESS:          0 HIT:          0 MISS:          0 MSHR_MERGE:          0
cpu0->cpu0_ITLB PREFETCH REQUESTED:          0 ISSUED:          0 USEFUL:          0 USELESS:          0 LATE:          0
cpu0->cpu0_ITLB AVERAGE MISS LATENCY: - cycles
cpu0->cpu0_DTLB TOTAL        ACCESS:   13756142 HIT:   13710832 MISS:      45310 MSHR_MERGE:       9239
cpu0->cpu0_DTLB LOAD         ACCESS:   13756142 HIT:   13710832 MISS:      45310 MSHR_MERGE:       9239
cpu0->cpu0_DTLB RFO          ACCESS:          0 HIT:          0 MISS:          0 MSHR_MERGE:          0
cpu0->cpu0_DTLB PREFETCH     ACCESS:          0 HIT:          0 MISS:          0 MSHR_MERGE:          0
cpu0->cpu0_DTLB WRITE        ACCESS:          0 HIT:          0 MISS:          0 MSHR_MERGE:          0
cpu0->cpu0_DTLB TRANSLATION  ACCESS:          0 HIT:          0 MISS:          0 MSHR_MERGE:          0
cpu0->cpu0_DTLB PREFETCH REQUESTED:          0 ISSUED:          0 USEFUL:          0 USELESS:          0 LATE:          0
cpu0->cpu0_DTLB AVERAGE MISS LATENCY: 6.639 cycles
cpu0->LLC TOTAL        ACCESS:       3356 HIT:        435 MISS:       2921 MSHR_MERGE:          0
cpu0->LLC LOAD         ACCESS:        681 HIT:        133 MISS:        548 MSHR_MERGE:          0
cpu0->LLC RFO          ACCESS:        199 HIT:          1 MISS:        198 MSHR_MERGE:          0
cpu0->LLC PREFETCH     ACCESS:       2312 HIT:        162 MISS:       2150 MSHR_MERGE:          0
cpu0->LLC WRITE        ACCESS:        132 HIT:        132 MISS:          0 MSHR_MERGE:          0
cpu0->LLC TRANSLATION  ACCESS:         32 HIT:          7 MISS:         25 MSHR_MERGE:          0
cpu0->LLC PREFETCH REQUESTED:          0 ISSUED:          0 USEFUL:          0 USELESS:          0 LATE:          0
cpu0->LLC AVERAGE MISS LATENCY: 162.5 cycles

DRAM Statistics

Channel 0 RQ ROW_BUFFER_HIT:          3
  ROW_BUFFER_MISS:       2918
  AVG DBUS CONGESTED CYCLE: 2.879
Channel 0 WQ ROW_BUFFER_HIT:          0
  ROW_BUFFER_MISS:          0
  FULL:          0
Channel 0 REFRESHES ISSUED:       3031

[ROI Statistics]
[System Configuration]
num_cpus 1
cpu_freq 4000
fetch_width 6
decode_width 6
dispatch_width 6
execute_width 6
lq_width 2
sq_width 2
retire_width 6
scheduler_size 128
branch_mispredict_penalty 15
rob_size 352
lq_size 128
sq_size 72
ifetch_buffer_size 64
decode_buffer_size 32
dispatch_buffer_size 32
register_file_size 288
decode_latency 1
dispatch_latency 1
schedule_latency 1
execute_latency 1
page_size 4096
block_size 64
core_0_itlb_set 16
core_0_itlb_way 4
core_0_itlb_rq_size 16
core_0_itlb_wq_size 16
core_0_itlb_pq_size 0
core_0_itlb_mshr_size 8
core_0_itlb_hit_latency 1
core_0_itlb_fill_latency 1
core_0_itlb_max_tag_check 2
core_0_itlb_max_fill 2
core_0_dtlb_set 16
core_0_dtlb_way 4
core_0_dtlb_rq_size 16
core_0_dtlb_wq_size 16
core_0_dtlb_pq_size 0
core_0_dtlb_mshr_size 8
core_0_dtlb_hit_latency 1
core_0_dtlb_fill_latency 1
core_0_dtlb_max_tag_check 2
core_0_dtlb_max_fill 2
core_0_stlb_set 128
core_0_stlb_way 12
core_0_stlb_rq_size 32
core_0_stlb_wq_size 32
core_0_stlb_pq_size 0
core_0_stlb_mshr_size 16
core_0_stlb_hit_latency 4
core_0_stlb_fill_latency 4
core_0_stlb_max_tag_check 1
core_0_stlb_max_fill 1
core_0_l1i_set 64
core_0_l1i_way 8
core_0_l1i_rq_size 64
core_0_l1i_wq_size 64
core_0_l1i_pq_size 32
core_0_l1i_mshr_size 8
core_0_l1i_hit_latency 2
core_0_l1i_fill_latency 2
core_0_l1i_max_tag_check 2
core_0_l1i_max_fill 2
core_0_l1d_set 64
core_0_l1d_way 12
core_0_l1d_rq_size 64
core_0_l1d_wq_size 64
core_0_l1d_pq_size 8
core_0_l1d_mshr_size 16
core_0_l1d_hit_latency 2
core_0_l1d_fill_latency 3
core_0_l1d_max_tag_check 2
core_0_l1d_max_fill 2
core_0_l2c_set 1024
core_0_l2c_way 8
core_0_l2c_rq_size 32
core_0_l2c_wq_size 32
core_0_l2c_pq_size 16
core_0_l2c_mshr_size 32
core_0_l2c_hit_latency 5
core_0_l2c_fill_latency 5
core_0_l2c_max_tag_check 1
core_0_l2c_max_fill 1
llc_set 2048
llc_way 16
llc_rq_size 32
llc_wq_size 32
llc_pq_size 32
llc_mshr_size 64
llc_hit_latency 10
llc_fill_latency 10
llc_max_tag_check 1
llc_max_fill 1
dram_channels 1
dram_ranks 1
dram_bankgroups 8
dram_banks 4
dram_rows 65536
dram_columns 1024
dram_channel_width 8
dram_rq_size 64
dram_wq_size 64
dram_size 17179869184
core_0_itlb_prefetcher no
core_0_dtlb_prefetcher no
core_0_stlb_prefetcher no
core_0_l1i_prefetcher next_line
core_0_l1d_prefetcher berti
core_0_l2c_prefetcher ip_stride
llc_prefetcher no
llc_replacement drrip

Core_0_instructions 50000000
Core_0_cycles 36365574
Core_0_IPC 1.37493
Core_0_branch_prediction_accuracy 93.8117
Core_0_branch_MPKI 10.829
Core_0_average_ROB_occupancy_at_mispredict 41.6296

Core_0_ITLB_total_access 4600641
Core_0_ITLB_total_hit 4600641
Core_0_ITLB_total_miss 0
Core_0_ITLB_total_MPKI 0
Core_0_ITLB_total_miss_rate 0
Core_0_ITLB_demand_access 4600641
Core_0_ITLB_demand_hit 4600641
Core_0_ITLB_demand_miss 0
Core_0_ITLB_demand_MPKI 0
Core_0_ITLB_demand_miss_rate 0
Core_0_ITLB_load_access 4600641
Core_0_ITLB_load_hit 4600641
Core_0_ITLB_load_miss 0
Core_0_ITLB_load_MPKI 0
Core_0_ITLB_load_miss_rate 0
Core_0_ITLB_rfo_access 0
Core_0_ITLB_rfo_hit 0
Core_0_ITLB_rfo_miss 0
Core_0_ITLB_rfo_MPKI 0
Core_0_ITLB_rfo_miss_rate 0
Core_0_ITLB_prefetch_access 0
Core_0_ITLB_prefetch_hit 0
Core_0_ITLB_prefetch_miss 0
Core_0_ITLB_prefetch_MPKI 0
Core_0_ITLB_prefetch_miss_rate 0
Core_0_ITLB_writeback_access 0
Core_0_ITLB_writeback_hit 0
Core_0_ITLB_writeback_miss 0
Core_0_ITLB_writeback_MPKI 0
Core_0_ITLB_writeback_miss_rate 0
Core_0_ITLB_prefetch_requested 0
Core_0_ITLB_prefetch_issued 0
Core_0_ITLB_prefetch_useful 0
Core_0_ITLB_prefetch_useless 0
Core_0_ITLB_prefetch_late 0
Core_0_ITLB_prefetch_accuracy 0
Core_0_ITLB_prefetch_coverage 0

Core_0_DTLB_total_access 13756142
Core_0_DTLB_total_hit 13710832
Core_0_DTLB_total_miss 45310
Core_0_DTLB_total_MPKI 0.9062
Core_0_DTLB_total_miss_rate 0.0032938
Core_0_DTLB_demand_access 13756142
Core_0_DTLB_demand_hit 13710832
Core_0_DTLB_demand_miss 45310
Core_0_DTLB_demand_MPKI 0.9062
Core_0_DTLB_demand_miss_rate 0.0032938
Core_0_DTLB_load_access 13756142
Core_0_DTLB_load_hit 13710832
Core_0_DTLB_load_miss 45310
Core_0_DTLB_load_MPKI 0.9062
Core_0_DTLB_load_miss_rate 0.0032938
Core_0_DTLB_rfo_access 0
Core_0_DTLB_rfo_hit 0
Core_0_DTLB_rfo_miss 0
Core_0_DTLB_rfo_MPKI 0
Core_0_DTLB_rfo_miss_rate 0
Core_0_DTLB_prefetch_access 0
Core_0_DTLB_prefetch_hit 0
Core_0_DTLB_prefetch_miss 0
Core_0_DTLB_prefetch_MPKI 0
Core_0_DTLB_prefetch_miss_rate 0
Core_0_DTLB_writeback_access 0
Core_0_DTLB_writeback_hit 0
Core_0_DTLB_writeback_miss 0
Core_0_DTLB_writeback_MPKI 0
Core_0_DTLB_writeback_miss_rate 0
Core_0_DTLB_prefetch_requested 0
Core_0_DTLB_prefetch_issued 0
Core_0_DTLB_prefetch_useful 0
Core_0_DTLB_prefetch_useless 0
Core_0_DTLB_prefetch_late 0
Core_0_DTLB_prefetch_accuracy 0
Core_0_DTLB_prefetch_coverage 0

Core_0_STLB_total_access 36071
Core_0_STLB_total_hit 35821
Core_0_STLB_total_miss 250
Core_0_STLB_total_MPKI 0.005
Core_0_STLB_total_miss_rate 0.00693078
Core_0_STLB_demand_access 36071
Core_0_STLB_demand_hit 35821
Core_0_STLB_demand_miss 250
Core_0_STLB_demand_MPKI 0.005
Core_0_STLB_demand_miss_rate 0.00693078
Core_0_STLB_load_access 36071
Core_0_STLB_load_hit 35821
Core_0_STLB_load_miss 250
Core_0_STLB_load_MPKI 0.005
Core_0_STLB_load_miss_rate 0.00693078
Core_0_STLB_rfo_access 0
Core_0_STLB_rfo_hit 0
Core_0_STLB_rfo_miss 0
Core_0_STLB_rfo_MPKI 0
Core_0_STLB_rfo_miss_rate 0
Core_0_STLB_prefetch_access 0
Core_0_STLB_prefetch_hit 0
Core_0_STLB_prefetch_miss 0
Core_0_STLB_prefetch_MPKI 0
Core_0_STLB_prefetch_miss_rate 0
Core_0_STLB_writeback_access 0
Core_0_STLB_writeback_hit 0
Core_0_STLB_writeback_miss 0
Core_0_STLB_writeback_MPKI 0
Core_0_STLB_writeback_miss_rate 0
Core_0_STLB_prefetch_requested 0
Core_0_STLB_prefetch_issued 0
Core_0_STLB_prefetch_useful 0
Core_0_STLB_prefetch_useless 0
Core_0_STLB_prefetch_late 0
Core_0_STLB_prefetch_accuracy 0
Core_0_STLB_prefetch_coverage 0

Core_0_L1I_total_access 5217765
Core_0_L1I_total_hit 5185699
Core_0_L1I_total_miss 32066
Core_0_L1I_total_MPKI 0.64132
Core_0_L1I_total_miss_rate 0.00614554
Core_0_L1I_demand_access 5217765
Core_0_L1I_demand_hit 5185699
Core_0_L1I_demand_miss 32066
Core_0_L1I_demand_MPKI 0.64132
Core_0_L1I_demand_miss_rate 0.00614554
Core_0_L1I_load_access 5217765
Core_0_L1I_load_hit 5185699
Core_0_L1I_load_miss 32066
Core_0_L1I_load_MPKI 0.64132
Core_0_L1I_load_miss_rate 0.00614554
Core_0_L1I_rfo_access 0
Core_0_L1I_rfo_hit 0
Core_0_L1I_rfo_miss 0
Core_0_L1I_rfo_MPKI 0
Core_0_L1I_rfo_miss_rate 0
Core_0_L1I_prefetch_access 0
Core_0_L1I_prefetch_hit 0
Core_0_L1I_prefetch_miss 0
Core_0_L1I_prefetch_MPKI 0
Core_0_L1I_prefetch_miss_rate 0
Core_0_L1I_writeback_access 0
Core_0_L1I_writeback_hit 0
Core_0_L1I_writeback_miss 0
Core_0_L1I_writeback_MPKI 0
Core_0_L1I_writeback_miss_rate 0
Core_0_L1I_prefetch_requested 0
Core_0_L1I_prefetch_issued 0
Core_0_L1I_prefetch_useful 0
Core_0_L1I_prefetch_useless 0
Core_0_L1I_prefetch_late 0
Core_0_L1I_prefetch_accuracy 0
Core_0_L1I_prefetch_coverage 0

Core_0_L1D_total_access 14519433
Core_0_L1D_total_hit 14342116
Core_0_L1D_total_miss 177317
Core_0_L1D_total_MPKI 3.54634
Core_0_L1D_total_miss_rate 0.0122124
Core_0_L1D_demand_access 8298163
Core_0_L1D_demand_hit 8244228
Core_0_L1D_demand_miss 53935
Core_0_L1D_demand_MPKI 1.0787
Core_0_L1D_demand_miss_rate 0.00649963
Core_0_L1D_load_access 8298163
Core_0_L1D_load_hit 8244228
Core_0_L1D_load_miss 53935
Core_0_L1D_load_MPKI 1.0787
Core_0_L1D_load_miss_rate 0.00649963
Core_0_L1D_rfo_access 0
Core_0_L1D_rfo_hit 0
Core_0_L1D_rfo_miss 0
Core_0_L1D_rfo_MPKI 0
Core_0_L1D_rfo_miss_rate 0
Core_0_L1D_prefetch_access 271839
Core_0_L1D_prefetch_hit 219136
Core_0_L1D_prefetch_miss 52703
Core_0_L1D_prefetch_MPKI 1.05406
Core_0_L1D_prefetch_miss_rate 0.193876
Core_0_L1D_writeback_access 5949431
Core_0_L1D_writeback_hit 5878752
Core_0_L1D_writeback_miss 70679
Core_0_L1D_writeback_MPKI 1.41358
Core_0_L1D_writeback_miss_rate 0.01188
Core_0_L1D_prefetch_requested 295268
Core_0_L1D_prefetch_issued 271839
Core_0_L1D_prefetch_useful 32317
Core_0_L1D_prefetch_useless 19180
Core_0_L1D_prefetch_late 632
Core_0_L1D_prefetch_accuracy 0.118883
Core_0_L1D_prefetch_coverage 0.374681

Core_0_L2C_total_access 231911
Core_0_L2C_total_hit 228419
Core_0_L2C_total_miss 3492
Core_0_L2C_total_MPKI 0.06984
Core_0_L2C_total_miss_rate 0.0150575
Core_0_L2C_demand_access 93587
Core_0_L2C_demand_hit 92704
Core_0_L2C_demand_miss 883
Core_0_L2C_demand_MPKI 0.01766
Core_0_L2C_demand_miss_rate 0.00943507
Core_0_L2C_load_access 64788
Core_0_L2C_load_hit 64104
Core_0_L2C_load_miss 684
Core_0_L2C_load_MPKI 0.01368
Core_0_L2C_load_miss_rate 0.0105575
Core_0_L2C_rfo_access 28799
Core_0_L2C_rfo_hit 28600
Core_0_L2C_rfo_miss 199
Core_0_L2C_rfo_MPKI 0.00398
Core_0_L2C_rfo_miss_rate 0.00690996
Core_0_L2C_prefetch_access 90721
Core_0_L2C_prefetch_hit 88123
Core_0_L2C_prefetch_miss 2598
Core_0_L2C_prefetch_MPKI 0.05196
Core_0_L2C_prefetch_miss_rate 0.0286373
Core_0_L2C_writeback_access 47603
Core_0_L2C_writeback_hit 47592
Core_0_L2C_writeback_miss 11
Core_0_L2C_writeback_MPKI 0.00022
Core_0_L2C_writeback_miss_rate 0.000231078
Core_0_L2C_prefetch_requested 39185
Core_0_L2C_prefetch_issued 39185
Core_0_L2C_prefetch_useful 274
Core_0_L2C_prefetch_useless 37
Core_0_L2C_prefetch_late 3
Core_0_L2C_prefetch_accuracy 0.00699247
Core_0_L2C_prefetch_coverage 0.236819

Core_0_LLC_total_access 3324
Core_0_LLC_total_hit 428
Core_0_LLC_total_miss 2896
Core_0_LLC_total_MPKI 0.05792
Core_0_LLC_total_miss_rate 0.871239
Core_0_LLC_demand_access 880
Core_0_LLC_demand_hit 134
Core_0_LLC_demand_miss 746
Core_0_LLC_demand_MPKI 0.01492
Core_0_LLC_demand_miss_rate 0.847727
Core_0_LLC_load_access 681
Core_0_LLC_load_hit 133
Core_0_LLC_load_miss 548
Core_0_LLC_load_MPKI 0.01096
Core_0_LLC_load_miss_rate 0.804699
Core_0_LLC_rfo_access 199
Core_0_LLC_rfo_hit 1
Core_0_LLC_rfo_miss 198
Core_0_LLC_rfo_MPKI 0.00396
Core_0_LLC_rfo_miss_rate 0.994975
Core_0_LLC_prefetch_access 2312
Core_0_LLC_prefetch_hit 162
Core_0_LLC_prefetch_miss 2150
Core_0_LLC_prefetch_MPKI 0.043
Core_0_LLC_prefetch_miss_rate 0.929931
Core_0_LLC_writeback_access 132
Core_0_LLC_writeback_hit 132
Core_0_LLC_writeback_miss 0
Core_0_LLC_writeback_MPKI 0
Core_0_LLC_writeback_miss_rate 0
Core_0_LLC_prefetch_requested 0
Core_0_LLC_prefetch_issued 0
Core_0_LLC_prefetch_useful 0
Core_0_LLC_prefetch_useless 0
Core_0_LLC_prefetch_late 0
Core_0_LLC_prefetch_accuracy 0
Core_0_LLC_prefetch_coverage 0

[DRAM Statistics]
Channel_0_RQ_row_buffer_hit 3
Channel_0_RQ_row_buffer_miss 2918
Channel_0_WQ_row_buffer_hit 0
Channel_0_WQ_row_buffer_miss 0
Channel_0_WQ_full 0
Channel_0_dbus_congested 1255
DRAM_total_RQ_row_buffer_hit 3
DRAM_total_RQ_row_buffer_miss 2918
DRAM_total_WQ_row_buffer_hit 0
DRAM_total_WQ_row_buffer_miss 0
DRAM_total_WQ_full 0
DRAM_total_dbus_congested 1255
DRAM_avg_congested_cycle 2.87888

======STLB miss causes ========
Core_0_STLB_miss_cause_breakdown
Core_0_STLB_cause_Demand_Data_miss 193
Core_0_STLB_cause_Demand_Data_miss_rate 0.00535056
Core_0_STLB_cause_Demand_Instruction_miss 0
Core_0_STLB_cause_Demand_Instruction_miss_rate 0
Core_0_STLB_cause_L1D_Prefetch_miss 57
Core_0_STLB_cause_L1D_Prefetch_miss_rate 0.00158022
Core_0_STLB_cause_L1I_Prefetch_miss 0
Core_0_STLB_cause_L1I_Prefetch_miss_rate 0
Core_0_STLB_cause_Other_miss 0
Core_0_STLB_cause_Other_miss_rate 0
Core_0_STLB_Demand_miss 193
Core_0_STLB_Demand_miss_rate 0.00535056
Core_0_STLB_L1D_Prefetch_miss 57
Core_0_STLB_L1D_Prefetch_miss_rate 0.00158022
Core_0_STLB_Other_miss 0
Core_0_STLB_Other_miss_rate 0
