[VMEM] WARNING: physical memory size is smaller than virtual memory size.

*** ChampSim Multicore Out-of-Order Simulator ***
Warmup Instructions: 20000000
Simulation Instructions: 50000000
Number of CPUs: 1
Page size: 4096
STLB ideal mode: off
Core 0: /data0/tzh/champsim_traces/SPEC17/644.nab_s-7928B.champsimtrace.xz
 L1D Berti prefetcher
Off-chip DRAM Size: 16 GiB Channels: 1 Width: 64-bit Data Rate: 3205 MT/s
Warmup halting CPU 0 at instruction 20000005 cycle 4119201 for remainder of phase
Warmup finished CPU 0 instructions: 20000005 cycles: 4119201 cumulative IPC: 4.855 (Simulation time: 00 hr 00 min 44 sec)
Warmup complete CPU 0 instructions: 20000005 cycles: 4119201 cumulative IPC: 4.855 (Simulation time: 00 hr 00 min 44 sec)
Simulation finished CPU 0 instructions: 50000002 cycles: 26358018 cumulative IPC: 1.897 (Simulation time: 00 hr 04 min 37 sec)
Simulation complete CPU 0 instructions: 50000002 cycles: 26358018 cumulative IPC: 1.897 (Simulation time: 00 hr 04 min 37 sec)

ChampSim completed all CPUs

=== Simulation ===
CPU 0 runs /data0/tzh/champsim_traces/SPEC17/644.nab_s-7928B.champsimtrace.xz

Region of Interest Statistics

CPU 0 cumulative IPC: 1.897 instructions: 50000002 cycles: 26358018
CPU 0 Branch Prediction Accuracy: 97.38% MPKI: 2.5 Average ROB Occupancy at Mispredict: 106.8
Branch type MPKI
BRANCH_DIRECT_JUMP: 0
BRANCH_INDIRECT: 0
BRANCH_CONDITIONAL: 2.5
BRANCH_DIRECT_CALL: 0
BRANCH_INDIRECT_CALL: 0
BRANCH_RETURN: 0

cpu0->cpu0_STLB TOTAL        ACCESS:      17813 HIT:      17333 MISS:        480 MSHR_MERGE:          0
cpu0->cpu0_STLB LOAD         ACCESS:      17813 HIT:      17333 MISS:        480 MSHR_MERGE:          0
cpu0->cpu0_STLB RFO          ACCESS:          0 HIT:          0 MISS:          0 MSHR_MERGE:          0
cpu0->cpu0_STLB PREFETCH     ACCESS:          0 HIT:          0 MISS:          0 MSHR_MERGE:          0
cpu0->cpu0_STLB WRITE        ACCESS:          0 HIT:          0 MISS:          0 MSHR_MERGE:          0
cpu0->cpu0_STLB TRANSLATION  ACCESS:          0 HIT:          0 MISS:          0 MSHR_MERGE:          0
cpu0->cpu0_STLB PREFETCH REQUESTED:          0 ISSUED:          0 USEFUL:          0 USELESS:          0 LATE:          0
cpu0->cpu0_STLB AVERAGE MISS LATENCY: 258.5 cycles
cpu0->cpu0_L2C TOTAL        ACCESS:     653913 HIT:     626165 MISS:      27748 MSHR_MERGE:        281
cpu0->cpu0_L2C LOAD         ACCESS:      71079 HIT:      66782 MISS:       4297 MSHR_MERGE:          0
cpu0->cpu0_L2C RFO          ACCESS:        727 HIT:        727 MISS:          0 MSHR_MERGE:          0
cpu0->cpu0_L2C PREFETCH     ACCESS:     430564 HIT:     407280 MISS:      23284 MSHR_MERGE:        281
cpu0->cpu0_L2C WRITE        ACCESS:     151102 HIT:     151102 MISS:          0 MSHR_MERGE:          0
cpu0->cpu0_L2C TRANSLATION  ACCESS:        441 HIT:        274 MISS:        167 MSHR_MERGE:          0
cpu0->cpu0_L2C PREFETCH REQUESTED:       9775 ISSUED:       9775 USEFUL:       2875 USELESS:        366 LATE:          0
cpu0->cpu0_L2C AVERAGE MISS LATENCY: 141.2 cycles
cpu0->cpu0_L1I TOTAL        ACCESS:    6273364 HIT:    6273364 MISS:          0 MSHR_MERGE:          0
cpu0->cpu0_L1I LOAD         ACCESS:    6273364 HIT:    6273364 MISS:          0 MSHR_MERGE:          0
cpu0->cpu0_L1I RFO          ACCESS:          0 HIT:          0 MISS:          0 MSHR_MERGE:          0
cpu0->cpu0_L1I PREFETCH     ACCESS:          0 HIT:          0 MISS:          0 MSHR_MERGE:          0
cpu0->cpu0_L1I WRITE        ACCESS:          0 HIT:          0 MISS:          0 MSHR_MERGE:          0
cpu0->cpu0_L1I TRANSLATION  ACCESS:          0 HIT:          0 MISS:          0 MSHR_MERGE:          0
cpu0->cpu0_L1I PREFETCH REQUESTED:          0 ISSUED:          0 USEFUL:          0 USELESS:          0 LATE:          0
cpu0->cpu0_L1I AVERAGE MISS LATENCY: - cycles
cpu0->cpu0_L1D TOTAL        ACCESS:   15089706 HIT:   14556335 MISS:     533371 MSHR_MERGE:      40335
cpu0->cpu0_L1D LOAD         ACCESS:   11186908 HIT:   11077349 MISS:     109559 MSHR_MERGE:      38480
cpu0->cpu0_L1D RFO          ACCESS:          0 HIT:          0 MISS:          0 MSHR_MERGE:          0
cpu0->cpu0_L1D PREFETCH     ACCESS:     505631 HIT:      83000 MISS:     422631 MSHR_MERGE:       1842
cpu0->cpu0_L1D WRITE        ACCESS:    3396204 HIT:    3395464 MISS:        740 MSHR_MERGE:         13
cpu0->cpu0_L1D TRANSLATION  ACCESS:        963 HIT:        522 MISS:        441 MSHR_MERGE:          0
cpu0->cpu0_L1D PREFETCH REQUESTED:     505672 ISSUED:     505623 USEFUL:     388799 USELESS:      31916 LATE:        111
cpu0->cpu0_L1D AVERAGE MISS LATENCY: 16.86 cycles
cpu0->cpu0_ITLB TOTAL        ACCESS:    5609928 HIT:    5609928 MISS:          0 MSHR_MERGE:          0
cpu0->cpu0_ITLB LOAD         ACCESS:    5609928 HIT:    5609928 MISS:          0 MSHR_MERGE:          0
cpu0->cpu0_ITLB RFO          ACCESS:          0 HIT:          0 MISS:          0 MSHR_MERGE:          0
cpu0->cpu0_ITLB PREFETCH     ACCESS:          0 HIT:          0 MISS:          0 MSHR_MERGE:          0
cpu0->cpu0_ITLB WRITE        ACCESS:          0 HIT:          0 MISS:          0 MSHR_MERGE:          0
cpu0->cpu0_ITLB TRANSLATION  ACCESS:          0 HIT:          0 MISS:          0 MSHR_MERGE:          0
cpu0->cpu0_ITLB PREFETCH REQUESTED:          0 ISSUED:          0 USEFUL:          0 USELESS:          0 LATE:          0
cpu0->cpu0_ITLB AVERAGE MISS LATENCY: - cycles
cpu0->cpu0_DTLB TOTAL        ACCESS:   14479688 HIT:   14454588 MISS:      25100 MSHR_MERGE:       7287
cpu0->cpu0_DTLB LOAD         ACCESS:   14479688 HIT:   14454588 MISS:      25100 MSHR_MERGE:       7287
cpu0->cpu0_DTLB RFO          ACCESS:          0 HIT:          0 MISS:          0 MSHR_MERGE:          0
cpu0->cpu0_DTLB PREFETCH     ACCESS:          0 HIT:          0 MISS:          0 MSHR_MERGE:          0
cpu0->cpu0_DTLB WRITE        ACCESS:          0 HIT:          0 MISS:          0 MSHR_MERGE:          0
cpu0->cpu0_DTLB TRANSLATION  ACCESS:          0 HIT:          0 MISS:          0 MSHR_MERGE:          0
cpu0->cpu0_DTLB PREFETCH REQUESTED:          0 ISSUED:          0 USEFUL:          0 USELESS:          0 LATE:          0
cpu0->cpu0_DTLB AVERAGE MISS LATENCY: 11.99 cycles
cpu0->LLC TOTAL        ACCESS:      28710 HIT:       3565 MISS:      25145 MSHR_MERGE:          0
cpu0->LLC LOAD         ACCESS:       4297 HIT:        914 MISS:       3383 MSHR_MERGE:          0
cpu0->LLC RFO          ACCESS:          0 HIT:          0 MISS:          0 MSHR_MERGE:          0
cpu0->LLC PREFETCH     ACCESS:      23003 HIT:       1431 MISS:      21572 MSHR_MERGE:          0
cpu0->LLC WRITE        ACCESS:       1243 HIT:       1149 MISS:         94 MSHR_MERGE:          0
cpu0->LLC TRANSLATION  ACCESS:        167 HIT:         71 MISS:         96 MSHR_MERGE:          0
cpu0->LLC PREFETCH REQUESTED:          0 ISSUED:          0 USEFUL:          0 USELESS:          0 LATE:          0
cpu0->LLC AVERAGE MISS LATENCY: 156.9 cycles

DRAM Statistics

Channel 0 RQ ROW_BUFFER_HIT:          9
  ROW_BUFFER_MISS:      25042
  AVG DBUS CONGESTED CYCLE: 2.81
Channel 0 WQ ROW_BUFFER_HIT:          0
  ROW_BUFFER_MISS:         42
  FULL:          0
Channel 0 REFRESHES ISSUED:       2196

[ROI Statistics]
[System Configuration]
num_cpus 1
cpu_freq 4000
fetch_width 6
decode_width 6
dispatch_width 6
execute_width 6
lq_width 2
sq_width 2
retire_width 6
scheduler_size 128
branch_mispredict_penalty 15
rob_size 352
lq_size 128
sq_size 72
ifetch_buffer_size 64
decode_buffer_size 32
dispatch_buffer_size 32
register_file_size 288
decode_latency 1
dispatch_latency 1
schedule_latency 1
execute_latency 1
page_size 4096
block_size 64
core_0_itlb_set 16
core_0_itlb_way 4
core_0_itlb_rq_size 16
core_0_itlb_wq_size 16
core_0_itlb_pq_size 0
core_0_itlb_mshr_size 8
core_0_itlb_hit_latency 1
core_0_itlb_fill_latency 1
core_0_itlb_max_tag_check 2
core_0_itlb_max_fill 2
core_0_dtlb_set 16
core_0_dtlb_way 4
core_0_dtlb_rq_size 16
core_0_dtlb_wq_size 16
core_0_dtlb_pq_size 0
core_0_dtlb_mshr_size 8
core_0_dtlb_hit_latency 1
core_0_dtlb_fill_latency 1
core_0_dtlb_max_tag_check 2
core_0_dtlb_max_fill 2
core_0_stlb_set 128
core_0_stlb_way 12
core_0_stlb_rq_size 32
core_0_stlb_wq_size 32
core_0_stlb_pq_size 0
core_0_stlb_mshr_size 16
core_0_stlb_hit_latency 4
core_0_stlb_fill_latency 4
core_0_stlb_max_tag_check 1
core_0_stlb_max_fill 1
core_0_l1i_set 64
core_0_l1i_way 8
core_0_l1i_rq_size 64
core_0_l1i_wq_size 64
core_0_l1i_pq_size 32
core_0_l1i_mshr_size 8
core_0_l1i_hit_latency 2
core_0_l1i_fill_latency 2
core_0_l1i_max_tag_check 2
core_0_l1i_max_fill 2
core_0_l1d_set 64
core_0_l1d_way 12
core_0_l1d_rq_size 64
core_0_l1d_wq_size 64
core_0_l1d_pq_size 8
core_0_l1d_mshr_size 16
core_0_l1d_hit_latency 2
core_0_l1d_fill_latency 3
core_0_l1d_max_tag_check 2
core_0_l1d_max_fill 2
core_0_l2c_set 1024
core_0_l2c_way 8
core_0_l2c_rq_size 32
core_0_l2c_wq_size 32
core_0_l2c_pq_size 16
core_0_l2c_mshr_size 32
core_0_l2c_hit_latency 5
core_0_l2c_fill_latency 5
core_0_l2c_max_tag_check 1
core_0_l2c_max_fill 1
llc_set 2048
llc_way 16
llc_rq_size 32
llc_wq_size 32
llc_pq_size 32
llc_mshr_size 64
llc_hit_latency 10
llc_fill_latency 10
llc_max_tag_check 1
llc_max_fill 1
dram_channels 1
dram_ranks 1
dram_bankgroups 8
dram_banks 4
dram_rows 65536
dram_columns 1024
dram_channel_width 8
dram_rq_size 64
dram_wq_size 64
dram_size 17179869184
core_0_itlb_prefetcher no
core_0_dtlb_prefetcher no
core_0_stlb_prefetcher no
core_0_l1i_prefetcher next_line
core_0_l1d_prefetcher berti
core_0_l2c_prefetcher ip_stride
llc_prefetcher no
llc_replacement drrip

Core_0_instructions 50000002
Core_0_cycles 26358018
Core_0_IPC 1.89696
Core_0_branch_prediction_accuracy 97.379
Core_0_branch_MPKI 2.4998
Core_0_average_ROB_occupancy_at_mispredict 106.762

Core_0_ITLB_total_access 5609928
Core_0_ITLB_total_hit 5609928
Core_0_ITLB_total_miss 0
Core_0_ITLB_total_MPKI 0
Core_0_ITLB_total_miss_rate 0
Core_0_ITLB_demand_access 5609928
Core_0_ITLB_demand_hit 5609928
Core_0_ITLB_demand_miss 0
Core_0_ITLB_demand_MPKI 0
Core_0_ITLB_demand_miss_rate 0
Core_0_ITLB_load_access 5609928
Core_0_ITLB_load_hit 5609928
Core_0_ITLB_load_miss 0
Core_0_ITLB_load_MPKI 0
Core_0_ITLB_load_miss_rate 0
Core_0_ITLB_rfo_access 0
Core_0_ITLB_rfo_hit 0
Core_0_ITLB_rfo_miss 0
Core_0_ITLB_rfo_MPKI 0
Core_0_ITLB_rfo_miss_rate 0
Core_0_ITLB_prefetch_access 0
Core_0_ITLB_prefetch_hit 0
Core_0_ITLB_prefetch_miss 0
Core_0_ITLB_prefetch_MPKI 0
Core_0_ITLB_prefetch_miss_rate 0
Core_0_ITLB_writeback_access 0
Core_0_ITLB_writeback_hit 0
Core_0_ITLB_writeback_miss 0
Core_0_ITLB_writeback_MPKI 0
Core_0_ITLB_writeback_miss_rate 0
Core_0_ITLB_prefetch_requested 0
Core_0_ITLB_prefetch_issued 0
Core_0_ITLB_prefetch_useful 0
Core_0_ITLB_prefetch_useless 0
Core_0_ITLB_prefetch_late 0
Core_0_ITLB_prefetch_accuracy 0
Core_0_ITLB_prefetch_coverage 0

Core_0_DTLB_total_access 14479688
Core_0_DTLB_total_hit 14454588
Core_0_DTLB_total_miss 25100
Core_0_DTLB_total_MPKI 0.502
Core_0_DTLB_total_miss_rate 0.00173346
Core_0_DTLB_demand_access 14479688
Core_0_DTLB_demand_hit 14454588
Core_0_DTLB_demand_miss 25100
Core_0_DTLB_demand_MPKI 0.502
Core_0_DTLB_demand_miss_rate 0.00173346
Core_0_DTLB_load_access 14479688
Core_0_DTLB_load_hit 14454588
Core_0_DTLB_load_miss 25100
Core_0_DTLB_load_MPKI 0.502
Core_0_DTLB_load_miss_rate 0.00173346
Core_0_DTLB_rfo_access 0
Core_0_DTLB_rfo_hit 0
Core_0_DTLB_rfo_miss 0
Core_0_DTLB_rfo_MPKI 0
Core_0_DTLB_rfo_miss_rate 0
Core_0_DTLB_prefetch_access 0
Core_0_DTLB_prefetch_hit 0
Core_0_DTLB_prefetch_miss 0
Core_0_DTLB_prefetch_MPKI 0
Core_0_DTLB_prefetch_miss_rate 0
Core_0_DTLB_writeback_access 0
Core_0_DTLB_writeback_hit 0
Core_0_DTLB_writeback_miss 0
Core_0_DTLB_writeback_MPKI 0
Core_0_DTLB_writeback_miss_rate 0
Core_0_DTLB_prefetch_requested 0
Core_0_DTLB_prefetch_issued 0
Core_0_DTLB_prefetch_useful 0
Core_0_DTLB_prefetch_useless 0
Core_0_DTLB_prefetch_late 0
Core_0_DTLB_prefetch_accuracy 0
Core_0_DTLB_prefetch_coverage 0

Core_0_STLB_total_access 17813
Core_0_STLB_total_hit 17333
Core_0_STLB_total_miss 480
Core_0_STLB_total_MPKI 0.0096
Core_0_STLB_total_miss_rate 0.0269466
Core_0_STLB_demand_access 17813
Core_0_STLB_demand_hit 17333
Core_0_STLB_demand_miss 480
Core_0_STLB_demand_MPKI 0.0096
Core_0_STLB_demand_miss_rate 0.0269466
Core_0_STLB_load_access 17813
Core_0_STLB_load_hit 17333
Core_0_STLB_load_miss 480
Core_0_STLB_load_MPKI 0.0096
Core_0_STLB_load_miss_rate 0.0269466
Core_0_STLB_rfo_access 0
Core_0_STLB_rfo_hit 0
Core_0_STLB_rfo_miss 0
Core_0_STLB_rfo_MPKI 0
Core_0_STLB_rfo_miss_rate 0
Core_0_STLB_prefetch_access 0
Core_0_STLB_prefetch_hit 0
Core_0_STLB_prefetch_miss 0
Core_0_STLB_prefetch_MPKI 0
Core_0_STLB_prefetch_miss_rate 0
Core_0_STLB_writeback_access 0
Core_0_STLB_writeback_hit 0
Core_0_STLB_writeback_miss 0
Core_0_STLB_writeback_MPKI 0
Core_0_STLB_writeback_miss_rate 0
Core_0_STLB_prefetch_requested 0
Core_0_STLB_prefetch_issued 0
Core_0_STLB_prefetch_useful 0
Core_0_STLB_prefetch_useless 0
Core_0_STLB_prefetch_late 0
Core_0_STLB_prefetch_accuracy 0
Core_0_STLB_prefetch_coverage 0

Core_0_L1I_total_access 6273364
Core_0_L1I_total_hit 6273364
Core_0_L1I_total_miss 0
Core_0_L1I_total_MPKI 0
Core_0_L1I_total_miss_rate 0
Core_0_L1I_demand_access 6273364
Core_0_L1I_demand_hit 6273364
Core_0_L1I_demand_miss 0
Core_0_L1I_demand_MPKI 0
Core_0_L1I_demand_miss_rate 0
Core_0_L1I_load_access 6273364
Core_0_L1I_load_hit 6273364
Core_0_L1I_load_miss 0
Core_0_L1I_load_MPKI 0
Core_0_L1I_load_miss_rate 0
Core_0_L1I_rfo_access 0
Core_0_L1I_rfo_hit 0
Core_0_L1I_rfo_miss 0
Core_0_L1I_rfo_MPKI 0
Core_0_L1I_rfo_miss_rate 0
Core_0_L1I_prefetch_access 0
Core_0_L1I_prefetch_hit 0
Core_0_L1I_prefetch_miss 0
Core_0_L1I_prefetch_MPKI 0
Core_0_L1I_prefetch_miss_rate 0
Core_0_L1I_writeback_access 0
Core_0_L1I_writeback_hit 0
Core_0_L1I_writeback_miss 0
Core_0_L1I_writeback_MPKI 0
Core_0_L1I_writeback_miss_rate 0
Core_0_L1I_prefetch_requested 0
Core_0_L1I_prefetch_issued 0
Core_0_L1I_prefetch_useful 0
Core_0_L1I_prefetch_useless 0
Core_0_L1I_prefetch_late 0
Core_0_L1I_prefetch_accuracy 0
Core_0_L1I_prefetch_coverage 0

Core_0_L1D_total_access 15088743
Core_0_L1D_total_hit 14555813
Core_0_L1D_total_miss 532930
Core_0_L1D_total_MPKI 10.6586
Core_0_L1D_total_miss_rate 0.0353197
Core_0_L1D_demand_access 11186908
Core_0_L1D_demand_hit 11077349
Core_0_L1D_demand_miss 109559
Core_0_L1D_demand_MPKI 2.19118
Core_0_L1D_demand_miss_rate 0.0097935
Core_0_L1D_load_access 11186908
Core_0_L1D_load_hit 11077349
Core_0_L1D_load_miss 109559
Core_0_L1D_load_MPKI 2.19118
Core_0_L1D_load_miss_rate 0.0097935
Core_0_L1D_rfo_access 0
Core_0_L1D_rfo_hit 0
Core_0_L1D_rfo_miss 0
Core_0_L1D_rfo_MPKI 0
Core_0_L1D_rfo_miss_rate 0
Core_0_L1D_prefetch_access 505631
Core_0_L1D_prefetch_hit 83000
Core_0_L1D_prefetch_miss 422631
Core_0_L1D_prefetch_MPKI 8.45262
Core_0_L1D_prefetch_miss_rate 0.835849
Core_0_L1D_writeback_access 3396204
Core_0_L1D_writeback_hit 3395464
Core_0_L1D_writeback_miss 740
Core_0_L1D_writeback_MPKI 0.0148
Core_0_L1D_writeback_miss_rate 0.00021789
Core_0_L1D_prefetch_requested 505672
Core_0_L1D_prefetch_issued 505623
Core_0_L1D_prefetch_useful 388799
Core_0_L1D_prefetch_useless 31916
Core_0_L1D_prefetch_late 111
Core_0_L1D_prefetch_accuracy 0.76895
Core_0_L1D_prefetch_coverage 0.78016

Core_0_L2C_total_access 653472
Core_0_L2C_total_hit 625891
Core_0_L2C_total_miss 27581
Core_0_L2C_total_MPKI 0.55162
Core_0_L2C_total_miss_rate 0.0422069
Core_0_L2C_demand_access 71806
Core_0_L2C_demand_hit 67509
Core_0_L2C_demand_miss 4297
Core_0_L2C_demand_MPKI 0.08594
Core_0_L2C_demand_miss_rate 0.0598418
Core_0_L2C_load_access 71079
Core_0_L2C_load_hit 66782
Core_0_L2C_load_miss 4297
Core_0_L2C_load_MPKI 0.08594
Core_0_L2C_load_miss_rate 0.0604539
Core_0_L2C_rfo_access 727
Core_0_L2C_rfo_hit 727
Core_0_L2C_rfo_miss 0
Core_0_L2C_rfo_MPKI 0
Core_0_L2C_rfo_miss_rate 0
Core_0_L2C_prefetch_access 430564
Core_0_L2C_prefetch_hit 407280
Core_0_L2C_prefetch_miss 23284
Core_0_L2C_prefetch_MPKI 0.46568
Core_0_L2C_prefetch_miss_rate 0.0540779
Core_0_L2C_writeback_access 151102
Core_0_L2C_writeback_hit 151102
Core_0_L2C_writeback_miss 0
Core_0_L2C_writeback_MPKI 0
Core_0_L2C_writeback_miss_rate 0
Core_0_L2C_prefetch_requested 9775
Core_0_L2C_prefetch_issued 9775
Core_0_L2C_prefetch_useful 2875
Core_0_L2C_prefetch_useless 366
Core_0_L2C_prefetch_late 0
Core_0_L2C_prefetch_accuracy 0.294118
Core_0_L2C_prefetch_coverage 0.400864

Core_0_LLC_total_access 28543
Core_0_LLC_total_hit 3494
Core_0_LLC_total_miss 25049
Core_0_LLC_total_MPKI 0.50098
Core_0_LLC_total_miss_rate 0.877588
Core_0_LLC_demand_access 4297
Core_0_LLC_demand_hit 914
Core_0_LLC_demand_miss 3383
Core_0_LLC_demand_MPKI 0.06766
Core_0_LLC_demand_miss_rate 0.787293
Core_0_LLC_load_access 4297
Core_0_LLC_load_hit 914
Core_0_LLC_load_miss 3383
Core_0_LLC_load_MPKI 0.06766
Core_0_LLC_load_miss_rate 0.787293
Core_0_LLC_rfo_access 0
Core_0_LLC_rfo_hit 0
Core_0_LLC_rfo_miss 0
Core_0_LLC_rfo_MPKI 0
Core_0_LLC_rfo_miss_rate 0
Core_0_LLC_prefetch_access 23003
Core_0_LLC_prefetch_hit 1431
Core_0_LLC_prefetch_miss 21572
Core_0_LLC_prefetch_MPKI 0.43144
Core_0_LLC_prefetch_miss_rate 0.937791
Core_0_LLC_writeback_access 1243
Core_0_LLC_writeback_hit 1149
Core_0_LLC_writeback_miss 94
Core_0_LLC_writeback_MPKI 0.00188
Core_0_LLC_writeback_miss_rate 0.0756235
Core_0_LLC_prefetch_requested 0
Core_0_LLC_prefetch_issued 0
Core_0_LLC_prefetch_useful 0
Core_0_LLC_prefetch_useless 0
Core_0_LLC_prefetch_late 0
Core_0_LLC_prefetch_accuracy 0
Core_0_LLC_prefetch_coverage 0

[DRAM Statistics]
Channel_0_RQ_row_buffer_hit 9
Channel_0_RQ_row_buffer_miss 25042
Channel_0_WQ_row_buffer_hit 0
Channel_0_WQ_row_buffer_miss 42
Channel_0_WQ_full 0
Channel_0_dbus_congested 7095
DRAM_total_RQ_row_buffer_hit 9
DRAM_total_RQ_row_buffer_miss 25042
DRAM_total_WQ_row_buffer_hit 0
DRAM_total_WQ_row_buffer_miss 42
DRAM_total_WQ_full 0
DRAM_total_dbus_congested 7095
DRAM_avg_congested_cycle 2.81015

======STLB miss causes ========
Core_0_STLB_miss_cause_breakdown
Core_0_STLB_cause_Demand_Data_miss 248
Core_0_STLB_cause_Demand_Data_miss_rate 0.0139224
Core_0_STLB_cause_Demand_Instruction_miss 0
Core_0_STLB_cause_Demand_Instruction_miss_rate 0
Core_0_STLB_cause_L1D_Prefetch_miss 232
Core_0_STLB_cause_L1D_Prefetch_miss_rate 0.0130242
Core_0_STLB_cause_L1I_Prefetch_miss 0
Core_0_STLB_cause_L1I_Prefetch_miss_rate 0
Core_0_STLB_cause_Other_miss 0
Core_0_STLB_cause_Other_miss_rate 0
Core_0_STLB_Demand_miss 248
Core_0_STLB_Demand_miss_rate 0.0139224
Core_0_STLB_L1D_Prefetch_miss 232
Core_0_STLB_L1D_Prefetch_miss_rate 0.0130242
Core_0_STLB_Other_miss 0
Core_0_STLB_Other_miss_rate 0
