[VMEM] WARNING: physical memory size is smaller than virtual memory size.

*** ChampSim Multicore Out-of-Order Simulator ***
Warmup Instructions: 20000000
Simulation Instructions: 50000000
Number of CPUs: 1
Page size: 4096
STLB ideal mode: off
Core 0: /data0/tzh/champsim_traces/SPEC17/649.fotonik3d_s-7084B.champsimtrace.xz
 L1D Berti prefetcher
Off-chip DRAM Size: 16 GiB Channels: 1 Width: 64-bit Data Rate: 3205 MT/s
Warmup halting CPU 0 at instruction 20000000 cycle 4694265 for remainder of phase
Warmup finished CPU 0 instructions: 20000000 cycles: 4694265 cumulative IPC: 4.261 (Simulation time: 00 hr 00 min 55 sec)
Warmup complete CPU 0 instructions: 20000000 cycles: 4694265 cumulative IPC: 4.261 (Simulation time: 00 hr 00 min 55 sec)
Simulation finished CPU 0 instructions: 50000004 cycles: 34997173 cumulative IPC: 1.429 (Simulation time: 00 hr 05 min 56 sec)
Simulation complete CPU 0 instructions: 50000004 cycles: 34997173 cumulative IPC: 1.429 (Simulation time: 00 hr 05 min 56 sec)

ChampSim completed all CPUs

=== Simulation ===
CPU 0 runs /data0/tzh/champsim_traces/SPEC17/649.fotonik3d_s-7084B.champsimtrace.xz

Region of Interest Statistics

CPU 0 cumulative IPC: 1.429 instructions: 50000004 cycles: 34997173
CPU 0 Branch Prediction Accuracy: 100% MPKI: 0.00012 Average ROB Occupancy at Mispredict: 348.7
Branch type MPKI
BRANCH_DIRECT_JUMP: 0
BRANCH_INDIRECT: 0
BRANCH_CONDITIONAL: 0.00012
BRANCH_DIRECT_CALL: 0
BRANCH_INDIRECT_CALL: 0
BRANCH_RETURN: 0

cpu0->cpu0_STLB TOTAL        ACCESS:      56973 HIT:      43326 MISS:      13647 MSHR_MERGE:          0
cpu0->cpu0_STLB LOAD         ACCESS:      56973 HIT:      43326 MISS:      13647 MSHR_MERGE:          0
cpu0->cpu0_STLB RFO          ACCESS:          0 HIT:          0 MISS:          0 MSHR_MERGE:          0
cpu0->cpu0_STLB PREFETCH     ACCESS:          0 HIT:          0 MISS:          0 MSHR_MERGE:          0
cpu0->cpu0_STLB WRITE        ACCESS:          0 HIT:          0 MISS:          0 MSHR_MERGE:          0
cpu0->cpu0_STLB TRANSLATION  ACCESS:          0 HIT:          0 MISS:          0 MSHR_MERGE:          0
cpu0->cpu0_STLB PREFETCH REQUESTED:          0 ISSUED:          0 USEFUL:          0 USELESS:          0 LATE:          0
cpu0->cpu0_STLB AVERAGE MISS LATENCY: 221.9 cycles
cpu0->cpu0_L2C TOTAL        ACCESS:    1230032 HIT:     354907 MISS:     875125 MSHR_MERGE:       9108
cpu0->cpu0_L2C LOAD         ACCESS:     138063 HIT:      22941 MISS:     115122 MSHR_MERGE:        385
cpu0->cpu0_L2C RFO          ACCESS:          0 HIT:          0 MISS:          0 MSHR_MERGE:          0
cpu0->cpu0_L2C PREFETCH     ACCESS:     824825 HIT:      66591 MISS:     758234 MSHR_MERGE:       8723
cpu0->cpu0_L2C WRITE        ACCESS:     259624 HIT:     259611 MISS:         13 MSHR_MERGE:          0
cpu0->cpu0_L2C TRANSLATION  ACCESS:       7520 HIT:       5764 MISS:       1756 MSHR_MERGE:          0
cpu0->cpu0_L2C PREFETCH REQUESTED:     100463 ISSUED:     100463 USEFUL:      47782 USELESS:       3762 LATE:        385
cpu0->cpu0_L2C AVERAGE MISS LATENCY: 314.5 cycles
cpu0->cpu0_L1I TOTAL        ACCESS:    8279521 HIT:    8279521 MISS:          0 MSHR_MERGE:          0
cpu0->cpu0_L1I LOAD         ACCESS:    8279521 HIT:    8279521 MISS:          0 MSHR_MERGE:          0
cpu0->cpu0_L1I RFO          ACCESS:          0 HIT:          0 MISS:          0 MSHR_MERGE:          0
cpu0->cpu0_L1I PREFETCH     ACCESS:          0 HIT:          0 MISS:          0 MSHR_MERGE:          0
cpu0->cpu0_L1I WRITE        ACCESS:          0 HIT:          0 MISS:          0 MSHR_MERGE:          0
cpu0->cpu0_L1I TRANSLATION  ACCESS:          0 HIT:          0 MISS:          0 MSHR_MERGE:          0
cpu0->cpu0_L1I PREFETCH REQUESTED:          0 ISSUED:          0 USEFUL:          0 USELESS:          0 LATE:          0
cpu0->cpu0_L1I AVERAGE MISS LATENCY: - cycles
cpu0->cpu0_L1D TOTAL        ACCESS:   12028495 HIT:   10977771 MISS:    1050724 MSHR_MERGE:     180774
cpu0->cpu0_L1D LOAD         ACCESS:    8732544 HIT:    8423384 MISS:     309160 MSHR_MERGE:     171097
cpu0->cpu0_L1D RFO          ACCESS:          0 HIT:          0 MISS:          0 MSHR_MERGE:          0
cpu0->cpu0_L1D PREFETCH     ACCESS:     810020 HIT:      75979 MISS:     734041 MSHR_MERGE:       9675
cpu0->cpu0_L1D WRITE        ACCESS:    2458617 HIT:    2458617 MISS:          0 MSHR_MERGE:          0
cpu0->cpu0_L1D TRANSLATION  ACCESS:      27314 HIT:      19791 MISS:       7523 MSHR_MERGE:          2
cpu0->cpu0_L1D PREFETCH REQUESTED:     810959 ISSUED:     810017 USEFUL:     680798 USELESS:      43524 LATE:      40378
cpu0->cpu0_L1D AVERAGE MISS LATENCY: 245 cycles
cpu0->cpu0_ITLB TOTAL        ACCESS:    6214192 HIT:    6214192 MISS:          0 MSHR_MERGE:          0
cpu0->cpu0_ITLB LOAD         ACCESS:    6214192 HIT:    6214192 MISS:          0 MSHR_MERGE:          0
cpu0->cpu0_ITLB RFO          ACCESS:          0 HIT:          0 MISS:          0 MSHR_MERGE:          0
cpu0->cpu0_ITLB PREFETCH     ACCESS:          0 HIT:          0 MISS:          0 MSHR_MERGE:          0
cpu0->cpu0_ITLB WRITE        ACCESS:          0 HIT:          0 MISS:          0 MSHR_MERGE:          0
cpu0->cpu0_ITLB TRANSLATION  ACCESS:          0 HIT:          0 MISS:          0 MSHR_MERGE:          0
cpu0->cpu0_ITLB PREFETCH REQUESTED:          0 ISSUED:          0 USEFUL:          0 USELESS:          0 LATE:          0
cpu0->cpu0_ITLB AVERAGE MISS LATENCY: - cycles
cpu0->cpu0_DTLB TOTAL        ACCESS:   11397856 HIT:   11323953 MISS:      73903 MSHR_MERGE:      16930
cpu0->cpu0_DTLB LOAD         ACCESS:   11397856 HIT:   11323953 MISS:      73903 MSHR_MERGE:      16930
cpu0->cpu0_DTLB RFO          ACCESS:          0 HIT:          0 MISS:          0 MSHR_MERGE:          0
cpu0->cpu0_DTLB PREFETCH     ACCESS:          0 HIT:          0 MISS:          0 MSHR_MERGE:          0
cpu0->cpu0_DTLB WRITE        ACCESS:          0 HIT:          0 MISS:          0 MSHR_MERGE:          0
cpu0->cpu0_DTLB TRANSLATION  ACCESS:          0 HIT:          0 MISS:          0 MSHR_MERGE:          0
cpu0->cpu0_DTLB PREFETCH REQUESTED:          0 ISSUED:          0 USEFUL:          0 USELESS:          0 LATE:          0
cpu0->cpu0_DTLB AVERAGE MISS LATENCY: 58.39 cycles
cpu0->LLC TOTAL        ACCESS:    1126147 HIT:      41487 MISS:    1084660 MSHR_MERGE:        230
cpu0->LLC LOAD         ACCESS:     114736 HIT:        265 MISS:     114471 MSHR_MERGE:          8
cpu0->LLC RFO          ACCESS:          0 HIT:          0 MISS:          0 MSHR_MERGE:          0
cpu0->LLC PREFETCH     ACCESS:     749511 HIT:       1130 MISS:     748381 MSHR_MERGE:        222
cpu0->LLC WRITE        ACCESS:     260144 HIT:      40092 MISS:     220052 MSHR_MERGE:          0
cpu0->LLC TRANSLATION  ACCESS:       1756 HIT:          0 MISS:       1756 MSHR_MERGE:          0
cpu0->LLC PREFETCH REQUESTED:          0 ISSUED:          0 USEFUL:          0 USELESS:          0 LATE:          0
cpu0->LLC AVERAGE MISS LATENCY: 109.5 cycles

DRAM Statistics

Channel 0 RQ ROW_BUFFER_HIT:      12334
  ROW_BUFFER_MISS:     852040
  AVG DBUS CONGESTED CYCLE: 5.767
Channel 0 WQ ROW_BUFFER_HIT:      40050
  ROW_BUFFER_MISS:     219402
  FULL:          0
Channel 0 REFRESHES ISSUED:       2916

[ROI Statistics]
[System Configuration]
num_cpus 1
cpu_freq 4000
fetch_width 6
decode_width 6
dispatch_width 6
execute_width 6
lq_width 2
sq_width 2
retire_width 6
scheduler_size 128
branch_mispredict_penalty 15
rob_size 352
lq_size 128
sq_size 72
ifetch_buffer_size 64
decode_buffer_size 32
dispatch_buffer_size 32
register_file_size 288
decode_latency 1
dispatch_latency 1
schedule_latency 1
execute_latency 1
page_size 4096
block_size 64
core_0_itlb_set 16
core_0_itlb_way 4
core_0_itlb_rq_size 16
core_0_itlb_wq_size 16
core_0_itlb_pq_size 0
core_0_itlb_mshr_size 8
core_0_itlb_hit_latency 1
core_0_itlb_fill_latency 1
core_0_itlb_max_tag_check 2
core_0_itlb_max_fill 2
core_0_dtlb_set 16
core_0_dtlb_way 4
core_0_dtlb_rq_size 16
core_0_dtlb_wq_size 16
core_0_dtlb_pq_size 0
core_0_dtlb_mshr_size 8
core_0_dtlb_hit_latency 1
core_0_dtlb_fill_latency 1
core_0_dtlb_max_tag_check 2
core_0_dtlb_max_fill 2
core_0_stlb_set 128
core_0_stlb_way 12
core_0_stlb_rq_size 32
core_0_stlb_wq_size 32
core_0_stlb_pq_size 0
core_0_stlb_mshr_size 16
core_0_stlb_hit_latency 4
core_0_stlb_fill_latency 4
core_0_stlb_max_tag_check 1
core_0_stlb_max_fill 1
core_0_l1i_set 64
core_0_l1i_way 8
core_0_l1i_rq_size 64
core_0_l1i_wq_size 64
core_0_l1i_pq_size 32
core_0_l1i_mshr_size 8
core_0_l1i_hit_latency 2
core_0_l1i_fill_latency 2
core_0_l1i_max_tag_check 2
core_0_l1i_max_fill 2
core_0_l1d_set 64
core_0_l1d_way 12
core_0_l1d_rq_size 64
core_0_l1d_wq_size 64
core_0_l1d_pq_size 8
core_0_l1d_mshr_size 16
core_0_l1d_hit_latency 2
core_0_l1d_fill_latency 3
core_0_l1d_max_tag_check 2
core_0_l1d_max_fill 2
core_0_l2c_set 1024
core_0_l2c_way 8
core_0_l2c_rq_size 32
core_0_l2c_wq_size 32
core_0_l2c_pq_size 16
core_0_l2c_mshr_size 32
core_0_l2c_hit_latency 5
core_0_l2c_fill_latency 5
core_0_l2c_max_tag_check 1
core_0_l2c_max_fill 1
llc_set 2048
llc_way 16
llc_rq_size 32
llc_wq_size 32
llc_pq_size 32
llc_mshr_size 64
llc_hit_latency 10
llc_fill_latency 10
llc_max_tag_check 1
llc_max_fill 1
dram_channels 1
dram_ranks 1
dram_bankgroups 8
dram_banks 4
dram_rows 65536
dram_columns 1024
dram_channel_width 8
dram_rq_size 64
dram_wq_size 64
dram_size 17179869184
core_0_itlb_prefetcher no
core_0_dtlb_prefetcher no
core_0_stlb_prefetcher no
core_0_l1i_prefetcher next_line
core_0_l1d_prefetcher berti
core_0_l2c_prefetcher ip_stride
llc_prefetcher no
llc_replacement drrip

Core_0_instructions 50000004
Core_0_cycles 34997173
Core_0_IPC 1.42869
Core_0_branch_prediction_accuracy 99.9983
Core_0_branch_MPKI 0.00012
Core_0_average_ROB_occupancy_at_mispredict 348.667

Core_0_ITLB_total_access 6214192
Core_0_ITLB_total_hit 6214192
Core_0_ITLB_total_miss 0
Core_0_ITLB_total_MPKI 0
Core_0_ITLB_total_miss_rate 0
Core_0_ITLB_demand_access 6214192
Core_0_ITLB_demand_hit 6214192
Core_0_ITLB_demand_miss 0
Core_0_ITLB_demand_MPKI 0
Core_0_ITLB_demand_miss_rate 0
Core_0_ITLB_load_access 6214192
Core_0_ITLB_load_hit 6214192
Core_0_ITLB_load_miss 0
Core_0_ITLB_load_MPKI 0
Core_0_ITLB_load_miss_rate 0
Core_0_ITLB_rfo_access 0
Core_0_ITLB_rfo_hit 0
Core_0_ITLB_rfo_miss 0
Core_0_ITLB_rfo_MPKI 0
Core_0_ITLB_rfo_miss_rate 0
Core_0_ITLB_prefetch_access 0
Core_0_ITLB_prefetch_hit 0
Core_0_ITLB_prefetch_miss 0
Core_0_ITLB_prefetch_MPKI 0
Core_0_ITLB_prefetch_miss_rate 0
Core_0_ITLB_writeback_access 0
Core_0_ITLB_writeback_hit 0
Core_0_ITLB_writeback_miss 0
Core_0_ITLB_writeback_MPKI 0
Core_0_ITLB_writeback_miss_rate 0
Core_0_ITLB_prefetch_requested 0
Core_0_ITLB_prefetch_issued 0
Core_0_ITLB_prefetch_useful 0
Core_0_ITLB_prefetch_useless 0
Core_0_ITLB_prefetch_late 0
Core_0_ITLB_prefetch_accuracy 0
Core_0_ITLB_prefetch_coverage 0

Core_0_DTLB_total_access 11397856
Core_0_DTLB_total_hit 11323953
Core_0_DTLB_total_miss 73903
Core_0_DTLB_total_MPKI 1.47806
Core_0_DTLB_total_miss_rate 0.00648394
Core_0_DTLB_demand_access 11397856
Core_0_DTLB_demand_hit 11323953
Core_0_DTLB_demand_miss 73903
Core_0_DTLB_demand_MPKI 1.47806
Core_0_DTLB_demand_miss_rate 0.00648394
Core_0_DTLB_load_access 11397856
Core_0_DTLB_load_hit 11323953
Core_0_DTLB_load_miss 73903
Core_0_DTLB_load_MPKI 1.47806
Core_0_DTLB_load_miss_rate 0.00648394
Core_0_DTLB_rfo_access 0
Core_0_DTLB_rfo_hit 0
Core_0_DTLB_rfo_miss 0
Core_0_DTLB_rfo_MPKI 0
Core_0_DTLB_rfo_miss_rate 0
Core_0_DTLB_prefetch_access 0
Core_0_DTLB_prefetch_hit 0
Core_0_DTLB_prefetch_miss 0
Core_0_DTLB_prefetch_MPKI 0
Core_0_DTLB_prefetch_miss_rate 0
Core_0_DTLB_writeback_access 0
Core_0_DTLB_writeback_hit 0
Core_0_DTLB_writeback_miss 0
Core_0_DTLB_writeback_MPKI 0
Core_0_DTLB_writeback_miss_rate 0
Core_0_DTLB_prefetch_requested 0
Core_0_DTLB_prefetch_issued 0
Core_0_DTLB_prefetch_useful 0
Core_0_DTLB_prefetch_useless 0
Core_0_DTLB_prefetch_late 0
Core_0_DTLB_prefetch_accuracy 0
Core_0_DTLB_prefetch_coverage 0

Core_0_STLB_total_access 56973
Core_0_STLB_total_hit 43326
Core_0_STLB_total_miss 13647
Core_0_STLB_total_MPKI 0.27294
Core_0_STLB_total_miss_rate 0.239535
Core_0_STLB_demand_access 56973
Core_0_STLB_demand_hit 43326
Core_0_STLB_demand_miss 13647
Core_0_STLB_demand_MPKI 0.27294
Core_0_STLB_demand_miss_rate 0.239535
Core_0_STLB_load_access 56973
Core_0_STLB_load_hit 43326
Core_0_STLB_load_miss 13647
Core_0_STLB_load_MPKI 0.27294
Core_0_STLB_load_miss_rate 0.239535
Core_0_STLB_rfo_access 0
Core_0_STLB_rfo_hit 0
Core_0_STLB_rfo_miss 0
Core_0_STLB_rfo_MPKI 0
Core_0_STLB_rfo_miss_rate 0
Core_0_STLB_prefetch_access 0
Core_0_STLB_prefetch_hit 0
Core_0_STLB_prefetch_miss 0
Core_0_STLB_prefetch_MPKI 0
Core_0_STLB_prefetch_miss_rate 0
Core_0_STLB_writeback_access 0
Core_0_STLB_writeback_hit 0
Core_0_STLB_writeback_miss 0
Core_0_STLB_writeback_MPKI 0
Core_0_STLB_writeback_miss_rate 0
Core_0_STLB_prefetch_requested 0
Core_0_STLB_prefetch_issued 0
Core_0_STLB_prefetch_useful 0
Core_0_STLB_prefetch_useless 0
Core_0_STLB_prefetch_late 0
Core_0_STLB_prefetch_accuracy 0
Core_0_STLB_prefetch_coverage 0

Core_0_L1I_total_access 8279521
Core_0_L1I_total_hit 8279521
Core_0_L1I_total_miss 0
Core_0_L1I_total_MPKI 0
Core_0_L1I_total_miss_rate 0
Core_0_L1I_demand_access 8279521
Core_0_L1I_demand_hit 8279521
Core_0_L1I_demand_miss 0
Core_0_L1I_demand_MPKI 0
Core_0_L1I_demand_miss_rate 0
Core_0_L1I_load_access 8279521
Core_0_L1I_load_hit 8279521
Core_0_L1I_load_miss 0
Core_0_L1I_load_MPKI 0
Core_0_L1I_load_miss_rate 0
Core_0_L1I_rfo_access 0
Core_0_L1I_rfo_hit 0
Core_0_L1I_rfo_miss 0
Core_0_L1I_rfo_MPKI 0
Core_0_L1I_rfo_miss_rate 0
Core_0_L1I_prefetch_access 0
Core_0_L1I_prefetch_hit 0
Core_0_L1I_prefetch_miss 0
Core_0_L1I_prefetch_MPKI 0
Core_0_L1I_prefetch_miss_rate 0
Core_0_L1I_writeback_access 0
Core_0_L1I_writeback_hit 0
Core_0_L1I_writeback_miss 0
Core_0_L1I_writeback_MPKI 0
Core_0_L1I_writeback_miss_rate 0
Core_0_L1I_prefetch_requested 0
Core_0_L1I_prefetch_issued 0
Core_0_L1I_prefetch_useful 0
Core_0_L1I_prefetch_useless 0
Core_0_L1I_prefetch_late 0
Core_0_L1I_prefetch_accuracy 0
Core_0_L1I_prefetch_coverage 0

Core_0_L1D_total_access 12001181
Core_0_L1D_total_hit 10957980
Core_0_L1D_total_miss 1043201
Core_0_L1D_total_MPKI 20.864
Core_0_L1D_total_miss_rate 0.0869249
Core_0_L1D_demand_access 8732544
Core_0_L1D_demand_hit 8423384
Core_0_L1D_demand_miss 309160
Core_0_L1D_demand_MPKI 6.1832
Core_0_L1D_demand_miss_rate 0.0354032
Core_0_L1D_load_access 8732544
Core_0_L1D_load_hit 8423384
Core_0_L1D_load_miss 309160
Core_0_L1D_load_MPKI 6.1832
Core_0_L1D_load_miss_rate 0.0354032
Core_0_L1D_rfo_access 0
Core_0_L1D_rfo_hit 0
Core_0_L1D_rfo_miss 0
Core_0_L1D_rfo_MPKI 0
Core_0_L1D_rfo_miss_rate 0
Core_0_L1D_prefetch_access 810020
Core_0_L1D_prefetch_hit 75979
Core_0_L1D_prefetch_miss 734041
Core_0_L1D_prefetch_MPKI 14.6808
Core_0_L1D_prefetch_miss_rate 0.906201
Core_0_L1D_writeback_access 2458617
Core_0_L1D_writeback_hit 2458617
Core_0_L1D_writeback_miss 0
Core_0_L1D_writeback_MPKI 0
Core_0_L1D_writeback_miss_rate 0
Core_0_L1D_prefetch_requested 810959
Core_0_L1D_prefetch_issued 810017
Core_0_L1D_prefetch_useful 680798
Core_0_L1D_prefetch_useless 43524
Core_0_L1D_prefetch_late 40378
Core_0_L1D_prefetch_accuracy 0.840474
Core_0_L1D_prefetch_coverage 0.687704

Core_0_L2C_total_access 1222512
Core_0_L2C_total_hit 349143
Core_0_L2C_total_miss 873369
Core_0_L2C_total_MPKI 17.4674
Core_0_L2C_total_miss_rate 0.714405
Core_0_L2C_demand_access 138063
Core_0_L2C_demand_hit 22941
Core_0_L2C_demand_miss 115122
Core_0_L2C_demand_MPKI 2.30244
Core_0_L2C_demand_miss_rate 0.833837
Core_0_L2C_load_access 138063
Core_0_L2C_load_hit 22941
Core_0_L2C_load_miss 115122
Core_0_L2C_load_MPKI 2.30244
Core_0_L2C_load_miss_rate 0.833837
Core_0_L2C_rfo_access 0
Core_0_L2C_rfo_hit 0
Core_0_L2C_rfo_miss 0
Core_0_L2C_rfo_MPKI 0
Core_0_L2C_rfo_miss_rate 0
Core_0_L2C_prefetch_access 824825
Core_0_L2C_prefetch_hit 66591
Core_0_L2C_prefetch_miss 758234
Core_0_L2C_prefetch_MPKI 15.1647
Core_0_L2C_prefetch_miss_rate 0.919267
Core_0_L2C_writeback_access 259624
Core_0_L2C_writeback_hit 259611
Core_0_L2C_writeback_miss 13
Core_0_L2C_writeback_MPKI 0.00026
Core_0_L2C_writeback_miss_rate 5.00724e-05
Core_0_L2C_prefetch_requested 100463
Core_0_L2C_prefetch_issued 100463
Core_0_L2C_prefetch_useful 47782
Core_0_L2C_prefetch_useless 3762
Core_0_L2C_prefetch_late 385
Core_0_L2C_prefetch_accuracy 0.475618
Core_0_L2C_prefetch_coverage 0.293314

Core_0_LLC_total_access 1124391
Core_0_LLC_total_hit 41487
Core_0_LLC_total_miss 1082904
Core_0_LLC_total_MPKI 21.6581
Core_0_LLC_total_miss_rate 0.963103
Core_0_LLC_demand_access 114736
Core_0_LLC_demand_hit 265
Core_0_LLC_demand_miss 114471
Core_0_LLC_demand_MPKI 2.28942
Core_0_LLC_demand_miss_rate 0.99769
Core_0_LLC_load_access 114736
Core_0_LLC_load_hit 265
Core_0_LLC_load_miss 114471
Core_0_LLC_load_MPKI 2.28942
Core_0_LLC_load_miss_rate 0.99769
Core_0_LLC_rfo_access 0
Core_0_LLC_rfo_hit 0
Core_0_LLC_rfo_miss 0
Core_0_LLC_rfo_MPKI 0
Core_0_LLC_rfo_miss_rate 0
Core_0_LLC_prefetch_access 749511
Core_0_LLC_prefetch_hit 1130
Core_0_LLC_prefetch_miss 748381
Core_0_LLC_prefetch_MPKI 14.9676
Core_0_LLC_prefetch_miss_rate 0.998492
Core_0_LLC_writeback_access 260144
Core_0_LLC_writeback_hit 40092
Core_0_LLC_writeback_miss 220052
Core_0_LLC_writeback_MPKI 4.40104
Core_0_LLC_writeback_miss_rate 0.845885
Core_0_LLC_prefetch_requested 0
Core_0_LLC_prefetch_issued 0
Core_0_LLC_prefetch_useful 0
Core_0_LLC_prefetch_useless 0
Core_0_LLC_prefetch_late 0
Core_0_LLC_prefetch_accuracy 0
Core_0_LLC_prefetch_coverage 0

[DRAM Statistics]
Channel_0_RQ_row_buffer_hit 12334
Channel_0_RQ_row_buffer_miss 852040
Channel_0_WQ_row_buffer_hit 40050
Channel_0_WQ_row_buffer_miss 219402
Channel_0_WQ_full 0
Channel_0_dbus_congested 2762404
DRAM_total_RQ_row_buffer_hit 12334
DRAM_total_RQ_row_buffer_miss 852040
DRAM_total_WQ_row_buffer_hit 40050
DRAM_total_WQ_row_buffer_miss 219402
DRAM_total_WQ_full 0
DRAM_total_dbus_congested 2762404
DRAM_avg_congested_cycle 5.7674

======STLB miss causes ========
Core_0_STLB_miss_cause_breakdown
Core_0_STLB_cause_Demand_Data_miss 7864
Core_0_STLB_cause_Demand_Data_miss_rate 0.13803
Core_0_STLB_cause_Demand_Instruction_miss 0
Core_0_STLB_cause_Demand_Instruction_miss_rate 0
Core_0_STLB_cause_L1D_Prefetch_miss 5783
Core_0_STLB_cause_L1D_Prefetch_miss_rate 0.101504
Core_0_STLB_cause_L1I_Prefetch_miss 0
Core_0_STLB_cause_L1I_Prefetch_miss_rate 0
Core_0_STLB_cause_Other_miss 0
Core_0_STLB_cause_Other_miss_rate 0
Core_0_STLB_Demand_miss 7864
Core_0_STLB_Demand_miss_rate 0.13803
Core_0_STLB_L1D_Prefetch_miss 5783
Core_0_STLB_L1D_Prefetch_miss_rate 0.101504
Core_0_STLB_Other_miss 0
Core_0_STLB_Other_miss_rate 0
