[VMEM] WARNING: physical memory size is smaller than virtual memory size.

*** ChampSim Multicore Out-of-Order Simulator ***
Warmup Instructions: 20000000
Simulation Instructions: 50000000
Number of CPUs: 1
Page size: 4096
STLB ideal mode: off
Core 0: /data0/tzh/champsim_traces/SPEC17/654.roms_s-523B.champsimtrace.xz
 L1D Berti prefetcher
Off-chip DRAM Size: 16 GiB Channels: 1 Width: 64-bit Data Rate: 3205 MT/s
Warmup halting CPU 0 at instruction 20000000 cycle 4617389 for remainder of phase
Warmup finished CPU 0 instructions: 20000000 cycles: 4617389 cumulative IPC: 4.331 (Simulation time: 00 hr 00 min 52 sec)
Warmup complete CPU 0 instructions: 20000000 cycles: 4617389 cumulative IPC: 4.331 (Simulation time: 00 hr 00 min 52 sec)
Simulation finished CPU 0 instructions: 50000002 cycles: 45448355 cumulative IPC: 1.1 (Simulation time: 00 hr 06 min 59 sec)
Simulation complete CPU 0 instructions: 50000002 cycles: 45448355 cumulative IPC: 1.1 (Simulation time: 00 hr 06 min 59 sec)

ChampSim completed all CPUs

=== Simulation ===
CPU 0 runs /data0/tzh/champsim_traces/SPEC17/654.roms_s-523B.champsimtrace.xz

Region of Interest Statistics

CPU 0 cumulative IPC: 1.1 instructions: 50000002 cycles: 45448355
CPU 0 Branch Prediction Accuracy: 99.85% MPKI: 0.1187 Average ROB Occupancy at Mispredict: 347.1
Branch type MPKI
BRANCH_DIRECT_JUMP: 6e-05
BRANCH_INDIRECT: 0
BRANCH_CONDITIONAL: 0.1186
BRANCH_DIRECT_CALL: 0
BRANCH_INDIRECT_CALL: 0
BRANCH_RETURN: 0

cpu0->cpu0_STLB TOTAL        ACCESS:      29760 HIT:        214 MISS:      29546 MSHR_MERGE:          0
cpu0->cpu0_STLB LOAD         ACCESS:      29760 HIT:        214 MISS:      29546 MSHR_MERGE:          0
cpu0->cpu0_STLB RFO          ACCESS:          0 HIT:          0 MISS:          0 MSHR_MERGE:          0
cpu0->cpu0_STLB PREFETCH     ACCESS:          0 HIT:          0 MISS:          0 MSHR_MERGE:          0
cpu0->cpu0_STLB WRITE        ACCESS:          0 HIT:          0 MISS:          0 MSHR_MERGE:          0
cpu0->cpu0_STLB TRANSLATION  ACCESS:          0 HIT:          0 MISS:          0 MSHR_MERGE:          0
cpu0->cpu0_STLB PREFETCH REQUESTED:          0 ISSUED:          0 USEFUL:          0 USELESS:          0 LATE:          0
cpu0->cpu0_STLB AVERAGE MISS LATENCY: 200.5 cycles
cpu0->cpu0_L2C TOTAL        ACCESS:    2193357 HIT:     555601 MISS:    1637756 MSHR_MERGE:     267216
cpu0->cpu0_L2C LOAD         ACCESS:     118515 HIT:      20838 MISS:      97677 MSHR_MERGE:       9864
cpu0->cpu0_L2C RFO          ACCESS:     333719 HIT:          0 MISS:     333719 MSHR_MERGE:          0
cpu0->cpu0_L2C PREFETCH     ACCESS:    1291329 HIT:      91323 MISS:    1200006 MSHR_MERGE:     257352
cpu0->cpu0_L2C WRITE        ACCESS:     443373 HIT:     443331 MISS:         42 MSHR_MERGE:          0
cpu0->cpu0_L2C TRANSLATION  ACCESS:       6421 HIT:        109 MISS:       6312 MSHR_MERGE:          0
cpu0->cpu0_L2C PREFETCH REQUESTED:     440819 ISSUED:     440819 USEFUL:      73312 USELESS:      90062 LATE:       9864
cpu0->cpu0_L2C AVERAGE MISS LATENCY: 367.8 cycles
cpu0->cpu0_L1I TOTAL        ACCESS:    8839704 HIT:    8839603 MISS:        101 MSHR_MERGE:         25
cpu0->cpu0_L1I LOAD         ACCESS:    8839704 HIT:    8839603 MISS:        101 MSHR_MERGE:         25
cpu0->cpu0_L1I RFO          ACCESS:          0 HIT:          0 MISS:          0 MSHR_MERGE:          0
cpu0->cpu0_L1I PREFETCH     ACCESS:          0 HIT:          0 MISS:          0 MSHR_MERGE:          0
cpu0->cpu0_L1I WRITE        ACCESS:          0 HIT:          0 MISS:          0 MSHR_MERGE:          0
cpu0->cpu0_L1I TRANSLATION  ACCESS:          0 HIT:          0 MISS:          0 MSHR_MERGE:          0
cpu0->cpu0_L1I PREFETCH REQUESTED:          0 ISSUED:          0 USEFUL:          0 USELESS:          0 LATE:          0
cpu0->cpu0_L1I AVERAGE MISS LATENCY: 320.8 cycles
cpu0->cpu0_L1D TOTAL        ACCESS:   15581524 HIT:   11241159 MISS:    4340365 MSHR_MERGE:    3031280
cpu0->cpu0_L1D LOAD         ACCESS:   11075787 HIT:   10153690 MISS:     922097 MSHR_MERGE:     803658
cpu0->cpu0_L1D RFO          ACCESS:          0 HIT:          0 MISS:          0 MSHR_MERGE:          0
cpu0->cpu0_L1D PREFETCH     ACCESS:     928993 HIT:      56113 MISS:     872880 MSHR_MERGE:      22374
cpu0->cpu0_L1D WRITE        ACCESS:    3517689 HIT:     978815 MISS:    2538874 MSHR_MERGE:    2205155
cpu0->cpu0_L1D TRANSLATION  ACCESS:      59055 HIT:      52541 MISS:       6514 MSHR_MERGE:         93
cpu0->cpu0_L1D PREFETCH REQUESTED:     937154 ISSUED:     928987 USEFUL:     819342 USELESS:      31138 LATE:     128977
cpu0->cpu0_L1D AVERAGE MISS LATENCY: 324 cycles
cpu0->cpu0_ITLB TOTAL        ACCESS:    7246266 HIT:    7246260 MISS:          6 MSHR_MERGE:          5
cpu0->cpu0_ITLB LOAD         ACCESS:    7246266 HIT:    7246260 MISS:          6 MSHR_MERGE:          5
cpu0->cpu0_ITLB RFO          ACCESS:          0 HIT:          0 MISS:          0 MSHR_MERGE:          0
cpu0->cpu0_ITLB PREFETCH     ACCESS:          0 HIT:          0 MISS:          0 MSHR_MERGE:          0
cpu0->cpu0_ITLB WRITE        ACCESS:          0 HIT:          0 MISS:          0 MSHR_MERGE:          0
cpu0->cpu0_ITLB TRANSLATION  ACCESS:          0 HIT:          0 MISS:          0 MSHR_MERGE:          0
cpu0->cpu0_ITLB PREFETCH REQUESTED:          0 ISSUED:          0 USEFUL:          0 USELESS:          0 LATE:          0
cpu0->cpu0_ITLB AVERAGE MISS LATENCY: 1224 cycles
cpu0->cpu0_DTLB TOTAL        ACCESS:   14465446 HIT:   14298366 MISS:     167080 MSHR_MERGE:     137321
cpu0->cpu0_DTLB LOAD         ACCESS:   14465446 HIT:   14298366 MISS:     167080 MSHR_MERGE:     137321
cpu0->cpu0_DTLB RFO          ACCESS:          0 HIT:          0 MISS:          0 MSHR_MERGE:          0
cpu0->cpu0_DTLB PREFETCH     ACCESS:          0 HIT:          0 MISS:          0 MSHR_MERGE:          0
cpu0->cpu0_DTLB WRITE        ACCESS:          0 HIT:          0 MISS:          0 MSHR_MERGE:          0
cpu0->cpu0_DTLB TRANSLATION  ACCESS:          0 HIT:          0 MISS:          0 MSHR_MERGE:          0
cpu0->cpu0_DTLB PREFETCH REQUESTED:          0 ISSUED:          0 USEFUL:          0 USELESS:          0 LATE:          0
cpu0->cpu0_DTLB AVERAGE MISS LATENCY: 205.1 cycles
cpu0->LLC TOTAL        ACCESS:    1814829 HIT:      89782 MISS:    1725047 MSHR_MERGE:      44858
cpu0->LLC LOAD         ACCESS:      87813 HIT:       2679 MISS:      85134 MSHR_MERGE:        600
cpu0->LLC RFO          ACCESS:     333719 HIT:        155 MISS:     333564 MSHR_MERGE:          0
cpu0->LLC PREFETCH     ACCESS:     942654 HIT:      17768 MISS:     924886 MSHR_MERGE:      44258
cpu0->LLC WRITE        ACCESS:     444331 HIT:      69177 MISS:     375154 MSHR_MERGE:          0
cpu0->LLC TRANSLATION  ACCESS:       6312 HIT:          3 MISS:       6309 MSHR_MERGE:          0
cpu0->LLC PREFETCH REQUESTED:          0 ISSUED:          0 USEFUL:          0 USELESS:          0 LATE:          0
cpu0->LLC AVERAGE MISS LATENCY: 194.1 cycles

DRAM Statistics

Channel 0 RQ ROW_BUFFER_HIT:      33865
  ROW_BUFFER_MISS:    1271066
  AVG DBUS CONGESTED CYCLE: 6.084
Channel 0 WQ ROW_BUFFER_HIT:      50271
  ROW_BUFFER_MISS:     395109
  FULL:         46
Channel 0 REFRESHES ISSUED:       3788

[ROI Statistics]
[System Configuration]
num_cpus 1
cpu_freq 4000
fetch_width 6
decode_width 6
dispatch_width 6
execute_width 6
lq_width 2
sq_width 2
retire_width 6
scheduler_size 128
branch_mispredict_penalty 15
rob_size 352
lq_size 128
sq_size 72
ifetch_buffer_size 64
decode_buffer_size 32
dispatch_buffer_size 32
register_file_size 288
decode_latency 1
dispatch_latency 1
schedule_latency 1
execute_latency 1
page_size 4096
block_size 64
core_0_itlb_set 16
core_0_itlb_way 4
core_0_itlb_rq_size 16
core_0_itlb_wq_size 16
core_0_itlb_pq_size 0
core_0_itlb_mshr_size 8
core_0_itlb_hit_latency 1
core_0_itlb_fill_latency 1
core_0_itlb_max_tag_check 2
core_0_itlb_max_fill 2
core_0_dtlb_set 16
core_0_dtlb_way 4
core_0_dtlb_rq_size 16
core_0_dtlb_wq_size 16
core_0_dtlb_pq_size 0
core_0_dtlb_mshr_size 8
core_0_dtlb_hit_latency 1
core_0_dtlb_fill_latency 1
core_0_dtlb_max_tag_check 2
core_0_dtlb_max_fill 2
core_0_stlb_set 128
core_0_stlb_way 12
core_0_stlb_rq_size 32
core_0_stlb_wq_size 32
core_0_stlb_pq_size 0
core_0_stlb_mshr_size 16
core_0_stlb_hit_latency 4
core_0_stlb_fill_latency 4
core_0_stlb_max_tag_check 1
core_0_stlb_max_fill 1
core_0_l1i_set 64
core_0_l1i_way 8
core_0_l1i_rq_size 64
core_0_l1i_wq_size 64
core_0_l1i_pq_size 32
core_0_l1i_mshr_size 8
core_0_l1i_hit_latency 2
core_0_l1i_fill_latency 2
core_0_l1i_max_tag_check 2
core_0_l1i_max_fill 2
core_0_l1d_set 64
core_0_l1d_way 12
core_0_l1d_rq_size 64
core_0_l1d_wq_size 64
core_0_l1d_pq_size 8
core_0_l1d_mshr_size 16
core_0_l1d_hit_latency 2
core_0_l1d_fill_latency 3
core_0_l1d_max_tag_check 2
core_0_l1d_max_fill 2
core_0_l2c_set 1024
core_0_l2c_way 8
core_0_l2c_rq_size 32
core_0_l2c_wq_size 32
core_0_l2c_pq_size 16
core_0_l2c_mshr_size 32
core_0_l2c_hit_latency 5
core_0_l2c_fill_latency 5
core_0_l2c_max_tag_check 1
core_0_l2c_max_fill 1
llc_set 2048
llc_way 16
llc_rq_size 32
llc_wq_size 32
llc_pq_size 32
llc_mshr_size 64
llc_hit_latency 10
llc_fill_latency 10
llc_max_tag_check 1
llc_max_fill 1
dram_channels 1
dram_ranks 1
dram_bankgroups 8
dram_banks 4
dram_rows 65536
dram_columns 1024
dram_channel_width 8
dram_rq_size 64
dram_wq_size 64
dram_size 17179869184
core_0_itlb_prefetcher no
core_0_dtlb_prefetcher no
core_0_stlb_prefetcher no
core_0_l1i_prefetcher next_line
core_0_l1d_prefetcher berti
core_0_l2c_prefetcher ip_stride
llc_prefetcher no
llc_replacement drrip

Core_0_instructions 50000002
Core_0_cycles 45448355
Core_0_IPC 1.10015
Core_0_branch_prediction_accuracy 99.8494
Core_0_branch_MPKI 0.11866
Core_0_average_ROB_occupancy_at_mispredict 347.057

Core_0_ITLB_total_access 7246266
Core_0_ITLB_total_hit 7246260
Core_0_ITLB_total_miss 6
Core_0_ITLB_total_MPKI 0.00012
Core_0_ITLB_total_miss_rate 8.28013e-07
Core_0_ITLB_demand_access 7246266
Core_0_ITLB_demand_hit 7246260
Core_0_ITLB_demand_miss 6
Core_0_ITLB_demand_MPKI 0.00012
Core_0_ITLB_demand_miss_rate 8.28013e-07
Core_0_ITLB_load_access 7246266
Core_0_ITLB_load_hit 7246260
Core_0_ITLB_load_miss 6
Core_0_ITLB_load_MPKI 0.00012
Core_0_ITLB_load_miss_rate 8.28013e-07
Core_0_ITLB_rfo_access 0
Core_0_ITLB_rfo_hit 0
Core_0_ITLB_rfo_miss 0
Core_0_ITLB_rfo_MPKI 0
Core_0_ITLB_rfo_miss_rate 0
Core_0_ITLB_prefetch_access 0
Core_0_ITLB_prefetch_hit 0
Core_0_ITLB_prefetch_miss 0
Core_0_ITLB_prefetch_MPKI 0
Core_0_ITLB_prefetch_miss_rate 0
Core_0_ITLB_writeback_access 0
Core_0_ITLB_writeback_hit 0
Core_0_ITLB_writeback_miss 0
Core_0_ITLB_writeback_MPKI 0
Core_0_ITLB_writeback_miss_rate 0
Core_0_ITLB_prefetch_requested 0
Core_0_ITLB_prefetch_issued 0
Core_0_ITLB_prefetch_useful 0
Core_0_ITLB_prefetch_useless 0
Core_0_ITLB_prefetch_late 0
Core_0_ITLB_prefetch_accuracy 0
Core_0_ITLB_prefetch_coverage 0

Core_0_DTLB_total_access 14465446
Core_0_DTLB_total_hit 14298366
Core_0_DTLB_total_miss 167080
Core_0_DTLB_total_MPKI 3.3416
Core_0_DTLB_total_miss_rate 0.0115503
Core_0_DTLB_demand_access 14465446
Core_0_DTLB_demand_hit 14298366
Core_0_DTLB_demand_miss 167080
Core_0_DTLB_demand_MPKI 3.3416
Core_0_DTLB_demand_miss_rate 0.0115503
Core_0_DTLB_load_access 14465446
Core_0_DTLB_load_hit 14298366
Core_0_DTLB_load_miss 167080
Core_0_DTLB_load_MPKI 3.3416
Core_0_DTLB_load_miss_rate 0.0115503
Core_0_DTLB_rfo_access 0
Core_0_DTLB_rfo_hit 0
Core_0_DTLB_rfo_miss 0
Core_0_DTLB_rfo_MPKI 0
Core_0_DTLB_rfo_miss_rate 0
Core_0_DTLB_prefetch_access 0
Core_0_DTLB_prefetch_hit 0
Core_0_DTLB_prefetch_miss 0
Core_0_DTLB_prefetch_MPKI 0
Core_0_DTLB_prefetch_miss_rate 0
Core_0_DTLB_writeback_access 0
Core_0_DTLB_writeback_hit 0
Core_0_DTLB_writeback_miss 0
Core_0_DTLB_writeback_MPKI 0
Core_0_DTLB_writeback_miss_rate 0
Core_0_DTLB_prefetch_requested 0
Core_0_DTLB_prefetch_issued 0
Core_0_DTLB_prefetch_useful 0
Core_0_DTLB_prefetch_useless 0
Core_0_DTLB_prefetch_late 0
Core_0_DTLB_prefetch_accuracy 0
Core_0_DTLB_prefetch_coverage 0

Core_0_STLB_total_access 29760
Core_0_STLB_total_hit 214
Core_0_STLB_total_miss 29546
Core_0_STLB_total_MPKI 0.59092
Core_0_STLB_total_miss_rate 0.992809
Core_0_STLB_demand_access 29760
Core_0_STLB_demand_hit 214
Core_0_STLB_demand_miss 29546
Core_0_STLB_demand_MPKI 0.59092
Core_0_STLB_demand_miss_rate 0.992809
Core_0_STLB_load_access 29760
Core_0_STLB_load_hit 214
Core_0_STLB_load_miss 29546
Core_0_STLB_load_MPKI 0.59092
Core_0_STLB_load_miss_rate 0.992809
Core_0_STLB_rfo_access 0
Core_0_STLB_rfo_hit 0
Core_0_STLB_rfo_miss 0
Core_0_STLB_rfo_MPKI 0
Core_0_STLB_rfo_miss_rate 0
Core_0_STLB_prefetch_access 0
Core_0_STLB_prefetch_hit 0
Core_0_STLB_prefetch_miss 0
Core_0_STLB_prefetch_MPKI 0
Core_0_STLB_prefetch_miss_rate 0
Core_0_STLB_writeback_access 0
Core_0_STLB_writeback_hit 0
Core_0_STLB_writeback_miss 0
Core_0_STLB_writeback_MPKI 0
Core_0_STLB_writeback_miss_rate 0
Core_0_STLB_prefetch_requested 0
Core_0_STLB_prefetch_issued 0
Core_0_STLB_prefetch_useful 0
Core_0_STLB_prefetch_useless 0
Core_0_STLB_prefetch_late 0
Core_0_STLB_prefetch_accuracy 0
Core_0_STLB_prefetch_coverage 0

Core_0_L1I_total_access 8839704
Core_0_L1I_total_hit 8839603
Core_0_L1I_total_miss 101
Core_0_L1I_total_MPKI 0.00202
Core_0_L1I_total_miss_rate 1.14257e-05
Core_0_L1I_demand_access 8839704
Core_0_L1I_demand_hit 8839603
Core_0_L1I_demand_miss 101
Core_0_L1I_demand_MPKI 0.00202
Core_0_L1I_demand_miss_rate 1.14257e-05
Core_0_L1I_load_access 8839704
Core_0_L1I_load_hit 8839603
Core_0_L1I_load_miss 101
Core_0_L1I_load_MPKI 0.00202
Core_0_L1I_load_miss_rate 1.14257e-05
Core_0_L1I_rfo_access 0
Core_0_L1I_rfo_hit 0
Core_0_L1I_rfo_miss 0
Core_0_L1I_rfo_MPKI 0
Core_0_L1I_rfo_miss_rate 0
Core_0_L1I_prefetch_access 0
Core_0_L1I_prefetch_hit 0
Core_0_L1I_prefetch_miss 0
Core_0_L1I_prefetch_MPKI 0
Core_0_L1I_prefetch_miss_rate 0
Core_0_L1I_writeback_access 0
Core_0_L1I_writeback_hit 0
Core_0_L1I_writeback_miss 0
Core_0_L1I_writeback_MPKI 0
Core_0_L1I_writeback_miss_rate 0
Core_0_L1I_prefetch_requested 0
Core_0_L1I_prefetch_issued 0
Core_0_L1I_prefetch_useful 0
Core_0_L1I_prefetch_useless 0
Core_0_L1I_prefetch_late 0
Core_0_L1I_prefetch_accuracy 0
Core_0_L1I_prefetch_coverage 0

Core_0_L1D_total_access 15522469
Core_0_L1D_total_hit 11188618
Core_0_L1D_total_miss 4333851
Core_0_L1D_total_MPKI 86.677
Core_0_L1D_total_miss_rate 0.279199
Core_0_L1D_demand_access 11075787
Core_0_L1D_demand_hit 10153690
Core_0_L1D_demand_miss 922097
Core_0_L1D_demand_MPKI 18.4419
Core_0_L1D_demand_miss_rate 0.0832534
Core_0_L1D_load_access 11075787
Core_0_L1D_load_hit 10153690
Core_0_L1D_load_miss 922097
Core_0_L1D_load_MPKI 18.4419
Core_0_L1D_load_miss_rate 0.0832534
Core_0_L1D_rfo_access 0
Core_0_L1D_rfo_hit 0
Core_0_L1D_rfo_miss 0
Core_0_L1D_rfo_MPKI 0
Core_0_L1D_rfo_miss_rate 0
Core_0_L1D_prefetch_access 928993
Core_0_L1D_prefetch_hit 56113
Core_0_L1D_prefetch_miss 872880
Core_0_L1D_prefetch_MPKI 17.4576
Core_0_L1D_prefetch_miss_rate 0.939598
Core_0_L1D_writeback_access 3517689
Core_0_L1D_writeback_hit 978815
Core_0_L1D_writeback_miss 2538874
Core_0_L1D_writeback_MPKI 50.7775
Core_0_L1D_writeback_miss_rate 0.721745
Core_0_L1D_prefetch_requested 937154
Core_0_L1D_prefetch_issued 928987
Core_0_L1D_prefetch_useful 819342
Core_0_L1D_prefetch_useless 31138
Core_0_L1D_prefetch_late 128977
Core_0_L1D_prefetch_accuracy 0.881974
Core_0_L1D_prefetch_coverage 0.470497

Core_0_L2C_total_access 2186936
Core_0_L2C_total_hit 555492
Core_0_L2C_total_miss 1631444
Core_0_L2C_total_MPKI 32.6289
Core_0_L2C_total_miss_rate 0.745995
Core_0_L2C_demand_access 452234
Core_0_L2C_demand_hit 20838
Core_0_L2C_demand_miss 431396
Core_0_L2C_demand_MPKI 8.62792
Core_0_L2C_demand_miss_rate 0.953922
Core_0_L2C_load_access 118515
Core_0_L2C_load_hit 20838
Core_0_L2C_load_miss 97677
Core_0_L2C_load_MPKI 1.95354
Core_0_L2C_load_miss_rate 0.824174
Core_0_L2C_rfo_access 333719
Core_0_L2C_rfo_hit 0
Core_0_L2C_rfo_miss 333719
Core_0_L2C_rfo_MPKI 6.67438
Core_0_L2C_rfo_miss_rate 1
Core_0_L2C_prefetch_access 1291329
Core_0_L2C_prefetch_hit 91323
Core_0_L2C_prefetch_miss 1200006
Core_0_L2C_prefetch_MPKI 24.0001
Core_0_L2C_prefetch_miss_rate 0.92928
Core_0_L2C_writeback_access 443373
Core_0_L2C_writeback_hit 443331
Core_0_L2C_writeback_miss 42
Core_0_L2C_writeback_MPKI 0.00084
Core_0_L2C_writeback_miss_rate 9.47284e-05
Core_0_L2C_prefetch_requested 440819
Core_0_L2C_prefetch_issued 440819
Core_0_L2C_prefetch_useful 73312
Core_0_L2C_prefetch_useless 90062
Core_0_L2C_prefetch_late 9864
Core_0_L2C_prefetch_accuracy 0.166309
Core_0_L2C_prefetch_coverage 0.145256

Core_0_LLC_total_access 1808517
Core_0_LLC_total_hit 89779
Core_0_LLC_total_miss 1718738
Core_0_LLC_total_MPKI 34.3748
Core_0_LLC_total_miss_rate 0.950358
Core_0_LLC_demand_access 421532
Core_0_LLC_demand_hit 2834
Core_0_LLC_demand_miss 418698
Core_0_LLC_demand_MPKI 8.37396
Core_0_LLC_demand_miss_rate 0.993277
Core_0_LLC_load_access 87813
Core_0_LLC_load_hit 2679
Core_0_LLC_load_miss 85134
Core_0_LLC_load_MPKI 1.70268
Core_0_LLC_load_miss_rate 0.969492
Core_0_LLC_rfo_access 333719
Core_0_LLC_rfo_hit 155
Core_0_LLC_rfo_miss 333564
Core_0_LLC_rfo_MPKI 6.67128
Core_0_LLC_rfo_miss_rate 0.999536
Core_0_LLC_prefetch_access 942654
Core_0_LLC_prefetch_hit 17768
Core_0_LLC_prefetch_miss 924886
Core_0_LLC_prefetch_MPKI 18.4977
Core_0_LLC_prefetch_miss_rate 0.981151
Core_0_LLC_writeback_access 444331
Core_0_LLC_writeback_hit 69177
Core_0_LLC_writeback_miss 375154
Core_0_LLC_writeback_MPKI 7.50308
Core_0_LLC_writeback_miss_rate 0.844312
Core_0_LLC_prefetch_requested 0
Core_0_LLC_prefetch_issued 0
Core_0_LLC_prefetch_useful 0
Core_0_LLC_prefetch_useless 0
Core_0_LLC_prefetch_late 0
Core_0_LLC_prefetch_accuracy 0
Core_0_LLC_prefetch_coverage 0

[DRAM Statistics]
Channel_0_RQ_row_buffer_hit 33865
Channel_0_RQ_row_buffer_miss 1271066
Channel_0_WQ_row_buffer_hit 50271
Channel_0_WQ_row_buffer_miss 395109
Channel_0_WQ_full 46
Channel_0_dbus_congested 4754899
DRAM_total_RQ_row_buffer_hit 33865
DRAM_total_RQ_row_buffer_miss 1271066
DRAM_total_WQ_row_buffer_hit 50271
DRAM_total_WQ_row_buffer_miss 395109
DRAM_total_WQ_full 46
DRAM_total_dbus_congested 4754899
DRAM_avg_congested_cycle 6.08431

======STLB miss causes ========
Core_0_STLB_miss_cause_breakdown
Core_0_STLB_cause_Demand_Data_miss 20790
Core_0_STLB_cause_Demand_Data_miss_rate 0.698589
Core_0_STLB_cause_Demand_Instruction_miss 1
Core_0_STLB_cause_Demand_Instruction_miss_rate 3.36022e-05
Core_0_STLB_cause_L1D_Prefetch_miss 8755
Core_0_STLB_cause_L1D_Prefetch_miss_rate 0.294187
Core_0_STLB_cause_L1I_Prefetch_miss 0
Core_0_STLB_cause_L1I_Prefetch_miss_rate 0
Core_0_STLB_cause_Other_miss 0
Core_0_STLB_cause_Other_miss_rate 0
Core_0_STLB_Demand_miss 20791
Core_0_STLB_Demand_miss_rate 0.698622
Core_0_STLB_L1D_Prefetch_miss 8755
Core_0_STLB_L1D_Prefetch_miss_rate 0.294187
Core_0_STLB_Other_miss 0
Core_0_STLB_Other_miss_rate 0
