[VMEM] WARNING: physical memory size is smaller than virtual memory size.

*** ChampSim Multicore Out-of-Order Simulator ***
Warmup Instructions: 20000000
Simulation Instructions: 50000000
Number of CPUs: 1
Page size: 4096
STLB ideal mode: off
Core 0: /data0/tzh/champsim_traces/SPEC17/657.xz_s-4994B.champsimtrace.xz
 L1D Berti prefetcher
Off-chip DRAM Size: 16 GiB Channels: 1 Width: 64-bit Data Rate: 3205 MT/s
Warmup halting CPU 0 at instruction 20000004 cycle 4113875 for remainder of phase
Warmup finished CPU 0 instructions: 20000004 cycles: 4113875 cumulative IPC: 4.862 (Simulation time: 00 hr 00 min 34 sec)
Warmup complete CPU 0 instructions: 20000004 cycles: 4113875 cumulative IPC: 4.862 (Simulation time: 00 hr 00 min 34 sec)
Simulation finished CPU 0 instructions: 50000000 cycles: 34928790 cumulative IPC: 1.431 (Simulation time: 00 hr 03 min 26 sec)
Simulation complete CPU 0 instructions: 50000000 cycles: 34928790 cumulative IPC: 1.431 (Simulation time: 00 hr 03 min 26 sec)

ChampSim completed all CPUs

=== Simulation ===
CPU 0 runs /data0/tzh/champsim_traces/SPEC17/657.xz_s-4994B.champsimtrace.xz

Region of Interest Statistics

CPU 0 cumulative IPC: 1.431 instructions: 50000000 cycles: 34928790
CPU 0 Branch Prediction Accuracy: 87.4% MPKI: 13.2 Average ROB Occupancy at Mispredict: 31.92
Branch type MPKI
BRANCH_DIRECT_JUMP: 6e-05
BRANCH_INDIRECT: 0.00092
BRANCH_CONDITIONAL: 13.2
BRANCH_DIRECT_CALL: 0
BRANCH_INDIRECT_CALL: 0
BRANCH_RETURN: 0

cpu0->cpu0_STLB TOTAL        ACCESS:        501 HIT:        353 MISS:        148 MSHR_MERGE:          0
cpu0->cpu0_STLB LOAD         ACCESS:        501 HIT:        353 MISS:        148 MSHR_MERGE:          0
cpu0->cpu0_STLB RFO          ACCESS:          0 HIT:          0 MISS:          0 MSHR_MERGE:          0
cpu0->cpu0_STLB PREFETCH     ACCESS:          0 HIT:          0 MISS:          0 MSHR_MERGE:          0
cpu0->cpu0_STLB WRITE        ACCESS:          0 HIT:          0 MISS:          0 MSHR_MERGE:          0
cpu0->cpu0_STLB TRANSLATION  ACCESS:          0 HIT:          0 MISS:          0 MSHR_MERGE:          0
cpu0->cpu0_STLB PREFETCH REQUESTED:          0 ISSUED:          0 USEFUL:          0 USELESS:          0 LATE:          0
cpu0->cpu0_STLB AVERAGE MISS LATENCY: 242.6 cycles
cpu0->cpu0_L2C TOTAL        ACCESS:      46137 HIT:      32003 MISS:      14134 MSHR_MERGE:       4571
cpu0->cpu0_L2C LOAD         ACCESS:       4738 HIT:       4488 MISS:        250 MSHR_MERGE:         19
cpu0->cpu0_L2C RFO          ACCESS:       8044 HIT:       3654 MISS:       4390 MSHR_MERGE:          4
cpu0->cpu0_L2C PREFETCH     ACCESS:      19884 HIT:      10429 MISS:       9455 MSHR_MERGE:       4548
cpu0->cpu0_L2C WRITE        ACCESS:      13380 HIT:      13363 MISS:         17 MSHR_MERGE:          0
cpu0->cpu0_L2C TRANSLATION  ACCESS:         91 HIT:         69 MISS:         22 MSHR_MERGE:          0
cpu0->cpu0_L2C PREFETCH REQUESTED:       9461 ISSUED:       9461 USEFUL:       2134 USELESS:        268 LATE:         23
cpu0->cpu0_L2C AVERAGE MISS LATENCY: 160.1 cycles
cpu0->cpu0_L1I TOTAL        ACCESS:    1373441 HIT:    1373441 MISS:          0 MSHR_MERGE:          0
cpu0->cpu0_L1I LOAD         ACCESS:    1373441 HIT:    1373441 MISS:          0 MSHR_MERGE:          0
cpu0->cpu0_L1I RFO          ACCESS:          0 HIT:          0 MISS:          0 MSHR_MERGE:          0
cpu0->cpu0_L1I PREFETCH     ACCESS:          0 HIT:          0 MISS:          0 MSHR_MERGE:          0
cpu0->cpu0_L1I WRITE        ACCESS:          0 HIT:          0 MISS:          0 MSHR_MERGE:          0
cpu0->cpu0_L1I TRANSLATION  ACCESS:          0 HIT:          0 MISS:          0 MSHR_MERGE:          0
cpu0->cpu0_L1I PREFETCH REQUESTED:          0 ISSUED:          0 USEFUL:          0 USELESS:          0 LATE:          0
cpu0->cpu0_L1I AVERAGE MISS LATENCY: - cycles
cpu0->cpu0_L1D TOTAL        ACCESS:    7754791 HIT:    7693602 MISS:      61189 MSHR_MERGE:      37893
cpu0->cpu0_L1D LOAD         ACCESS:    4592881 HIT:    4587092 MISS:       5789 MSHR_MERGE:       1051
cpu0->cpu0_L1D RFO          ACCESS:          0 HIT:          0 MISS:          0 MSHR_MERGE:          0
cpu0->cpu0_L1D PREFETCH     ACCESS:      29940 HIT:      19469 MISS:      10471 MSHR_MERGE:         48
cpu0->cpu0_L1D WRITE        ACCESS:    3131673 HIT:    3086835 MISS:      44838 MSHR_MERGE:      36794
cpu0->cpu0_L1D TRANSLATION  ACCESS:        297 HIT:        206 MISS:         91 MSHR_MERGE:          0
cpu0->cpu0_L1D PREFETCH REQUESTED:      29959 ISSUED:      29940 USEFUL:       8499 USELESS:       1926 LATE:        274
cpu0->cpu0_L1D AVERAGE MISS LATENCY: 66.58 cycles
cpu0->cpu0_ITLB TOTAL        ACCESS:    1222258 HIT:    1222258 MISS:          0 MSHR_MERGE:          0
cpu0->cpu0_ITLB LOAD         ACCESS:    1222258 HIT:    1222258 MISS:          0 MSHR_MERGE:          0
cpu0->cpu0_ITLB RFO          ACCESS:          0 HIT:          0 MISS:          0 MSHR_MERGE:          0
cpu0->cpu0_ITLB PREFETCH     ACCESS:          0 HIT:          0 MISS:          0 MSHR_MERGE:          0
cpu0->cpu0_ITLB WRITE        ACCESS:          0 HIT:          0 MISS:          0 MSHR_MERGE:          0
cpu0->cpu0_ITLB TRANSLATION  ACCESS:          0 HIT:          0 MISS:          0 MSHR_MERGE:          0
cpu0->cpu0_ITLB PREFETCH REQUESTED:          0 ISSUED:          0 USEFUL:          0 USELESS:          0 LATE:          0
cpu0->cpu0_ITLB AVERAGE MISS LATENCY: - cycles
cpu0->cpu0_DTLB TOTAL        ACCESS:    7153688 HIT:    7152448 MISS:       1240 MSHR_MERGE:        739
cpu0->cpu0_DTLB LOAD         ACCESS:    7153688 HIT:    7152448 MISS:       1240 MSHR_MERGE:        739
cpu0->cpu0_DTLB RFO          ACCESS:          0 HIT:          0 MISS:          0 MSHR_MERGE:          0
cpu0->cpu0_DTLB PREFETCH     ACCESS:          0 HIT:          0 MISS:          0 MSHR_MERGE:          0
cpu0->cpu0_DTLB WRITE        ACCESS:          0 HIT:          0 MISS:          0 MSHR_MERGE:          0
cpu0->cpu0_DTLB TRANSLATION  ACCESS:          0 HIT:          0 MISS:          0 MSHR_MERGE:          0
cpu0->cpu0_DTLB PREFETCH REQUESTED:          0 ISSUED:          0 USEFUL:          0 USELESS:          0 LATE:          0
cpu0->cpu0_DTLB AVERAGE MISS LATENCY: 76.96 cycles
cpu0->LLC TOTAL        ACCESS:      13379 HIT:       4039 MISS:       9340 MSHR_MERGE:          0
cpu0->LLC LOAD         ACCESS:        231 HIT:         87 MISS:        144 MSHR_MERGE:          0
cpu0->LLC RFO          ACCESS:       4386 HIT:          5 MISS:       4381 MSHR_MERGE:          0
cpu0->LLC PREFETCH     ACCESS:       4907 HIT:        111 MISS:       4796 MSHR_MERGE:          0
cpu0->LLC WRITE        ACCESS:       3833 HIT:       3833 MISS:          0 MSHR_MERGE:          0
cpu0->LLC TRANSLATION  ACCESS:         22 HIT:          3 MISS:         19 MSHR_MERGE:          0
cpu0->LLC PREFETCH REQUESTED:          0 ISSUED:          0 USEFUL:          0 USELESS:          0 LATE:          0
cpu0->LLC AVERAGE MISS LATENCY: 148.3 cycles

DRAM Statistics

Channel 0 RQ ROW_BUFFER_HIT:       2454
  ROW_BUFFER_MISS:       6886
  AVG DBUS CONGESTED CYCLE: 2.78
Channel 0 WQ ROW_BUFFER_HIT:          0
  ROW_BUFFER_MISS:          0
  FULL:          0
Channel 0 REFRESHES ISSUED:       2911

[ROI Statistics]
[System Configuration]
num_cpus 1
cpu_freq 4000
fetch_width 6
decode_width 6
dispatch_width 6
execute_width 6
lq_width 2
sq_width 2
retire_width 6
scheduler_size 128
branch_mispredict_penalty 15
rob_size 352
lq_size 128
sq_size 72
ifetch_buffer_size 64
decode_buffer_size 32
dispatch_buffer_size 32
register_file_size 288
decode_latency 1
dispatch_latency 1
schedule_latency 1
execute_latency 1
page_size 4096
block_size 64
core_0_itlb_set 16
core_0_itlb_way 4
core_0_itlb_rq_size 16
core_0_itlb_wq_size 16
core_0_itlb_pq_size 0
core_0_itlb_mshr_size 8
core_0_itlb_hit_latency 1
core_0_itlb_fill_latency 1
core_0_itlb_max_tag_check 2
core_0_itlb_max_fill 2
core_0_dtlb_set 16
core_0_dtlb_way 4
core_0_dtlb_rq_size 16
core_0_dtlb_wq_size 16
core_0_dtlb_pq_size 0
core_0_dtlb_mshr_size 8
core_0_dtlb_hit_latency 1
core_0_dtlb_fill_latency 1
core_0_dtlb_max_tag_check 2
core_0_dtlb_max_fill 2
core_0_stlb_set 128
core_0_stlb_way 12
core_0_stlb_rq_size 32
core_0_stlb_wq_size 32
core_0_stlb_pq_size 0
core_0_stlb_mshr_size 16
core_0_stlb_hit_latency 4
core_0_stlb_fill_latency 4
core_0_stlb_max_tag_check 1
core_0_stlb_max_fill 1
core_0_l1i_set 64
core_0_l1i_way 8
core_0_l1i_rq_size 64
core_0_l1i_wq_size 64
core_0_l1i_pq_size 32
core_0_l1i_mshr_size 8
core_0_l1i_hit_latency 2
core_0_l1i_fill_latency 2
core_0_l1i_max_tag_check 2
core_0_l1i_max_fill 2
core_0_l1d_set 64
core_0_l1d_way 12
core_0_l1d_rq_size 64
core_0_l1d_wq_size 64
core_0_l1d_pq_size 8
core_0_l1d_mshr_size 16
core_0_l1d_hit_latency 2
core_0_l1d_fill_latency 3
core_0_l1d_max_tag_check 2
core_0_l1d_max_fill 2
core_0_l2c_set 1024
core_0_l2c_way 8
core_0_l2c_rq_size 32
core_0_l2c_wq_size 32
core_0_l2c_pq_size 16
core_0_l2c_mshr_size 32
core_0_l2c_hit_latency 5
core_0_l2c_fill_latency 5
core_0_l2c_max_tag_check 1
core_0_l2c_max_fill 1
llc_set 2048
llc_way 16
llc_rq_size 32
llc_wq_size 32
llc_pq_size 32
llc_mshr_size 64
llc_hit_latency 10
llc_fill_latency 10
llc_max_tag_check 1
llc_max_fill 1
dram_channels 1
dram_ranks 1
dram_bankgroups 8
dram_banks 4
dram_rows 65536
dram_columns 1024
dram_channel_width 8
dram_rq_size 64
dram_wq_size 64
dram_size 17179869184
core_0_itlb_prefetcher no
core_0_dtlb_prefetcher no
core_0_stlb_prefetcher no
core_0_l1i_prefetcher next_line
core_0_l1d_prefetcher berti
core_0_l2c_prefetcher ip_stride
llc_prefetcher no
llc_replacement drrip

Core_0_instructions 50000000
Core_0_cycles 34928790
Core_0_IPC 1.43148
Core_0_branch_prediction_accuracy 87.4003
Core_0_branch_MPKI 13.2008
Core_0_average_ROB_occupancy_at_mispredict 31.9209

Core_0_ITLB_total_access 1222258
Core_0_ITLB_total_hit 1222258
Core_0_ITLB_total_miss 0
Core_0_ITLB_total_MPKI 0
Core_0_ITLB_total_miss_rate 0
Core_0_ITLB_demand_access 1222258
Core_0_ITLB_demand_hit 1222258
Core_0_ITLB_demand_miss 0
Core_0_ITLB_demand_MPKI 0
Core_0_ITLB_demand_miss_rate 0
Core_0_ITLB_load_access 1222258
Core_0_ITLB_load_hit 1222258
Core_0_ITLB_load_miss 0
Core_0_ITLB_load_MPKI 0
Core_0_ITLB_load_miss_rate 0
Core_0_ITLB_rfo_access 0
Core_0_ITLB_rfo_hit 0
Core_0_ITLB_rfo_miss 0
Core_0_ITLB_rfo_MPKI 0
Core_0_ITLB_rfo_miss_rate 0
Core_0_ITLB_prefetch_access 0
Core_0_ITLB_prefetch_hit 0
Core_0_ITLB_prefetch_miss 0
Core_0_ITLB_prefetch_MPKI 0
Core_0_ITLB_prefetch_miss_rate 0
Core_0_ITLB_writeback_access 0
Core_0_ITLB_writeback_hit 0
Core_0_ITLB_writeback_miss 0
Core_0_ITLB_writeback_MPKI 0
Core_0_ITLB_writeback_miss_rate 0
Core_0_ITLB_prefetch_requested 0
Core_0_ITLB_prefetch_issued 0
Core_0_ITLB_prefetch_useful 0
Core_0_ITLB_prefetch_useless 0
Core_0_ITLB_prefetch_late 0
Core_0_ITLB_prefetch_accuracy 0
Core_0_ITLB_prefetch_coverage 0

Core_0_DTLB_total_access 7153688
Core_0_DTLB_total_hit 7152448
Core_0_DTLB_total_miss 1240
Core_0_DTLB_total_MPKI 0.0248
Core_0_DTLB_total_miss_rate 0.000173337
Core_0_DTLB_demand_access 7153688
Core_0_DTLB_demand_hit 7152448
Core_0_DTLB_demand_miss 1240
Core_0_DTLB_demand_MPKI 0.0248
Core_0_DTLB_demand_miss_rate 0.000173337
Core_0_DTLB_load_access 7153688
Core_0_DTLB_load_hit 7152448
Core_0_DTLB_load_miss 1240
Core_0_DTLB_load_MPKI 0.0248
Core_0_DTLB_load_miss_rate 0.000173337
Core_0_DTLB_rfo_access 0
Core_0_DTLB_rfo_hit 0
Core_0_DTLB_rfo_miss 0
Core_0_DTLB_rfo_MPKI 0
Core_0_DTLB_rfo_miss_rate 0
Core_0_DTLB_prefetch_access 0
Core_0_DTLB_prefetch_hit 0
Core_0_DTLB_prefetch_miss 0
Core_0_DTLB_prefetch_MPKI 0
Core_0_DTLB_prefetch_miss_rate 0
Core_0_DTLB_writeback_access 0
Core_0_DTLB_writeback_hit 0
Core_0_DTLB_writeback_miss 0
Core_0_DTLB_writeback_MPKI 0
Core_0_DTLB_writeback_miss_rate 0
Core_0_DTLB_prefetch_requested 0
Core_0_DTLB_prefetch_issued 0
Core_0_DTLB_prefetch_useful 0
Core_0_DTLB_prefetch_useless 0
Core_0_DTLB_prefetch_late 0
Core_0_DTLB_prefetch_accuracy 0
Core_0_DTLB_prefetch_coverage 0

Core_0_STLB_total_access 501
Core_0_STLB_total_hit 353
Core_0_STLB_total_miss 148
Core_0_STLB_total_MPKI 0.00296
Core_0_STLB_total_miss_rate 0.295409
Core_0_STLB_demand_access 501
Core_0_STLB_demand_hit 353
Core_0_STLB_demand_miss 148
Core_0_STLB_demand_MPKI 0.00296
Core_0_STLB_demand_miss_rate 0.295409
Core_0_STLB_load_access 501
Core_0_STLB_load_hit 353
Core_0_STLB_load_miss 148
Core_0_STLB_load_MPKI 0.00296
Core_0_STLB_load_miss_rate 0.295409
Core_0_STLB_rfo_access 0
Core_0_STLB_rfo_hit 0
Core_0_STLB_rfo_miss 0
Core_0_STLB_rfo_MPKI 0
Core_0_STLB_rfo_miss_rate 0
Core_0_STLB_prefetch_access 0
Core_0_STLB_prefetch_hit 0
Core_0_STLB_prefetch_miss 0
Core_0_STLB_prefetch_MPKI 0
Core_0_STLB_prefetch_miss_rate 0
Core_0_STLB_writeback_access 0
Core_0_STLB_writeback_hit 0
Core_0_STLB_writeback_miss 0
Core_0_STLB_writeback_MPKI 0
Core_0_STLB_writeback_miss_rate 0
Core_0_STLB_prefetch_requested 0
Core_0_STLB_prefetch_issued 0
Core_0_STLB_prefetch_useful 0
Core_0_STLB_prefetch_useless 0
Core_0_STLB_prefetch_late 0
Core_0_STLB_prefetch_accuracy 0
Core_0_STLB_prefetch_coverage 0

Core_0_L1I_total_access 1373441
Core_0_L1I_total_hit 1373441
Core_0_L1I_total_miss 0
Core_0_L1I_total_MPKI 0
Core_0_L1I_total_miss_rate 0
Core_0_L1I_demand_access 1373441
Core_0_L1I_demand_hit 1373441
Core_0_L1I_demand_miss 0
Core_0_L1I_demand_MPKI 0
Core_0_L1I_demand_miss_rate 0
Core_0_L1I_load_access 1373441
Core_0_L1I_load_hit 1373441
Core_0_L1I_load_miss 0
Core_0_L1I_load_MPKI 0
Core_0_L1I_load_miss_rate 0
Core_0_L1I_rfo_access 0
Core_0_L1I_rfo_hit 0
Core_0_L1I_rfo_miss 0
Core_0_L1I_rfo_MPKI 0
Core_0_L1I_rfo_miss_rate 0
Core_0_L1I_prefetch_access 0
Core_0_L1I_prefetch_hit 0
Core_0_L1I_prefetch_miss 0
Core_0_L1I_prefetch_MPKI 0
Core_0_L1I_prefetch_miss_rate 0
Core_0_L1I_writeback_access 0
Core_0_L1I_writeback_hit 0
Core_0_L1I_writeback_miss 0
Core_0_L1I_writeback_MPKI 0
Core_0_L1I_writeback_miss_rate 0
Core_0_L1I_prefetch_requested 0
Core_0_L1I_prefetch_issued 0
Core_0_L1I_prefetch_useful 0
Core_0_L1I_prefetch_useless 0
Core_0_L1I_prefetch_late 0
Core_0_L1I_prefetch_accuracy 0
Core_0_L1I_prefetch_coverage 0

Core_0_L1D_total_access 7754494
Core_0_L1D_total_hit 7693396
Core_0_L1D_total_miss 61098
Core_0_L1D_total_MPKI 1.22196
Core_0_L1D_total_miss_rate 0.00787904
Core_0_L1D_demand_access 4592881
Core_0_L1D_demand_hit 4587092
Core_0_L1D_demand_miss 5789
Core_0_L1D_demand_MPKI 0.11578
Core_0_L1D_demand_miss_rate 0.00126043
Core_0_L1D_load_access 4592881
Core_0_L1D_load_hit 4587092
Core_0_L1D_load_miss 5789
Core_0_L1D_load_MPKI 0.11578
Core_0_L1D_load_miss_rate 0.00126043
Core_0_L1D_rfo_access 0
Core_0_L1D_rfo_hit 0
Core_0_L1D_rfo_miss 0
Core_0_L1D_rfo_MPKI 0
Core_0_L1D_rfo_miss_rate 0
Core_0_L1D_prefetch_access 29940
Core_0_L1D_prefetch_hit 19469
Core_0_L1D_prefetch_miss 10471
Core_0_L1D_prefetch_MPKI 0.20942
Core_0_L1D_prefetch_miss_rate 0.349733
Core_0_L1D_writeback_access 3131673
Core_0_L1D_writeback_hit 3086835
Core_0_L1D_writeback_miss 44838
Core_0_L1D_writeback_MPKI 0.89676
Core_0_L1D_writeback_miss_rate 0.0143176
Core_0_L1D_prefetch_requested 29959
Core_0_L1D_prefetch_issued 29940
Core_0_L1D_prefetch_useful 8499
Core_0_L1D_prefetch_useless 1926
Core_0_L1D_prefetch_late 274
Core_0_L1D_prefetch_accuracy 0.283868
Core_0_L1D_prefetch_coverage 0.594835

Core_0_L2C_total_access 46046
Core_0_L2C_total_hit 31934
Core_0_L2C_total_miss 14112
Core_0_L2C_total_MPKI 0.28224
Core_0_L2C_total_miss_rate 0.306476
Core_0_L2C_demand_access 12782
Core_0_L2C_demand_hit 8142
Core_0_L2C_demand_miss 4640
Core_0_L2C_demand_MPKI 0.0928
Core_0_L2C_demand_miss_rate 0.36301
Core_0_L2C_load_access 4738
Core_0_L2C_load_hit 4488
Core_0_L2C_load_miss 250
Core_0_L2C_load_MPKI 0.005
Core_0_L2C_load_miss_rate 0.0527649
Core_0_L2C_rfo_access 8044
Core_0_L2C_rfo_hit 3654
Core_0_L2C_rfo_miss 4390
Core_0_L2C_rfo_MPKI 0.0878
Core_0_L2C_rfo_miss_rate 0.545748
Core_0_L2C_prefetch_access 19884
Core_0_L2C_prefetch_hit 10429
Core_0_L2C_prefetch_miss 9455
Core_0_L2C_prefetch_MPKI 0.1891
Core_0_L2C_prefetch_miss_rate 0.475508
Core_0_L2C_writeback_access 13380
Core_0_L2C_writeback_hit 13363
Core_0_L2C_writeback_miss 17
Core_0_L2C_writeback_MPKI 0.00034
Core_0_L2C_writeback_miss_rate 0.00127055
Core_0_L2C_prefetch_requested 9461
Core_0_L2C_prefetch_issued 9461
Core_0_L2C_prefetch_useful 2134
Core_0_L2C_prefetch_useless 268
Core_0_L2C_prefetch_late 23
Core_0_L2C_prefetch_accuracy 0.225558
Core_0_L2C_prefetch_coverage 0.315028

Core_0_LLC_total_access 13357
Core_0_LLC_total_hit 4036
Core_0_LLC_total_miss 9321
Core_0_LLC_total_MPKI 0.18642
Core_0_LLC_total_miss_rate 0.697836
Core_0_LLC_demand_access 4617
Core_0_LLC_demand_hit 92
Core_0_LLC_demand_miss 4525
Core_0_LLC_demand_MPKI 0.0905
Core_0_LLC_demand_miss_rate 0.980074
Core_0_LLC_load_access 231
Core_0_LLC_load_hit 87
Core_0_LLC_load_miss 144
Core_0_LLC_load_MPKI 0.00288
Core_0_LLC_load_miss_rate 0.623377
Core_0_LLC_rfo_access 4386
Core_0_LLC_rfo_hit 5
Core_0_LLC_rfo_miss 4381
Core_0_LLC_rfo_MPKI 0.08762
Core_0_LLC_rfo_miss_rate 0.99886
Core_0_LLC_prefetch_access 4907
Core_0_LLC_prefetch_hit 111
Core_0_LLC_prefetch_miss 4796
Core_0_LLC_prefetch_MPKI 0.09592
Core_0_LLC_prefetch_miss_rate 0.977379
Core_0_LLC_writeback_access 3833
Core_0_LLC_writeback_hit 3833
Core_0_LLC_writeback_miss 0
Core_0_LLC_writeback_MPKI 0
Core_0_LLC_writeback_miss_rate 0
Core_0_LLC_prefetch_requested 0
Core_0_LLC_prefetch_issued 0
Core_0_LLC_prefetch_useful 0
Core_0_LLC_prefetch_useless 0
Core_0_LLC_prefetch_late 0
Core_0_LLC_prefetch_accuracy 0
Core_0_LLC_prefetch_coverage 0

[DRAM Statistics]
Channel_0_RQ_row_buffer_hit 2454
Channel_0_RQ_row_buffer_miss 6886
Channel_0_WQ_row_buffer_hit 0
Channel_0_WQ_row_buffer_miss 0
Channel_0_WQ_full 0
Channel_0_dbus_congested 3289
DRAM_total_RQ_row_buffer_hit 2454
DRAM_total_RQ_row_buffer_miss 6886
DRAM_total_WQ_row_buffer_hit 0
DRAM_total_WQ_row_buffer_miss 0
DRAM_total_WQ_full 0
DRAM_total_dbus_congested 3289
DRAM_avg_congested_cycle 2.77987

======STLB miss causes ========
Core_0_STLB_miss_cause_breakdown
Core_0_STLB_cause_Demand_Data_miss 127
Core_0_STLB_cause_Demand_Data_miss_rate 0.253493
Core_0_STLB_cause_Demand_Instruction_miss 0
Core_0_STLB_cause_Demand_Instruction_miss_rate 0
Core_0_STLB_cause_L1D_Prefetch_miss 21
Core_0_STLB_cause_L1D_Prefetch_miss_rate 0.0419162
Core_0_STLB_cause_L1I_Prefetch_miss 0
Core_0_STLB_cause_L1I_Prefetch_miss_rate 0
Core_0_STLB_cause_Other_miss 0
Core_0_STLB_cause_Other_miss_rate 0
Core_0_STLB_Demand_miss 127
Core_0_STLB_Demand_miss_rate 0.253493
Core_0_STLB_L1D_Prefetch_miss 21
Core_0_STLB_L1D_Prefetch_miss_rate 0.0419162
Core_0_STLB_Other_miss 0
Core_0_STLB_Other_miss_rate 0
