[VMEM] WARNING: physical memory size is smaller than virtual memory size.

*** ChampSim Multicore Out-of-Order Simulator ***
Warmup Instructions: 20000000
Simulation Instructions: 50000000
Number of CPUs: 1
Page size: 4096
STLB ideal mode: off
Core 0: /data0/tzh/champsim_traces/GAP/gap.cc.web-10B.champsimtrace.xz
 L1D Berti prefetcher
Off-chip DRAM Size: 16 GiB Channels: 1 Width: 64-bit Data Rate: 3205 MT/s
Warmup halting CPU 0 at instruction 20000000 cycle 6711742 for remainder of phase
Warmup finished CPU 0 instructions: 20000000 cycles: 6711742 cumulative IPC: 2.98 (Simulation time: 00 hr 01 min 15 sec)
Warmup complete CPU 0 instructions: 20000000 cycles: 6711742 cumulative IPC: 2.98 (Simulation time: 00 hr 01 min 15 sec)
Simulation finished CPU 0 instructions: 50000001 cycles: 56905981 cumulative IPC: 0.8786 (Simulation time: 00 hr 08 min 50 sec)
Simulation complete CPU 0 instructions: 50000001 cycles: 56905981 cumulative IPC: 0.8786 (Simulation time: 00 hr 08 min 50 sec)

ChampSim completed all CPUs

=== Simulation ===
CPU 0 runs /data0/tzh/champsim_traces/GAP/gap.cc.web-10B.champsimtrace.xz

Region of Interest Statistics

CPU 0 cumulative IPC: 0.8786 instructions: 50000001 cycles: 56905981
CPU 0 Branch Prediction Accuracy: 98.5% MPKI: 2.418 Average ROB Occupancy at Mispredict: 95.51
Branch type MPKI
BRANCH_DIRECT_JUMP: 0
BRANCH_INDIRECT: 0
BRANCH_CONDITIONAL: 2.418
BRANCH_DIRECT_CALL: 0
BRANCH_INDIRECT_CALL: 0
BRANCH_RETURN: 0

cpu0->cpu0_STLB TOTAL        ACCESS:      53994 HIT:       4700 MISS:      49294 MSHR_MERGE:          0
cpu0->cpu0_STLB LOAD         ACCESS:      53994 HIT:       4700 MISS:      49294 MSHR_MERGE:          0
cpu0->cpu0_STLB RFO          ACCESS:          0 HIT:          0 MISS:          0 MSHR_MERGE:          0
cpu0->cpu0_STLB PREFETCH     ACCESS:          0 HIT:          0 MISS:          0 MSHR_MERGE:          0
cpu0->cpu0_STLB WRITE        ACCESS:          0 HIT:          0 MISS:          0 MSHR_MERGE:          0
cpu0->cpu0_STLB TRANSLATION  ACCESS:          0 HIT:          0 MISS:          0 MSHR_MERGE:          0
cpu0->cpu0_STLB PREFETCH REQUESTED:          0 ISSUED:          0 USEFUL:          0 USELESS:          0 LATE:          0
cpu0->cpu0_STLB AVERAGE MISS LATENCY: 253 cycles
cpu0->cpu0_L2C TOTAL        ACCESS:    2876819 HIT:     349447 MISS:    2527372 MSHR_MERGE:     512102
cpu0->cpu0_L2C LOAD         ACCESS:     604295 HIT:      95351 MISS:     508944 MSHR_MERGE:      59816
cpu0->cpu0_L2C RFO          ACCESS:          0 HIT:          0 MISS:          0 MSHR_MERGE:          0
cpu0->cpu0_L2C PREFETCH     ACCESS:    2144948 HIT:     135173 MISS:    2009775 MSHR_MERGE:     452286
cpu0->cpu0_L2C WRITE        ACCESS:     116977 HIT:     116848 MISS:        129 MSHR_MERGE:          0
cpu0->cpu0_L2C TRANSLATION  ACCESS:      10599 HIT:       2075 MISS:       8524 MSHR_MERGE:          0
cpu0->cpu0_L2C PREFETCH REQUESTED:     893172 ISSUED:     893172 USEFUL:     160829 USELESS:     247450 LATE:      59816
cpu0->cpu0_L2C AVERAGE MISS LATENCY: 225.3 cycles
cpu0->cpu0_L1I TOTAL        ACCESS:    5100818 HIT:    5100818 MISS:          0 MSHR_MERGE:          0
cpu0->cpu0_L1I LOAD         ACCESS:    5100818 HIT:    5100818 MISS:          0 MSHR_MERGE:          0
cpu0->cpu0_L1I RFO          ACCESS:          0 HIT:          0 MISS:          0 MSHR_MERGE:          0
cpu0->cpu0_L1I PREFETCH     ACCESS:          0 HIT:          0 MISS:          0 MSHR_MERGE:          0
cpu0->cpu0_L1I WRITE        ACCESS:          0 HIT:          0 MISS:          0 MSHR_MERGE:          0
cpu0->cpu0_L1I TRANSLATION  ACCESS:          0 HIT:          0 MISS:          0 MSHR_MERGE:          0
cpu0->cpu0_L1I PREFETCH REQUESTED:          0 ISSUED:          0 USEFUL:          0 USELESS:          0 LATE:          0
cpu0->cpu0_L1I AVERAGE MISS LATENCY: - cycles
cpu0->cpu0_L1D TOTAL        ACCESS:   10772565 HIT:    8317099 MISS:    2455466 MSHR_MERGE:     588795
cpu0->cpu0_L1D LOAD         ACCESS:    7745107 HIT:    6633561 MISS:    1111546 MSHR_MERGE:     507251
cpu0->cpu0_L1D RFO          ACCESS:          0 HIT:          0 MISS:          0 MSHR_MERGE:          0
cpu0->cpu0_L1D PREFETCH     ACCESS:    1420122 HIT:      87524 MISS:    1332598 MSHR_MERGE:      80821
cpu0->cpu0_L1D WRITE        ACCESS:    1508306 HIT:    1508306 MISS:          0 MSHR_MERGE:          0
cpu0->cpu0_L1D TRANSLATION  ACCESS:      99030 HIT:      87708 MISS:      11322 MSHR_MERGE:        723
cpu0->cpu0_L1D PREFETCH REQUESTED:    1439745 ISSUED:    1420119 USEFUL:     916335 USELESS:     335546 LATE:     279115
cpu0->cpu0_L1D AVERAGE MISS LATENCY: 180.4 cycles
cpu0->cpu0_ITLB TOTAL        ACCESS:    5100818 HIT:    5100818 MISS:          0 MSHR_MERGE:          0
cpu0->cpu0_ITLB LOAD         ACCESS:    5100818 HIT:    5100818 MISS:          0 MSHR_MERGE:          0
cpu0->cpu0_ITLB RFO          ACCESS:          0 HIT:          0 MISS:          0 MSHR_MERGE:          0
cpu0->cpu0_ITLB PREFETCH     ACCESS:          0 HIT:          0 MISS:          0 MSHR_MERGE:          0
cpu0->cpu0_ITLB WRITE        ACCESS:          0 HIT:          0 MISS:          0 MSHR_MERGE:          0
cpu0->cpu0_ITLB TRANSLATION  ACCESS:          0 HIT:          0 MISS:          0 MSHR_MERGE:          0
cpu0->cpu0_ITLB PREFETCH REQUESTED:          0 ISSUED:          0 USEFUL:          0 USELESS:          0 LATE:          0
cpu0->cpu0_ITLB AVERAGE MISS LATENCY: - cycles
cpu0->cpu0_DTLB TOTAL        ACCESS:   10243573 HIT:    9986890 MISS:     256683 MSHR_MERGE:     202689
cpu0->cpu0_DTLB LOAD         ACCESS:   10243573 HIT:    9986890 MISS:     256683 MSHR_MERGE:     202689
cpu0->cpu0_DTLB RFO          ACCESS:          0 HIT:          0 MISS:          0 MSHR_MERGE:          0
cpu0->cpu0_DTLB PREFETCH     ACCESS:          0 HIT:          0 MISS:          0 MSHR_MERGE:          0
cpu0->cpu0_DTLB WRITE        ACCESS:          0 HIT:          0 MISS:          0 MSHR_MERGE:          0
cpu0->cpu0_DTLB TRANSLATION  ACCESS:          0 HIT:          0 MISS:          0 MSHR_MERGE:          0
cpu0->cpu0_DTLB PREFETCH REQUESTED:          0 ISSUED:          0 USEFUL:          0 USELESS:          0 LATE:          0
cpu0->cpu0_DTLB AVERAGE MISS LATENCY: 236.9 cycles
cpu0->LLC TOTAL        ACCESS:    2127092 HIT:      64119 MISS:    2062973 MSHR_MERGE:      75730
cpu0->LLC LOAD         ACCESS:     449128 HIT:      23951 MISS:     425177 MSHR_MERGE:      10105
cpu0->LLC RFO          ACCESS:          0 HIT:          0 MISS:          0 MSHR_MERGE:          0
cpu0->LLC PREFETCH     ACCESS:    1557488 HIT:      18690 MISS:    1538798 MSHR_MERGE:      65625
cpu0->LLC WRITE        ACCESS:     111952 HIT:      20894 MISS:      91058 MSHR_MERGE:          0
cpu0->LLC TRANSLATION  ACCESS:       8524 HIT:        584 MISS:       7940 MSHR_MERGE:          0
cpu0->LLC PREFETCH REQUESTED:          0 ISSUED:          0 USEFUL:          0 USELESS:          0 LATE:          0
cpu0->LLC AVERAGE MISS LATENCY: 192.1 cycles

DRAM Statistics

Channel 0 RQ ROW_BUFFER_HIT:     341935
  ROW_BUFFER_MISS:    1554235
  AVG DBUS CONGESTED CYCLE: 4.993
Channel 0 WQ ROW_BUFFER_HIT:      17887
  ROW_BUFFER_MISS:      95272
  FULL:          0
Channel 0 REFRESHES ISSUED:       4742

[ROI Statistics]
[System Configuration]
num_cpus 1
cpu_freq 4000
fetch_width 6
decode_width 6
dispatch_width 6
execute_width 6
lq_width 2
sq_width 2
retire_width 6
scheduler_size 128
branch_mispredict_penalty 15
rob_size 352
lq_size 128
sq_size 72
ifetch_buffer_size 64
decode_buffer_size 32
dispatch_buffer_size 32
register_file_size 288
decode_latency 1
dispatch_latency 1
schedule_latency 1
execute_latency 1
page_size 4096
block_size 64
core_0_itlb_set 16
core_0_itlb_way 4
core_0_itlb_rq_size 16
core_0_itlb_wq_size 16
core_0_itlb_pq_size 0
core_0_itlb_mshr_size 8
core_0_itlb_hit_latency 1
core_0_itlb_fill_latency 1
core_0_itlb_max_tag_check 2
core_0_itlb_max_fill 2
core_0_dtlb_set 16
core_0_dtlb_way 4
core_0_dtlb_rq_size 16
core_0_dtlb_wq_size 16
core_0_dtlb_pq_size 0
core_0_dtlb_mshr_size 8
core_0_dtlb_hit_latency 1
core_0_dtlb_fill_latency 1
core_0_dtlb_max_tag_check 2
core_0_dtlb_max_fill 2
core_0_stlb_set 128
core_0_stlb_way 12
core_0_stlb_rq_size 32
core_0_stlb_wq_size 32
core_0_stlb_pq_size 0
core_0_stlb_mshr_size 16
core_0_stlb_hit_latency 4
core_0_stlb_fill_latency 4
core_0_stlb_max_tag_check 1
core_0_stlb_max_fill 1
core_0_l1i_set 64
core_0_l1i_way 8
core_0_l1i_rq_size 64
core_0_l1i_wq_size 64
core_0_l1i_pq_size 32
core_0_l1i_mshr_size 8
core_0_l1i_hit_latency 2
core_0_l1i_fill_latency 2
core_0_l1i_max_tag_check 2
core_0_l1i_max_fill 2
core_0_l1d_set 64
core_0_l1d_way 12
core_0_l1d_rq_size 64
core_0_l1d_wq_size 64
core_0_l1d_pq_size 8
core_0_l1d_mshr_size 16
core_0_l1d_hit_latency 2
core_0_l1d_fill_latency 3
core_0_l1d_max_tag_check 2
core_0_l1d_max_fill 2
core_0_l2c_set 1024
core_0_l2c_way 8
core_0_l2c_rq_size 32
core_0_l2c_wq_size 32
core_0_l2c_pq_size 16
core_0_l2c_mshr_size 32
core_0_l2c_hit_latency 5
core_0_l2c_fill_latency 5
core_0_l2c_max_tag_check 1
core_0_l2c_max_fill 1
llc_set 2048
llc_way 16
llc_rq_size 32
llc_wq_size 32
llc_pq_size 32
llc_mshr_size 64
llc_hit_latency 10
llc_fill_latency 10
llc_max_tag_check 1
llc_max_fill 1
dram_channels 1
dram_ranks 1
dram_bankgroups 8
dram_banks 4
dram_rows 65536
dram_columns 1024
dram_channel_width 8
dram_rq_size 64
dram_wq_size 64
dram_size 17179869184
core_0_itlb_prefetcher no
core_0_dtlb_prefetcher no
core_0_stlb_prefetcher no
core_0_l1i_prefetcher next_line
core_0_l1d_prefetcher berti
core_0_l2c_prefetcher ip_stride
llc_prefetcher no
llc_replacement drrip

Core_0_instructions 50000001
Core_0_cycles 56905981
Core_0_IPC 0.878642
Core_0_branch_prediction_accuracy 98.5
Core_0_branch_MPKI 2.41808
Core_0_average_ROB_occupancy_at_mispredict 95.5067

Core_0_ITLB_total_access 5100818
Core_0_ITLB_total_hit 5100818
Core_0_ITLB_total_miss 0
Core_0_ITLB_total_MPKI 0
Core_0_ITLB_total_miss_rate 0
Core_0_ITLB_demand_access 5100818
Core_0_ITLB_demand_hit 5100818
Core_0_ITLB_demand_miss 0
Core_0_ITLB_demand_MPKI 0
Core_0_ITLB_demand_miss_rate 0
Core_0_ITLB_load_access 5100818
Core_0_ITLB_load_hit 5100818
Core_0_ITLB_load_miss 0
Core_0_ITLB_load_MPKI 0
Core_0_ITLB_load_miss_rate 0
Core_0_ITLB_rfo_access 0
Core_0_ITLB_rfo_hit 0
Core_0_ITLB_rfo_miss 0
Core_0_ITLB_rfo_MPKI 0
Core_0_ITLB_rfo_miss_rate 0
Core_0_ITLB_prefetch_access 0
Core_0_ITLB_prefetch_hit 0
Core_0_ITLB_prefetch_miss 0
Core_0_ITLB_prefetch_MPKI 0
Core_0_ITLB_prefetch_miss_rate 0
Core_0_ITLB_writeback_access 0
Core_0_ITLB_writeback_hit 0
Core_0_ITLB_writeback_miss 0
Core_0_ITLB_writeback_MPKI 0
Core_0_ITLB_writeback_miss_rate 0
Core_0_ITLB_prefetch_requested 0
Core_0_ITLB_prefetch_issued 0
Core_0_ITLB_prefetch_useful 0
Core_0_ITLB_prefetch_useless 0
Core_0_ITLB_prefetch_late 0
Core_0_ITLB_prefetch_accuracy 0
Core_0_ITLB_prefetch_coverage 0

Core_0_DTLB_total_access 10243573
Core_0_DTLB_total_hit 9986890
Core_0_DTLB_total_miss 256683
Core_0_DTLB_total_MPKI 5.13366
Core_0_DTLB_total_miss_rate 0.025058
Core_0_DTLB_demand_access 10243573
Core_0_DTLB_demand_hit 9986890
Core_0_DTLB_demand_miss 256683
Core_0_DTLB_demand_MPKI 5.13366
Core_0_DTLB_demand_miss_rate 0.025058
Core_0_DTLB_load_access 10243573
Core_0_DTLB_load_hit 9986890
Core_0_DTLB_load_miss 256683
Core_0_DTLB_load_MPKI 5.13366
Core_0_DTLB_load_miss_rate 0.025058
Core_0_DTLB_rfo_access 0
Core_0_DTLB_rfo_hit 0
Core_0_DTLB_rfo_miss 0
Core_0_DTLB_rfo_MPKI 0
Core_0_DTLB_rfo_miss_rate 0
Core_0_DTLB_prefetch_access 0
Core_0_DTLB_prefetch_hit 0
Core_0_DTLB_prefetch_miss 0
Core_0_DTLB_prefetch_MPKI 0
Core_0_DTLB_prefetch_miss_rate 0
Core_0_DTLB_writeback_access 0
Core_0_DTLB_writeback_hit 0
Core_0_DTLB_writeback_miss 0
Core_0_DTLB_writeback_MPKI 0
Core_0_DTLB_writeback_miss_rate 0
Core_0_DTLB_prefetch_requested 0
Core_0_DTLB_prefetch_issued 0
Core_0_DTLB_prefetch_useful 0
Core_0_DTLB_prefetch_useless 0
Core_0_DTLB_prefetch_late 0
Core_0_DTLB_prefetch_accuracy 0
Core_0_DTLB_prefetch_coverage 0

Core_0_STLB_total_access 53994
Core_0_STLB_total_hit 4700
Core_0_STLB_total_miss 49294
Core_0_STLB_total_MPKI 0.98588
Core_0_STLB_total_miss_rate 0.912953
Core_0_STLB_demand_access 53994
Core_0_STLB_demand_hit 4700
Core_0_STLB_demand_miss 49294
Core_0_STLB_demand_MPKI 0.98588
Core_0_STLB_demand_miss_rate 0.912953
Core_0_STLB_load_access 53994
Core_0_STLB_load_hit 4700
Core_0_STLB_load_miss 49294
Core_0_STLB_load_MPKI 0.98588
Core_0_STLB_load_miss_rate 0.912953
Core_0_STLB_rfo_access 0
Core_0_STLB_rfo_hit 0
Core_0_STLB_rfo_miss 0
Core_0_STLB_rfo_MPKI 0
Core_0_STLB_rfo_miss_rate 0
Core_0_STLB_prefetch_access 0
Core_0_STLB_prefetch_hit 0
Core_0_STLB_prefetch_miss 0
Core_0_STLB_prefetch_MPKI 0
Core_0_STLB_prefetch_miss_rate 0
Core_0_STLB_writeback_access 0
Core_0_STLB_writeback_hit 0
Core_0_STLB_writeback_miss 0
Core_0_STLB_writeback_MPKI 0
Core_0_STLB_writeback_miss_rate 0
Core_0_STLB_prefetch_requested 0
Core_0_STLB_prefetch_issued 0
Core_0_STLB_prefetch_useful 0
Core_0_STLB_prefetch_useless 0
Core_0_STLB_prefetch_late 0
Core_0_STLB_prefetch_accuracy 0
Core_0_STLB_prefetch_coverage 0

Core_0_L1I_total_access 5100818
Core_0_L1I_total_hit 5100818
Core_0_L1I_total_miss 0
Core_0_L1I_total_MPKI 0
Core_0_L1I_total_miss_rate 0
Core_0_L1I_demand_access 5100818
Core_0_L1I_demand_hit 5100818
Core_0_L1I_demand_miss 0
Core_0_L1I_demand_MPKI 0
Core_0_L1I_demand_miss_rate 0
Core_0_L1I_load_access 5100818
Core_0_L1I_load_hit 5100818
Core_0_L1I_load_miss 0
Core_0_L1I_load_MPKI 0
Core_0_L1I_load_miss_rate 0
Core_0_L1I_rfo_access 0
Core_0_L1I_rfo_hit 0
Core_0_L1I_rfo_miss 0
Core_0_L1I_rfo_MPKI 0
Core_0_L1I_rfo_miss_rate 0
Core_0_L1I_prefetch_access 0
Core_0_L1I_prefetch_hit 0
Core_0_L1I_prefetch_miss 0
Core_0_L1I_prefetch_MPKI 0
Core_0_L1I_prefetch_miss_rate 0
Core_0_L1I_writeback_access 0
Core_0_L1I_writeback_hit 0
Core_0_L1I_writeback_miss 0
Core_0_L1I_writeback_MPKI 0
Core_0_L1I_writeback_miss_rate 0
Core_0_L1I_prefetch_requested 0
Core_0_L1I_prefetch_issued 0
Core_0_L1I_prefetch_useful 0
Core_0_L1I_prefetch_useless 0
Core_0_L1I_prefetch_late 0
Core_0_L1I_prefetch_accuracy 0
Core_0_L1I_prefetch_coverage 0

Core_0_L1D_total_access 10673535
Core_0_L1D_total_hit 8229391
Core_0_L1D_total_miss 2444144
Core_0_L1D_total_MPKI 48.8829
Core_0_L1D_total_miss_rate 0.228991
Core_0_L1D_demand_access 7745107
Core_0_L1D_demand_hit 6633561
Core_0_L1D_demand_miss 1111546
Core_0_L1D_demand_MPKI 22.2309
Core_0_L1D_demand_miss_rate 0.143516
Core_0_L1D_load_access 7745107
Core_0_L1D_load_hit 6633561
Core_0_L1D_load_miss 1111546
Core_0_L1D_load_MPKI 22.2309
Core_0_L1D_load_miss_rate 0.143516
Core_0_L1D_rfo_access 0
Core_0_L1D_rfo_hit 0
Core_0_L1D_rfo_miss 0
Core_0_L1D_rfo_MPKI 0
Core_0_L1D_rfo_miss_rate 0
Core_0_L1D_prefetch_access 1420122
Core_0_L1D_prefetch_hit 87524
Core_0_L1D_prefetch_miss 1332598
Core_0_L1D_prefetch_MPKI 26.652
Core_0_L1D_prefetch_miss_rate 0.938369
Core_0_L1D_writeback_access 1508306
Core_0_L1D_writeback_hit 1508306
Core_0_L1D_writeback_miss 0
Core_0_L1D_writeback_MPKI 0
Core_0_L1D_writeback_miss_rate 0
Core_0_L1D_prefetch_requested 1439745
Core_0_L1D_prefetch_issued 1420119
Core_0_L1D_prefetch_useful 916335
Core_0_L1D_prefetch_useless 335546
Core_0_L1D_prefetch_late 279115
Core_0_L1D_prefetch_accuracy 0.645252
Core_0_L1D_prefetch_coverage 0.451868

Core_0_L2C_total_access 2866220
Core_0_L2C_total_hit 347372
Core_0_L2C_total_miss 2518848
Core_0_L2C_total_MPKI 50.377
Core_0_L2C_total_miss_rate 0.878805
Core_0_L2C_demand_access 604295
Core_0_L2C_demand_hit 95351
Core_0_L2C_demand_miss 508944
Core_0_L2C_demand_MPKI 10.1789
Core_0_L2C_demand_miss_rate 0.842211
Core_0_L2C_load_access 604295
Core_0_L2C_load_hit 95351
Core_0_L2C_load_miss 508944
Core_0_L2C_load_MPKI 10.1789
Core_0_L2C_load_miss_rate 0.842211
Core_0_L2C_rfo_access 0
Core_0_L2C_rfo_hit 0
Core_0_L2C_rfo_miss 0
Core_0_L2C_rfo_MPKI 0
Core_0_L2C_rfo_miss_rate 0
Core_0_L2C_prefetch_access 2144948
Core_0_L2C_prefetch_hit 135173
Core_0_L2C_prefetch_miss 2009775
Core_0_L2C_prefetch_MPKI 40.1955
Core_0_L2C_prefetch_miss_rate 0.936981
Core_0_L2C_writeback_access 116977
Core_0_L2C_writeback_hit 116848
Core_0_L2C_writeback_miss 129
Core_0_L2C_writeback_MPKI 0.00258
Core_0_L2C_writeback_miss_rate 0.00110278
Core_0_L2C_prefetch_requested 893172
Core_0_L2C_prefetch_issued 893172
Core_0_L2C_prefetch_useful 160829
Core_0_L2C_prefetch_useless 247450
Core_0_L2C_prefetch_late 59816
Core_0_L2C_prefetch_accuracy 0.180065
Core_0_L2C_prefetch_coverage 0.240125

Core_0_LLC_total_access 2118568
Core_0_LLC_total_hit 63535
Core_0_LLC_total_miss 2055033
Core_0_LLC_total_MPKI 41.1007
Core_0_LLC_total_miss_rate 0.97001
Core_0_LLC_demand_access 449128
Core_0_LLC_demand_hit 23951
Core_0_LLC_demand_miss 425177
Core_0_LLC_demand_MPKI 8.50354
Core_0_LLC_demand_miss_rate 0.946672
Core_0_LLC_load_access 449128
Core_0_LLC_load_hit 23951
Core_0_LLC_load_miss 425177
Core_0_LLC_load_MPKI 8.50354
Core_0_LLC_load_miss_rate 0.946672
Core_0_LLC_rfo_access 0
Core_0_LLC_rfo_hit 0
Core_0_LLC_rfo_miss 0
Core_0_LLC_rfo_MPKI 0
Core_0_LLC_rfo_miss_rate 0
Core_0_LLC_prefetch_access 1557488
Core_0_LLC_prefetch_hit 18690
Core_0_LLC_prefetch_miss 1538798
Core_0_LLC_prefetch_MPKI 30.776
Core_0_LLC_prefetch_miss_rate 0.988
Core_0_LLC_writeback_access 111952
Core_0_LLC_writeback_hit 20894
Core_0_LLC_writeback_miss 91058
Core_0_LLC_writeback_MPKI 1.82116
Core_0_LLC_writeback_miss_rate 0.813366
Core_0_LLC_prefetch_requested 0
Core_0_LLC_prefetch_issued 0
Core_0_LLC_prefetch_useful 0
Core_0_LLC_prefetch_useless 0
Core_0_LLC_prefetch_late 0
Core_0_LLC_prefetch_accuracy 0
Core_0_LLC_prefetch_coverage 0

[DRAM Statistics]
Channel_0_RQ_row_buffer_hit 341935
Channel_0_RQ_row_buffer_miss 1554235
Channel_0_WQ_row_buffer_hit 17887
Channel_0_WQ_row_buffer_miss 95272
Channel_0_WQ_full 0
Channel_0_dbus_congested 4756467
DRAM_total_RQ_row_buffer_hit 341935
DRAM_total_RQ_row_buffer_miss 1554235
DRAM_total_WQ_row_buffer_hit 17887
DRAM_total_WQ_row_buffer_miss 95272
DRAM_total_WQ_full 0
DRAM_total_dbus_congested 4756467
DRAM_avg_congested_cycle 4.99255

======STLB miss causes ========
Core_0_STLB_miss_cause_breakdown
Core_0_STLB_cause_Demand_Data_miss 18823
Core_0_STLB_cause_Demand_Data_miss_rate 0.348613
Core_0_STLB_cause_Demand_Instruction_miss 0
Core_0_STLB_cause_Demand_Instruction_miss_rate 0
Core_0_STLB_cause_L1D_Prefetch_miss 30471
Core_0_STLB_cause_L1D_Prefetch_miss_rate 0.56434
Core_0_STLB_cause_L1I_Prefetch_miss 0
Core_0_STLB_cause_L1I_Prefetch_miss_rate 0
Core_0_STLB_cause_Other_miss 0
Core_0_STLB_cause_Other_miss_rate 0
Core_0_STLB_Demand_miss 18823
Core_0_STLB_Demand_miss_rate 0.348613
Core_0_STLB_L1D_Prefetch_miss 30471
Core_0_STLB_L1D_Prefetch_miss_rate 0.56434
Core_0_STLB_Other_miss 0
Core_0_STLB_Other_miss_rate 0
