[VMEM] WARNING: physical memory size is smaller than virtual memory size.

*** ChampSim Multicore Out-of-Order Simulator ***
Warmup Instructions: 20000000
Simulation Instructions: 50000000
Number of CPUs: 1
Page size: 4096
STLB ideal mode: off
Core 0: /data0/tzh/champsim_traces/Ligra/ligra_BFSCC.com-lj.ungraph.gcc_6.3.0_O3.drop_5000M.length_250M.champsimtrace.xz
 L1D Berti prefetcher
Off-chip DRAM Size: 16 GiB Channels: 1 Width: 64-bit Data Rate: 3205 MT/s
Warmup halting CPU 0 at instruction 20000002 cycle 7560731 for remainder of phase
Warmup finished CPU 0 instructions: 20000002 cycles: 7560731 cumulative IPC: 2.645 (Simulation time: 00 hr 00 min 48 sec)
Warmup complete CPU 0 instructions: 20000002 cycles: 7560731 cumulative IPC: 2.645 (Simulation time: 00 hr 00 min 48 sec)
Simulation finished CPU 0 instructions: 50000000 cycles: 21670482 cumulative IPC: 2.307 (Simulation time: 00 hr 03 min 20 sec)
Simulation complete CPU 0 instructions: 50000000 cycles: 21670482 cumulative IPC: 2.307 (Simulation time: 00 hr 03 min 20 sec)

ChampSim completed all CPUs

=== Simulation ===
CPU 0 runs /data0/tzh/champsim_traces/Ligra/ligra_BFSCC.com-lj.ungraph.gcc_6.3.0_O3.drop_5000M.length_250M.champsimtrace.xz

Region of Interest Statistics

CPU 0 cumulative IPC: 2.307 instructions: 50000000 cycles: 21670482
CPU 0 Branch Prediction Accuracy: 99.77% MPKI: 0.8833 Average ROB Occupancy at Mispredict: 51.01
Branch type MPKI
BRANCH_DIRECT_JUMP: 0
BRANCH_INDIRECT: 0
BRANCH_CONDITIONAL: 0.8833
BRANCH_DIRECT_CALL: 0
BRANCH_INDIRECT_CALL: 0
BRANCH_RETURN: 0

cpu0->cpu0_STLB TOTAL        ACCESS:       5094 HIT:          0 MISS:       5094 MSHR_MERGE:          0
cpu0->cpu0_STLB LOAD         ACCESS:       5094 HIT:          0 MISS:       5094 MSHR_MERGE:          0
cpu0->cpu0_STLB RFO          ACCESS:          0 HIT:          0 MISS:          0 MSHR_MERGE:          0
cpu0->cpu0_STLB PREFETCH     ACCESS:          0 HIT:          0 MISS:          0 MSHR_MERGE:          0
cpu0->cpu0_STLB WRITE        ACCESS:          0 HIT:          0 MISS:          0 MSHR_MERGE:          0
cpu0->cpu0_STLB TRANSLATION  ACCESS:          0 HIT:          0 MISS:          0 MSHR_MERGE:          0
cpu0->cpu0_STLB PREFETCH REQUESTED:          0 ISSUED:          0 USEFUL:          0 USELESS:          0 LATE:          0
cpu0->cpu0_STLB AVERAGE MISS LATENCY: 245.7 cycles
cpu0->cpu0_L2C TOTAL        ACCESS:     906250 HIT:     386602 MISS:     519648 MSHR_MERGE:     192949
cpu0->cpu0_L2C LOAD         ACCESS:       2911 HIT:        470 MISS:       2441 MSHR_MERGE:          1
cpu0->cpu0_L2C RFO          ACCESS:     178389 HIT:          0 MISS:     178389 MSHR_MERGE:          0
cpu0->cpu0_L2C PREFETCH     ACCESS:     545867 HIT:     207705 MISS:     338162 MSHR_MERGE:     192948
cpu0->cpu0_L2C WRITE        ACCESS:     178427 HIT:     178427 MISS:          0 MSHR_MERGE:          0
cpu0->cpu0_L2C TRANSLATION  ACCESS:        656 HIT:          0 MISS:        656 MSHR_MERGE:          0
cpu0->cpu0_L2C PREFETCH REQUESTED:     401131 ISSUED:     401131 USEFUL:     112459 USELESS:      24419 LATE:          1
cpu0->cpu0_L2C AVERAGE MISS LATENCY: 271.6 cycles
cpu0->cpu0_L1I TOTAL        ACCESS:     861032 HIT:     861032 MISS:          0 MSHR_MERGE:          0
cpu0->cpu0_L1I LOAD         ACCESS:     861032 HIT:     861032 MISS:          0 MSHR_MERGE:          0
cpu0->cpu0_L1I RFO          ACCESS:          0 HIT:          0 MISS:          0 MSHR_MERGE:          0
cpu0->cpu0_L1I PREFETCH     ACCESS:          0 HIT:          0 MISS:          0 MSHR_MERGE:          0
cpu0->cpu0_L1I WRITE        ACCESS:          0 HIT:          0 MISS:          0 MSHR_MERGE:          0
cpu0->cpu0_L1I TRANSLATION  ACCESS:          0 HIT:          0 MISS:          0 MSHR_MERGE:          0
cpu0->cpu0_L1I PREFETCH REQUESTED:          0 ISSUED:          0 USEFUL:          0 USELESS:          0 LATE:          0
cpu0->cpu0_L1I AVERAGE MISS LATENCY: - cycles
cpu0->cpu0_L1D TOTAL        ACCESS:   10918605 HIT:    9241696 MISS:    1676909 MSHR_MERGE:    1350217
cpu0->cpu0_L1D LOAD         ACCESS:    9335988 HIT:    9221116 MISS:     114872 MSHR_MERGE:     111961
cpu0->cpu0_L1D RFO          ACCESS:          0 HIT:          0 MISS:          0 MSHR_MERGE:          0
cpu0->cpu0_L1D PREFETCH     ACCESS:     145304 HIT:        550 MISS:     144754 MSHR_MERGE:         18
cpu0->cpu0_L1D WRITE        ACCESS:    1427114 HIT:      10487 MISS:    1416627 MSHR_MERGE:    1238238
cpu0->cpu0_L1D TRANSLATION  ACCESS:      10199 HIT:       9543 MISS:        656 MSHR_MERGE:          0
cpu0->cpu0_L1D PREFETCH REQUESTED:     145304 ISSUED:     145304 USEFUL:     144735 USELESS:          0 LATE:       2712
cpu0->cpu0_L1D AVERAGE MISS LATENCY: 277.6 cycles
cpu0->cpu0_ITLB TOTAL        ACCESS:     861032 HIT:     861032 MISS:          0 MSHR_MERGE:          0
cpu0->cpu0_ITLB LOAD         ACCESS:     861032 HIT:     861032 MISS:          0 MSHR_MERGE:          0
cpu0->cpu0_ITLB RFO          ACCESS:          0 HIT:          0 MISS:          0 MSHR_MERGE:          0
cpu0->cpu0_ITLB PREFETCH     ACCESS:          0 HIT:          0 MISS:          0 MSHR_MERGE:          0
cpu0->cpu0_ITLB WRITE        ACCESS:          0 HIT:          0 MISS:          0 MSHR_MERGE:          0
cpu0->cpu0_ITLB TRANSLATION  ACCESS:          0 HIT:          0 MISS:          0 MSHR_MERGE:          0
cpu0->cpu0_ITLB PREFETCH REQUESTED:          0 ISSUED:          0 USEFUL:          0 USELESS:          0 LATE:          0
cpu0->cpu0_ITLB AVERAGE MISS LATENCY: - cycles
cpu0->cpu0_DTLB TOTAL        ACCESS:   10882027 HIT:   10802360 MISS:      79667 MSHR_MERGE:      74573
cpu0->cpu0_DTLB LOAD         ACCESS:   10882027 HIT:   10802360 MISS:      79667 MSHR_MERGE:      74573
cpu0->cpu0_DTLB RFO          ACCESS:          0 HIT:          0 MISS:          0 MSHR_MERGE:          0
cpu0->cpu0_DTLB PREFETCH     ACCESS:          0 HIT:          0 MISS:          0 MSHR_MERGE:          0
cpu0->cpu0_DTLB WRITE        ACCESS:          0 HIT:          0 MISS:          0 MSHR_MERGE:          0
cpu0->cpu0_DTLB TRANSLATION  ACCESS:          0 HIT:          0 MISS:          0 MSHR_MERGE:          0
cpu0->cpu0_DTLB PREFETCH REQUESTED:          0 ISSUED:          0 USEFUL:          0 USELESS:          0 LATE:          0
cpu0->cpu0_DTLB AVERAGE MISS LATENCY: 251.7 cycles
cpu0->LLC TOTAL        ACCESS:     504846 HIT:     111082 MISS:     393764 MSHR_MERGE:          6
cpu0->LLC LOAD         ACCESS:       2440 HIT:          0 MISS:       2440 MSHR_MERGE:          0
cpu0->LLC RFO          ACCESS:     178389 HIT:          0 MISS:     178389 MSHR_MERGE:          0
cpu0->LLC PREFETCH     ACCESS:     145214 HIT:          1 MISS:     145213 MSHR_MERGE:          6
cpu0->LLC WRITE        ACCESS:     178147 HIT:     111076 MISS:      67071 MSHR_MERGE:          0
cpu0->LLC TRANSLATION  ACCESS:        656 HIT:          5 MISS:        651 MSHR_MERGE:          0
cpu0->LLC PREFETCH REQUESTED:          0 ISSUED:          0 USEFUL:          0 USELESS:          0 LATE:          0
cpu0->LLC AVERAGE MISS LATENCY: 189.1 cycles

DRAM Statistics

Channel 0 RQ ROW_BUFFER_HIT:       5491
  ROW_BUFFER_MISS:     321191
  AVG DBUS CONGESTED CYCLE: 6.982
Channel 0 WQ ROW_BUFFER_HIT:      29663
  ROW_BUFFER_MISS:     137502
  FULL:          0
Channel 0 REFRESHES ISSUED:       1805

[ROI Statistics]
[System Configuration]
num_cpus 1
cpu_freq 4000
fetch_width 6
decode_width 6
dispatch_width 6
execute_width 6
lq_width 2
sq_width 2
retire_width 6
scheduler_size 128
branch_mispredict_penalty 15
rob_size 352
lq_size 128
sq_size 72
ifetch_buffer_size 64
decode_buffer_size 32
dispatch_buffer_size 32
register_file_size 288
decode_latency 1
dispatch_latency 1
schedule_latency 1
execute_latency 1
page_size 4096
block_size 64
core_0_itlb_set 16
core_0_itlb_way 4
core_0_itlb_rq_size 16
core_0_itlb_wq_size 16
core_0_itlb_pq_size 0
core_0_itlb_mshr_size 8
core_0_itlb_hit_latency 1
core_0_itlb_fill_latency 1
core_0_itlb_max_tag_check 2
core_0_itlb_max_fill 2
core_0_dtlb_set 16
core_0_dtlb_way 4
core_0_dtlb_rq_size 16
core_0_dtlb_wq_size 16
core_0_dtlb_pq_size 0
core_0_dtlb_mshr_size 8
core_0_dtlb_hit_latency 1
core_0_dtlb_fill_latency 1
core_0_dtlb_max_tag_check 2
core_0_dtlb_max_fill 2
core_0_stlb_set 128
core_0_stlb_way 12
core_0_stlb_rq_size 32
core_0_stlb_wq_size 32
core_0_stlb_pq_size 0
core_0_stlb_mshr_size 16
core_0_stlb_hit_latency 4
core_0_stlb_fill_latency 4
core_0_stlb_max_tag_check 1
core_0_stlb_max_fill 1
core_0_l1i_set 64
core_0_l1i_way 8
core_0_l1i_rq_size 64
core_0_l1i_wq_size 64
core_0_l1i_pq_size 32
core_0_l1i_mshr_size 8
core_0_l1i_hit_latency 2
core_0_l1i_fill_latency 2
core_0_l1i_max_tag_check 2
core_0_l1i_max_fill 2
core_0_l1d_set 64
core_0_l1d_way 12
core_0_l1d_rq_size 64
core_0_l1d_wq_size 64
core_0_l1d_pq_size 8
core_0_l1d_mshr_size 16
core_0_l1d_hit_latency 2
core_0_l1d_fill_latency 3
core_0_l1d_max_tag_check 2
core_0_l1d_max_fill 2
core_0_l2c_set 1024
core_0_l2c_way 8
core_0_l2c_rq_size 32
core_0_l2c_wq_size 32
core_0_l2c_pq_size 16
core_0_l2c_mshr_size 32
core_0_l2c_hit_latency 5
core_0_l2c_fill_latency 5
core_0_l2c_max_tag_check 1
core_0_l2c_max_fill 1
llc_set 2048
llc_way 16
llc_rq_size 32
llc_wq_size 32
llc_pq_size 32
llc_mshr_size 64
llc_hit_latency 10
llc_fill_latency 10
llc_max_tag_check 1
llc_max_fill 1
dram_channels 1
dram_ranks 1
dram_bankgroups 8
dram_banks 4
dram_rows 65536
dram_columns 1024
dram_channel_width 8
dram_rq_size 64
dram_wq_size 64
dram_size 17179869184
core_0_itlb_prefetcher no
core_0_dtlb_prefetcher no
core_0_stlb_prefetcher no
core_0_l1i_prefetcher next_line
core_0_l1d_prefetcher berti
core_0_l2c_prefetcher ip_stride
llc_prefetcher no
llc_replacement drrip

Core_0_instructions 50000000
Core_0_cycles 21670482
Core_0_IPC 2.30729
Core_0_branch_prediction_accuracy 99.7656
Core_0_branch_MPKI 0.88332
Core_0_average_ROB_occupancy_at_mispredict 51.0067

Core_0_ITLB_total_access 861032
Core_0_ITLB_total_hit 861032
Core_0_ITLB_total_miss 0
Core_0_ITLB_total_MPKI 0
Core_0_ITLB_total_miss_rate 0
Core_0_ITLB_demand_access 861032
Core_0_ITLB_demand_hit 861032
Core_0_ITLB_demand_miss 0
Core_0_ITLB_demand_MPKI 0
Core_0_ITLB_demand_miss_rate 0
Core_0_ITLB_load_access 861032
Core_0_ITLB_load_hit 861032
Core_0_ITLB_load_miss 0
Core_0_ITLB_load_MPKI 0
Core_0_ITLB_load_miss_rate 0
Core_0_ITLB_rfo_access 0
Core_0_ITLB_rfo_hit 0
Core_0_ITLB_rfo_miss 0
Core_0_ITLB_rfo_MPKI 0
Core_0_ITLB_rfo_miss_rate 0
Core_0_ITLB_prefetch_access 0
Core_0_ITLB_prefetch_hit 0
Core_0_ITLB_prefetch_miss 0
Core_0_ITLB_prefetch_MPKI 0
Core_0_ITLB_prefetch_miss_rate 0
Core_0_ITLB_writeback_access 0
Core_0_ITLB_writeback_hit 0
Core_0_ITLB_writeback_miss 0
Core_0_ITLB_writeback_MPKI 0
Core_0_ITLB_writeback_miss_rate 0
Core_0_ITLB_prefetch_requested 0
Core_0_ITLB_prefetch_issued 0
Core_0_ITLB_prefetch_useful 0
Core_0_ITLB_prefetch_useless 0
Core_0_ITLB_prefetch_late 0
Core_0_ITLB_prefetch_accuracy 0
Core_0_ITLB_prefetch_coverage 0

Core_0_DTLB_total_access 10882027
Core_0_DTLB_total_hit 10802360
Core_0_DTLB_total_miss 79667
Core_0_DTLB_total_MPKI 1.59334
Core_0_DTLB_total_miss_rate 0.00732097
Core_0_DTLB_demand_access 10882027
Core_0_DTLB_demand_hit 10802360
Core_0_DTLB_demand_miss 79667
Core_0_DTLB_demand_MPKI 1.59334
Core_0_DTLB_demand_miss_rate 0.00732097
Core_0_DTLB_load_access 10882027
Core_0_DTLB_load_hit 10802360
Core_0_DTLB_load_miss 79667
Core_0_DTLB_load_MPKI 1.59334
Core_0_DTLB_load_miss_rate 0.00732097
Core_0_DTLB_rfo_access 0
Core_0_DTLB_rfo_hit 0
Core_0_DTLB_rfo_miss 0
Core_0_DTLB_rfo_MPKI 0
Core_0_DTLB_rfo_miss_rate 0
Core_0_DTLB_prefetch_access 0
Core_0_DTLB_prefetch_hit 0
Core_0_DTLB_prefetch_miss 0
Core_0_DTLB_prefetch_MPKI 0
Core_0_DTLB_prefetch_miss_rate 0
Core_0_DTLB_writeback_access 0
Core_0_DTLB_writeback_hit 0
Core_0_DTLB_writeback_miss 0
Core_0_DTLB_writeback_MPKI 0
Core_0_DTLB_writeback_miss_rate 0
Core_0_DTLB_prefetch_requested 0
Core_0_DTLB_prefetch_issued 0
Core_0_DTLB_prefetch_useful 0
Core_0_DTLB_prefetch_useless 0
Core_0_DTLB_prefetch_late 0
Core_0_DTLB_prefetch_accuracy 0
Core_0_DTLB_prefetch_coverage 0

Core_0_STLB_total_access 5094
Core_0_STLB_total_hit 0
Core_0_STLB_total_miss 5094
Core_0_STLB_total_MPKI 0.10188
Core_0_STLB_total_miss_rate 1
Core_0_STLB_demand_access 5094
Core_0_STLB_demand_hit 0
Core_0_STLB_demand_miss 5094
Core_0_STLB_demand_MPKI 0.10188
Core_0_STLB_demand_miss_rate 1
Core_0_STLB_load_access 5094
Core_0_STLB_load_hit 0
Core_0_STLB_load_miss 5094
Core_0_STLB_load_MPKI 0.10188
Core_0_STLB_load_miss_rate 1
Core_0_STLB_rfo_access 0
Core_0_STLB_rfo_hit 0
Core_0_STLB_rfo_miss 0
Core_0_STLB_rfo_MPKI 0
Core_0_STLB_rfo_miss_rate 0
Core_0_STLB_prefetch_access 0
Core_0_STLB_prefetch_hit 0
Core_0_STLB_prefetch_miss 0
Core_0_STLB_prefetch_MPKI 0
Core_0_STLB_prefetch_miss_rate 0
Core_0_STLB_writeback_access 0
Core_0_STLB_writeback_hit 0
Core_0_STLB_writeback_miss 0
Core_0_STLB_writeback_MPKI 0
Core_0_STLB_writeback_miss_rate 0
Core_0_STLB_prefetch_requested 0
Core_0_STLB_prefetch_issued 0
Core_0_STLB_prefetch_useful 0
Core_0_STLB_prefetch_useless 0
Core_0_STLB_prefetch_late 0
Core_0_STLB_prefetch_accuracy 0
Core_0_STLB_prefetch_coverage 0

Core_0_L1I_total_access 861032
Core_0_L1I_total_hit 861032
Core_0_L1I_total_miss 0
Core_0_L1I_total_MPKI 0
Core_0_L1I_total_miss_rate 0
Core_0_L1I_demand_access 861032
Core_0_L1I_demand_hit 861032
Core_0_L1I_demand_miss 0
Core_0_L1I_demand_MPKI 0
Core_0_L1I_demand_miss_rate 0
Core_0_L1I_load_access 861032
Core_0_L1I_load_hit 861032
Core_0_L1I_load_miss 0
Core_0_L1I_load_MPKI 0
Core_0_L1I_load_miss_rate 0
Core_0_L1I_rfo_access 0
Core_0_L1I_rfo_hit 0
Core_0_L1I_rfo_miss 0
Core_0_L1I_rfo_MPKI 0
Core_0_L1I_rfo_miss_rate 0
Core_0_L1I_prefetch_access 0
Core_0_L1I_prefetch_hit 0
Core_0_L1I_prefetch_miss 0
Core_0_L1I_prefetch_MPKI 0
Core_0_L1I_prefetch_miss_rate 0
Core_0_L1I_writeback_access 0
Core_0_L1I_writeback_hit 0
Core_0_L1I_writeback_miss 0
Core_0_L1I_writeback_MPKI 0
Core_0_L1I_writeback_miss_rate 0
Core_0_L1I_prefetch_requested 0
Core_0_L1I_prefetch_issued 0
Core_0_L1I_prefetch_useful 0
Core_0_L1I_prefetch_useless 0
Core_0_L1I_prefetch_late 0
Core_0_L1I_prefetch_accuracy 0
Core_0_L1I_prefetch_coverage 0

Core_0_L1D_total_access 10908406
Core_0_L1D_total_hit 9232153
Core_0_L1D_total_miss 1676253
Core_0_L1D_total_MPKI 33.5251
Core_0_L1D_total_miss_rate 0.153666
Core_0_L1D_demand_access 9335988
Core_0_L1D_demand_hit 9221116
Core_0_L1D_demand_miss 114872
Core_0_L1D_demand_MPKI 2.29744
Core_0_L1D_demand_miss_rate 0.0123042
Core_0_L1D_load_access 9335988
Core_0_L1D_load_hit 9221116
Core_0_L1D_load_miss 114872
Core_0_L1D_load_MPKI 2.29744
Core_0_L1D_load_miss_rate 0.0123042
Core_0_L1D_rfo_access 0
Core_0_L1D_rfo_hit 0
Core_0_L1D_rfo_miss 0
Core_0_L1D_rfo_MPKI 0
Core_0_L1D_rfo_miss_rate 0
Core_0_L1D_prefetch_access 145304
Core_0_L1D_prefetch_hit 550
Core_0_L1D_prefetch_miss 144754
Core_0_L1D_prefetch_MPKI 2.89508
Core_0_L1D_prefetch_miss_rate 0.996215
Core_0_L1D_writeback_access 1427114
Core_0_L1D_writeback_hit 10487
Core_0_L1D_writeback_miss 1416627
Core_0_L1D_writeback_MPKI 28.3325
Core_0_L1D_writeback_miss_rate 0.992652
Core_0_L1D_prefetch_requested 145304
Core_0_L1D_prefetch_issued 145304
Core_0_L1D_prefetch_useful 144735
Core_0_L1D_prefetch_useless 0
Core_0_L1D_prefetch_late 2712
Core_0_L1D_prefetch_accuracy 0.996084
Core_0_L1D_prefetch_coverage 0.557516

Core_0_L2C_total_access 905594
Core_0_L2C_total_hit 386602
Core_0_L2C_total_miss 518992
Core_0_L2C_total_MPKI 10.3798
Core_0_L2C_total_miss_rate 0.573096
Core_0_L2C_demand_access 181300
Core_0_L2C_demand_hit 470
Core_0_L2C_demand_miss 180830
Core_0_L2C_demand_MPKI 3.6166
Core_0_L2C_demand_miss_rate 0.997408
Core_0_L2C_load_access 2911
Core_0_L2C_load_hit 470
Core_0_L2C_load_miss 2441
Core_0_L2C_load_MPKI 0.04882
Core_0_L2C_load_miss_rate 0.838543
Core_0_L2C_rfo_access 178389
Core_0_L2C_rfo_hit 0
Core_0_L2C_rfo_miss 178389
Core_0_L2C_rfo_MPKI 3.56778
Core_0_L2C_rfo_miss_rate 1
Core_0_L2C_prefetch_access 545867
Core_0_L2C_prefetch_hit 207705
Core_0_L2C_prefetch_miss 338162
Core_0_L2C_prefetch_MPKI 6.76324
Core_0_L2C_prefetch_miss_rate 0.619495
Core_0_L2C_writeback_access 178427
Core_0_L2C_writeback_hit 178427
Core_0_L2C_writeback_miss 0
Core_0_L2C_writeback_MPKI 0
Core_0_L2C_writeback_miss_rate 0
Core_0_L2C_prefetch_requested 401131
Core_0_L2C_prefetch_issued 401131
Core_0_L2C_prefetch_useful 112459
Core_0_L2C_prefetch_useless 24419
Core_0_L2C_prefetch_late 1
Core_0_L2C_prefetch_accuracy 0.280355
Core_0_L2C_prefetch_coverage 0.383441

Core_0_LLC_total_access 504190
Core_0_LLC_total_hit 111077
Core_0_LLC_total_miss 393113
Core_0_LLC_total_MPKI 7.86226
Core_0_LLC_total_miss_rate 0.779692
Core_0_LLC_demand_access 180829
Core_0_LLC_demand_hit 0
Core_0_LLC_demand_miss 180829
Core_0_LLC_demand_MPKI 3.61658
Core_0_LLC_demand_miss_rate 1
Core_0_LLC_load_access 2440
Core_0_LLC_load_hit 0
Core_0_LLC_load_miss 2440
Core_0_LLC_load_MPKI 0.0488
Core_0_LLC_load_miss_rate 1
Core_0_LLC_rfo_access 178389
Core_0_LLC_rfo_hit 0
Core_0_LLC_rfo_miss 178389
Core_0_LLC_rfo_MPKI 3.56778
Core_0_LLC_rfo_miss_rate 1
Core_0_LLC_prefetch_access 145214
Core_0_LLC_prefetch_hit 1
Core_0_LLC_prefetch_miss 145213
Core_0_LLC_prefetch_MPKI 2.90426
Core_0_LLC_prefetch_miss_rate 0.999993
Core_0_LLC_writeback_access 178147
Core_0_LLC_writeback_hit 111076
Core_0_LLC_writeback_miss 67071
Core_0_LLC_writeback_MPKI 1.34142
Core_0_LLC_writeback_miss_rate 0.376492
Core_0_LLC_prefetch_requested 0
Core_0_LLC_prefetch_issued 0
Core_0_LLC_prefetch_useful 0
Core_0_LLC_prefetch_useless 0
Core_0_LLC_prefetch_late 0
Core_0_LLC_prefetch_accuracy 0
Core_0_LLC_prefetch_coverage 0

[DRAM Statistics]
Channel_0_RQ_row_buffer_hit 5491
Channel_0_RQ_row_buffer_miss 321191
Channel_0_WQ_row_buffer_hit 29663
Channel_0_WQ_row_buffer_miss 137502
Channel_0_WQ_full 0
Channel_0_dbus_congested 1155540
DRAM_total_RQ_row_buffer_hit 5491
DRAM_total_RQ_row_buffer_miss 321191
DRAM_total_WQ_row_buffer_hit 29663
DRAM_total_WQ_row_buffer_miss 137502
DRAM_total_WQ_full 0
DRAM_total_dbus_congested 1155540
DRAM_avg_congested_cycle 6.98243

======STLB miss causes ========
Core_0_STLB_miss_cause_breakdown
Core_0_STLB_cause_Demand_Data_miss 5088
Core_0_STLB_cause_Demand_Data_miss_rate 0.998822
Core_0_STLB_cause_Demand_Instruction_miss 0
Core_0_STLB_cause_Demand_Instruction_miss_rate 0
Core_0_STLB_cause_L1D_Prefetch_miss 6
Core_0_STLB_cause_L1D_Prefetch_miss_rate 0.00117786
Core_0_STLB_cause_L1I_Prefetch_miss 0
Core_0_STLB_cause_L1I_Prefetch_miss_rate 0
Core_0_STLB_cause_Other_miss 0
Core_0_STLB_cause_Other_miss_rate 0
Core_0_STLB_Demand_miss 5088
Core_0_STLB_Demand_miss_rate 0.998822
Core_0_STLB_L1D_Prefetch_miss 6
Core_0_STLB_L1D_Prefetch_miss_rate 0.00117786
Core_0_STLB_Other_miss 0
Core_0_STLB_Other_miss_rate 0
