[VMEM] WARNING: physical memory size is smaller than virtual memory size.

*** ChampSim Multicore Out-of-Order Simulator ***
Warmup Instructions: 20000000
Simulation Instructions: 50000000
Number of CPUs: 1
Page size: 4096
STLB ideal mode: off
Core 0: /data0/tzh/champsim_traces/Ligra/ligra_BC.com-lj.ungraph.gcc_6.3.0_O3.drop_11500M.length_250M.champsimtrace.xz
 L1D Berti prefetcher
Off-chip DRAM Size: 16 GiB Channels: 1 Width: 64-bit Data Rate: 3205 MT/s
Warmup halting CPU 0 at instruction 20000000 cycle 4466778 for remainder of phase
Warmup finished CPU 0 instructions: 20000000 cycles: 4466778 cumulative IPC: 4.478 (Simulation time: 00 hr 00 min 40 sec)
Warmup complete CPU 0 instructions: 20000000 cycles: 4466778 cumulative IPC: 4.478 (Simulation time: 00 hr 00 min 40 sec)
Simulation finished CPU 0 instructions: 50000002 cycles: 28668359 cumulative IPC: 1.744 (Simulation time: 00 hr 03 min 28 sec)
Simulation complete CPU 0 instructions: 50000002 cycles: 28668359 cumulative IPC: 1.744 (Simulation time: 00 hr 03 min 28 sec)

ChampSim completed all CPUs

=== Simulation ===
CPU 0 runs /data0/tzh/champsim_traces/Ligra/ligra_BC.com-lj.ungraph.gcc_6.3.0_O3.drop_11500M.length_250M.champsimtrace.xz

Region of Interest Statistics

CPU 0 cumulative IPC: 1.744 instructions: 50000002 cycles: 28668359
CPU 0 Branch Prediction Accuracy: 97.58% MPKI: 7.323 Average ROB Occupancy at Mispredict: 66.41
Branch type MPKI
BRANCH_DIRECT_JUMP: 0
BRANCH_INDIRECT: 0
BRANCH_CONDITIONAL: 7.323
BRANCH_DIRECT_CALL: 0
BRANCH_INDIRECT_CALL: 0
BRANCH_RETURN: 0

cpu0->cpu0_STLB TOTAL        ACCESS:       1014 HIT:          0 MISS:       1014 MSHR_MERGE:          0
cpu0->cpu0_STLB LOAD         ACCESS:       1014 HIT:          0 MISS:       1014 MSHR_MERGE:          0
cpu0->cpu0_STLB RFO          ACCESS:          0 HIT:          0 MISS:          0 MSHR_MERGE:          0
cpu0->cpu0_STLB PREFETCH     ACCESS:          0 HIT:          0 MISS:          0 MSHR_MERGE:          0
cpu0->cpu0_STLB WRITE        ACCESS:          0 HIT:          0 MISS:          0 MSHR_MERGE:          0
cpu0->cpu0_STLB TRANSLATION  ACCESS:          0 HIT:          0 MISS:          0 MSHR_MERGE:          0
cpu0->cpu0_STLB PREFETCH REQUESTED:          0 ISSUED:          0 USEFUL:          0 USELESS:          0 LATE:          0
cpu0->cpu0_STLB AVERAGE MISS LATENCY: 236.4 cycles
cpu0->cpu0_L2C TOTAL        ACCESS:      78526 HIT:      13515 MISS:      65011 MSHR_MERGE:          0
cpu0->cpu0_L2C LOAD         ACCESS:        809 HIT:          0 MISS:        809 MSHR_MERGE:          0
cpu0->cpu0_L2C RFO          ACCESS:      13270 HIT:          0 MISS:      13270 MSHR_MERGE:          0
cpu0->cpu0_L2C PREFETCH     ACCESS:      51025 HIT:        223 MISS:      50802 MSHR_MERGE:          0
cpu0->cpu0_L2C WRITE        ACCESS:      13292 HIT:      13292 MISS:          0 MSHR_MERGE:          0
cpu0->cpu0_L2C TRANSLATION  ACCESS:        130 HIT:          0 MISS:        130 MSHR_MERGE:          0
cpu0->cpu0_L2C PREFETCH REQUESTED:        223 ISSUED:        223 USEFUL:        223 USELESS:          0 LATE:          0
cpu0->cpu0_L2C AVERAGE MISS LATENCY: 187.3 cycles
cpu0->cpu0_L1I TOTAL        ACCESS:       9012 HIT:       9012 MISS:          0 MSHR_MERGE:          0
cpu0->cpu0_L1I LOAD         ACCESS:       9012 HIT:       9012 MISS:          0 MSHR_MERGE:          0
cpu0->cpu0_L1I RFO          ACCESS:          0 HIT:          0 MISS:          0 MSHR_MERGE:          0
cpu0->cpu0_L1I PREFETCH     ACCESS:          0 HIT:          0 MISS:          0 MSHR_MERGE:          0
cpu0->cpu0_L1I WRITE        ACCESS:          0 HIT:          0 MISS:          0 MSHR_MERGE:          0
cpu0->cpu0_L1I TRANSLATION  ACCESS:          0 HIT:          0 MISS:          0 MSHR_MERGE:          0
cpu0->cpu0_L1I PREFETCH REQUESTED:          0 ISSUED:          0 USEFUL:          0 USELESS:          0 LATE:          0
cpu0->cpu0_L1I AVERAGE MISS LATENCY: - cycles
cpu0->cpu0_L1D TOTAL        ACCESS:    7428500 HIT:    7346741 MISS:      81759 MSHR_MERGE:      16748
cpu0->cpu0_L1D LOAD         ACCESS:    4827795 HIT:    4825586 MISS:       2209 MSHR_MERGE:       1400
cpu0->cpu0_L1D RFO          ACCESS:          0 HIT:          0 MISS:          0 MSHR_MERGE:          0
cpu0->cpu0_L1D PREFETCH     ACCESS:      50834 HIT:         32 MISS:      50802 MSHR_MERGE:          0
cpu0->cpu0_L1D WRITE        ACCESS:    2547840 HIT:    2519222 MISS:      28618 MSHR_MERGE:      15348
cpu0->cpu0_L1D TRANSLATION  ACCESS:       2031 HIT:       1901 MISS:        130 MSHR_MERGE:          0
cpu0->cpu0_L1D PREFETCH REQUESTED:      50834 ISSUED:      50834 USEFUL:      50802 USELESS:          0 LATE:         31
cpu0->cpu0_L1D AVERAGE MISS LATENCY: 196.1 cycles
cpu0->cpu0_ITLB TOTAL        ACCESS:       8535 HIT:       8535 MISS:          0 MSHR_MERGE:          0
cpu0->cpu0_ITLB LOAD         ACCESS:       8535 HIT:       8535 MISS:          0 MSHR_MERGE:          0
cpu0->cpu0_ITLB RFO          ACCESS:          0 HIT:          0 MISS:          0 MSHR_MERGE:          0
cpu0->cpu0_ITLB PREFETCH     ACCESS:          0 HIT:          0 MISS:          0 MSHR_MERGE:          0
cpu0->cpu0_ITLB WRITE        ACCESS:          0 HIT:          0 MISS:          0 MSHR_MERGE:          0
cpu0->cpu0_ITLB TRANSLATION  ACCESS:          0 HIT:          0 MISS:          0 MSHR_MERGE:          0
cpu0->cpu0_ITLB PREFETCH REQUESTED:          0 ISSUED:          0 USEFUL:          0 USELESS:          0 LATE:          0
cpu0->cpu0_ITLB AVERAGE MISS LATENCY: - cycles
cpu0->cpu0_DTLB TOTAL        ACCESS:    7208440 HIT:    7205787 MISS:       2653 MSHR_MERGE:       1639
cpu0->cpu0_DTLB LOAD         ACCESS:    7208440 HIT:    7205787 MISS:       2653 MSHR_MERGE:       1639
cpu0->cpu0_DTLB RFO          ACCESS:          0 HIT:          0 MISS:          0 MSHR_MERGE:          0
cpu0->cpu0_DTLB PREFETCH     ACCESS:          0 HIT:          0 MISS:          0 MSHR_MERGE:          0
cpu0->cpu0_DTLB WRITE        ACCESS:          0 HIT:          0 MISS:          0 MSHR_MERGE:          0
cpu0->cpu0_DTLB TRANSLATION  ACCESS:          0 HIT:          0 MISS:          0 MSHR_MERGE:          0
cpu0->cpu0_DTLB PREFETCH REQUESTED:          0 ISSUED:          0 USEFUL:          0 USELESS:          0 LATE:          0
cpu0->cpu0_DTLB AVERAGE MISS LATENCY: 242.4 cycles
cpu0->LLC TOTAL        ACCESS:      78500 HIT:       5924 MISS:      72576 MSHR_MERGE:          0
cpu0->LLC LOAD         ACCESS:        809 HIT:          0 MISS:        809 MSHR_MERGE:          0
cpu0->LLC RFO          ACCESS:      13270 HIT:          0 MISS:      13270 MSHR_MERGE:          0
cpu0->LLC PREFETCH     ACCESS:      50802 HIT:          0 MISS:      50802 MSHR_MERGE:          0
cpu0->LLC WRITE        ACCESS:      13489 HIT:       5922 MISS:       7567 MSHR_MERGE:          0
cpu0->LLC TRANSLATION  ACCESS:        130 HIT:          2 MISS:        128 MSHR_MERGE:          0
cpu0->LLC PREFETCH REQUESTED:          0 ISSUED:          0 USEFUL:          0 USELESS:          0 LATE:          0
cpu0->LLC AVERAGE MISS LATENCY: 114.9 cycles

DRAM Statistics

Channel 0 RQ ROW_BUFFER_HIT:          0
  ROW_BUFFER_MISS:      65009
  AVG DBUS CONGESTED CYCLE: 14.53
Channel 0 WQ ROW_BUFFER_HIT:        415
  ROW_BUFFER_MISS:       2983
  FULL:          0
Channel 0 REFRESHES ISSUED:       2389

[ROI Statistics]
[System Configuration]
num_cpus 1
cpu_freq 4000
fetch_width 6
decode_width 6
dispatch_width 6
execute_width 6
lq_width 2
sq_width 2
retire_width 6
scheduler_size 128
branch_mispredict_penalty 15
rob_size 352
lq_size 128
sq_size 72
ifetch_buffer_size 64
decode_buffer_size 32
dispatch_buffer_size 32
register_file_size 288
decode_latency 1
dispatch_latency 1
schedule_latency 1
execute_latency 1
page_size 4096
block_size 64
core_0_itlb_set 16
core_0_itlb_way 4
core_0_itlb_rq_size 16
core_0_itlb_wq_size 16
core_0_itlb_pq_size 0
core_0_itlb_mshr_size 8
core_0_itlb_hit_latency 1
core_0_itlb_fill_latency 1
core_0_itlb_max_tag_check 2
core_0_itlb_max_fill 2
core_0_dtlb_set 16
core_0_dtlb_way 4
core_0_dtlb_rq_size 16
core_0_dtlb_wq_size 16
core_0_dtlb_pq_size 0
core_0_dtlb_mshr_size 8
core_0_dtlb_hit_latency 1
core_0_dtlb_fill_latency 1
core_0_dtlb_max_tag_check 2
core_0_dtlb_max_fill 2
core_0_stlb_set 128
core_0_stlb_way 12
core_0_stlb_rq_size 32
core_0_stlb_wq_size 32
core_0_stlb_pq_size 0
core_0_stlb_mshr_size 16
core_0_stlb_hit_latency 4
core_0_stlb_fill_latency 4
core_0_stlb_max_tag_check 1
core_0_stlb_max_fill 1
core_0_l1i_set 64
core_0_l1i_way 8
core_0_l1i_rq_size 64
core_0_l1i_wq_size 64
core_0_l1i_pq_size 32
core_0_l1i_mshr_size 8
core_0_l1i_hit_latency 2
core_0_l1i_fill_latency 2
core_0_l1i_max_tag_check 2
core_0_l1i_max_fill 2
core_0_l1d_set 64
core_0_l1d_way 12
core_0_l1d_rq_size 64
core_0_l1d_wq_size 64
core_0_l1d_pq_size 8
core_0_l1d_mshr_size 16
core_0_l1d_hit_latency 2
core_0_l1d_fill_latency 3
core_0_l1d_max_tag_check 2
core_0_l1d_max_fill 2
core_0_l2c_set 1024
core_0_l2c_way 8
core_0_l2c_rq_size 32
core_0_l2c_wq_size 32
core_0_l2c_pq_size 16
core_0_l2c_mshr_size 32
core_0_l2c_hit_latency 5
core_0_l2c_fill_latency 5
core_0_l2c_max_tag_check 1
core_0_l2c_max_fill 1
llc_set 2048
llc_way 16
llc_rq_size 32
llc_wq_size 32
llc_pq_size 32
llc_mshr_size 64
llc_hit_latency 10
llc_fill_latency 10
llc_max_tag_check 1
llc_max_fill 1
dram_channels 1
dram_ranks 1
dram_bankgroups 8
dram_banks 4
dram_rows 65536
dram_columns 1024
dram_channel_width 8
dram_rq_size 64
dram_wq_size 64
dram_size 17179869184
core_0_itlb_prefetcher no
core_0_dtlb_prefetcher no
core_0_stlb_prefetcher no
core_0_l1i_prefetcher next_line
core_0_l1d_prefetcher berti
core_0_l2c_prefetcher ip_stride
llc_prefetcher no
llc_replacement drrip

Core_0_instructions 50000002
Core_0_cycles 28668359
Core_0_IPC 1.74408
Core_0_branch_prediction_accuracy 97.5813
Core_0_branch_MPKI 7.32288
Core_0_average_ROB_occupancy_at_mispredict 66.4117

Core_0_ITLB_total_access 8535
Core_0_ITLB_total_hit 8535
Core_0_ITLB_total_miss 0
Core_0_ITLB_total_MPKI 0
Core_0_ITLB_total_miss_rate 0
Core_0_ITLB_demand_access 8535
Core_0_ITLB_demand_hit 8535
Core_0_ITLB_demand_miss 0
Core_0_ITLB_demand_MPKI 0
Core_0_ITLB_demand_miss_rate 0
Core_0_ITLB_load_access 8535
Core_0_ITLB_load_hit 8535
Core_0_ITLB_load_miss 0
Core_0_ITLB_load_MPKI 0
Core_0_ITLB_load_miss_rate 0
Core_0_ITLB_rfo_access 0
Core_0_ITLB_rfo_hit 0
Core_0_ITLB_rfo_miss 0
Core_0_ITLB_rfo_MPKI 0
Core_0_ITLB_rfo_miss_rate 0
Core_0_ITLB_prefetch_access 0
Core_0_ITLB_prefetch_hit 0
Core_0_ITLB_prefetch_miss 0
Core_0_ITLB_prefetch_MPKI 0
Core_0_ITLB_prefetch_miss_rate 0
Core_0_ITLB_writeback_access 0
Core_0_ITLB_writeback_hit 0
Core_0_ITLB_writeback_miss 0
Core_0_ITLB_writeback_MPKI 0
Core_0_ITLB_writeback_miss_rate 0
Core_0_ITLB_prefetch_requested 0
Core_0_ITLB_prefetch_issued 0
Core_0_ITLB_prefetch_useful 0
Core_0_ITLB_prefetch_useless 0
Core_0_ITLB_prefetch_late 0
Core_0_ITLB_prefetch_accuracy 0
Core_0_ITLB_prefetch_coverage 0

Core_0_DTLB_total_access 7208440
Core_0_DTLB_total_hit 7205787
Core_0_DTLB_total_miss 2653
Core_0_DTLB_total_MPKI 0.05306
Core_0_DTLB_total_miss_rate 0.000368041
Core_0_DTLB_demand_access 7208440
Core_0_DTLB_demand_hit 7205787
Core_0_DTLB_demand_miss 2653
Core_0_DTLB_demand_MPKI 0.05306
Core_0_DTLB_demand_miss_rate 0.000368041
Core_0_DTLB_load_access 7208440
Core_0_DTLB_load_hit 7205787
Core_0_DTLB_load_miss 2653
Core_0_DTLB_load_MPKI 0.05306
Core_0_DTLB_load_miss_rate 0.000368041
Core_0_DTLB_rfo_access 0
Core_0_DTLB_rfo_hit 0
Core_0_DTLB_rfo_miss 0
Core_0_DTLB_rfo_MPKI 0
Core_0_DTLB_rfo_miss_rate 0
Core_0_DTLB_prefetch_access 0
Core_0_DTLB_prefetch_hit 0
Core_0_DTLB_prefetch_miss 0
Core_0_DTLB_prefetch_MPKI 0
Core_0_DTLB_prefetch_miss_rate 0
Core_0_DTLB_writeback_access 0
Core_0_DTLB_writeback_hit 0
Core_0_DTLB_writeback_miss 0
Core_0_DTLB_writeback_MPKI 0
Core_0_DTLB_writeback_miss_rate 0
Core_0_DTLB_prefetch_requested 0
Core_0_DTLB_prefetch_issued 0
Core_0_DTLB_prefetch_useful 0
Core_0_DTLB_prefetch_useless 0
Core_0_DTLB_prefetch_late 0
Core_0_DTLB_prefetch_accuracy 0
Core_0_DTLB_prefetch_coverage 0

Core_0_STLB_total_access 1014
Core_0_STLB_total_hit 0
Core_0_STLB_total_miss 1014
Core_0_STLB_total_MPKI 0.02028
Core_0_STLB_total_miss_rate 1
Core_0_STLB_demand_access 1014
Core_0_STLB_demand_hit 0
Core_0_STLB_demand_miss 1014
Core_0_STLB_demand_MPKI 0.02028
Core_0_STLB_demand_miss_rate 1
Core_0_STLB_load_access 1014
Core_0_STLB_load_hit 0
Core_0_STLB_load_miss 1014
Core_0_STLB_load_MPKI 0.02028
Core_0_STLB_load_miss_rate 1
Core_0_STLB_rfo_access 0
Core_0_STLB_rfo_hit 0
Core_0_STLB_rfo_miss 0
Core_0_STLB_rfo_MPKI 0
Core_0_STLB_rfo_miss_rate 0
Core_0_STLB_prefetch_access 0
Core_0_STLB_prefetch_hit 0
Core_0_STLB_prefetch_miss 0
Core_0_STLB_prefetch_MPKI 0
Core_0_STLB_prefetch_miss_rate 0
Core_0_STLB_writeback_access 0
Core_0_STLB_writeback_hit 0
Core_0_STLB_writeback_miss 0
Core_0_STLB_writeback_MPKI 0
Core_0_STLB_writeback_miss_rate 0
Core_0_STLB_prefetch_requested 0
Core_0_STLB_prefetch_issued 0
Core_0_STLB_prefetch_useful 0
Core_0_STLB_prefetch_useless 0
Core_0_STLB_prefetch_late 0
Core_0_STLB_prefetch_accuracy 0
Core_0_STLB_prefetch_coverage 0

Core_0_L1I_total_access 9012
Core_0_L1I_total_hit 9012
Core_0_L1I_total_miss 0
Core_0_L1I_total_MPKI 0
Core_0_L1I_total_miss_rate 0
Core_0_L1I_demand_access 9012
Core_0_L1I_demand_hit 9012
Core_0_L1I_demand_miss 0
Core_0_L1I_demand_MPKI 0
Core_0_L1I_demand_miss_rate 0
Core_0_L1I_load_access 9012
Core_0_L1I_load_hit 9012
Core_0_L1I_load_miss 0
Core_0_L1I_load_MPKI 0
Core_0_L1I_load_miss_rate 0
Core_0_L1I_rfo_access 0
Core_0_L1I_rfo_hit 0
Core_0_L1I_rfo_miss 0
Core_0_L1I_rfo_MPKI 0
Core_0_L1I_rfo_miss_rate 0
Core_0_L1I_prefetch_access 0
Core_0_L1I_prefetch_hit 0
Core_0_L1I_prefetch_miss 0
Core_0_L1I_prefetch_MPKI 0
Core_0_L1I_prefetch_miss_rate 0
Core_0_L1I_writeback_access 0
Core_0_L1I_writeback_hit 0
Core_0_L1I_writeback_miss 0
Core_0_L1I_writeback_MPKI 0
Core_0_L1I_writeback_miss_rate 0
Core_0_L1I_prefetch_requested 0
Core_0_L1I_prefetch_issued 0
Core_0_L1I_prefetch_useful 0
Core_0_L1I_prefetch_useless 0
Core_0_L1I_prefetch_late 0
Core_0_L1I_prefetch_accuracy 0
Core_0_L1I_prefetch_coverage 0

Core_0_L1D_total_access 7426469
Core_0_L1D_total_hit 7344840
Core_0_L1D_total_miss 81629
Core_0_L1D_total_MPKI 1.63258
Core_0_L1D_total_miss_rate 0.0109916
Core_0_L1D_demand_access 4827795
Core_0_L1D_demand_hit 4825586
Core_0_L1D_demand_miss 2209
Core_0_L1D_demand_MPKI 0.04418
Core_0_L1D_demand_miss_rate 0.000457559
Core_0_L1D_load_access 4827795
Core_0_L1D_load_hit 4825586
Core_0_L1D_load_miss 2209
Core_0_L1D_load_MPKI 0.04418
Core_0_L1D_load_miss_rate 0.000457559
Core_0_L1D_rfo_access 0
Core_0_L1D_rfo_hit 0
Core_0_L1D_rfo_miss 0
Core_0_L1D_rfo_MPKI 0
Core_0_L1D_rfo_miss_rate 0
Core_0_L1D_prefetch_access 50834
Core_0_L1D_prefetch_hit 32
Core_0_L1D_prefetch_miss 50802
Core_0_L1D_prefetch_MPKI 1.01604
Core_0_L1D_prefetch_miss_rate 0.999371
Core_0_L1D_writeback_access 2547840
Core_0_L1D_writeback_hit 2519222
Core_0_L1D_writeback_miss 28618
Core_0_L1D_writeback_MPKI 0.57236
Core_0_L1D_writeback_miss_rate 0.0112323
Core_0_L1D_prefetch_requested 50834
Core_0_L1D_prefetch_issued 50834
Core_0_L1D_prefetch_useful 50802
Core_0_L1D_prefetch_useless 0
Core_0_L1D_prefetch_late 31
Core_0_L1D_prefetch_accuracy 0.999371
Core_0_L1D_prefetch_coverage 0.958329

Core_0_L2C_total_access 78396
Core_0_L2C_total_hit 13515
Core_0_L2C_total_miss 64881
Core_0_L2C_total_MPKI 1.29762
Core_0_L2C_total_miss_rate 0.827606
Core_0_L2C_demand_access 14079
Core_0_L2C_demand_hit 0
Core_0_L2C_demand_miss 14079
Core_0_L2C_demand_MPKI 0.28158
Core_0_L2C_demand_miss_rate 1
Core_0_L2C_load_access 809
Core_0_L2C_load_hit 0
Core_0_L2C_load_miss 809
Core_0_L2C_load_MPKI 0.01618
Core_0_L2C_load_miss_rate 1
Core_0_L2C_rfo_access 13270
Core_0_L2C_rfo_hit 0
Core_0_L2C_rfo_miss 13270
Core_0_L2C_rfo_MPKI 0.2654
Core_0_L2C_rfo_miss_rate 1
Core_0_L2C_prefetch_access 51025
Core_0_L2C_prefetch_hit 223
Core_0_L2C_prefetch_miss 50802
Core_0_L2C_prefetch_MPKI 1.01604
Core_0_L2C_prefetch_miss_rate 0.99563
Core_0_L2C_writeback_access 13292
Core_0_L2C_writeback_hit 13292
Core_0_L2C_writeback_miss 0
Core_0_L2C_writeback_MPKI 0
Core_0_L2C_writeback_miss_rate 0
Core_0_L2C_prefetch_requested 223
Core_0_L2C_prefetch_issued 223
Core_0_L2C_prefetch_useful 223
Core_0_L2C_prefetch_useless 0
Core_0_L2C_prefetch_late 0
Core_0_L2C_prefetch_accuracy 1
Core_0_L2C_prefetch_coverage 0.0155922

Core_0_LLC_total_access 78370
Core_0_LLC_total_hit 5922
Core_0_LLC_total_miss 72448
Core_0_LLC_total_MPKI 1.44896
Core_0_LLC_total_miss_rate 0.924435
Core_0_LLC_demand_access 14079
Core_0_LLC_demand_hit 0
Core_0_LLC_demand_miss 14079
Core_0_LLC_demand_MPKI 0.28158
Core_0_LLC_demand_miss_rate 1
Core_0_LLC_load_access 809
Core_0_LLC_load_hit 0
Core_0_LLC_load_miss 809
Core_0_LLC_load_MPKI 0.01618
Core_0_LLC_load_miss_rate 1
Core_0_LLC_rfo_access 13270
Core_0_LLC_rfo_hit 0
Core_0_LLC_rfo_miss 13270
Core_0_LLC_rfo_MPKI 0.2654
Core_0_LLC_rfo_miss_rate 1
Core_0_LLC_prefetch_access 50802
Core_0_LLC_prefetch_hit 0
Core_0_LLC_prefetch_miss 50802
Core_0_LLC_prefetch_MPKI 1.01604
Core_0_LLC_prefetch_miss_rate 1
Core_0_LLC_writeback_access 13489
Core_0_LLC_writeback_hit 5922
Core_0_LLC_writeback_miss 7567
Core_0_LLC_writeback_MPKI 0.15134
Core_0_LLC_writeback_miss_rate 0.560976
Core_0_LLC_prefetch_requested 0
Core_0_LLC_prefetch_issued 0
Core_0_LLC_prefetch_useful 0
Core_0_LLC_prefetch_useless 0
Core_0_LLC_prefetch_late 0
Core_0_LLC_prefetch_accuracy 0
Core_0_LLC_prefetch_coverage 0

[DRAM Statistics]
Channel_0_RQ_row_buffer_hit 0
Channel_0_RQ_row_buffer_miss 65009
Channel_0_WQ_row_buffer_hit 415
Channel_0_WQ_row_buffer_miss 2983
Channel_0_WQ_full 0
Channel_0_dbus_congested 29145
DRAM_total_RQ_row_buffer_hit 0
DRAM_total_RQ_row_buffer_miss 65009
DRAM_total_WQ_row_buffer_hit 415
DRAM_total_WQ_row_buffer_miss 2983
DRAM_total_WQ_full 0
DRAM_total_dbus_congested 29145
DRAM_avg_congested_cycle 14.5285

======STLB miss causes ========
Core_0_STLB_miss_cause_breakdown
Core_0_STLB_cause_Demand_Data_miss 1014
Core_0_STLB_cause_Demand_Data_miss_rate 1
Core_0_STLB_cause_Demand_Instruction_miss 0
Core_0_STLB_cause_Demand_Instruction_miss_rate 0
Core_0_STLB_cause_L1D_Prefetch_miss 0
Core_0_STLB_cause_L1D_Prefetch_miss_rate 0
Core_0_STLB_cause_L1I_Prefetch_miss 0
Core_0_STLB_cause_L1I_Prefetch_miss_rate 0
Core_0_STLB_cause_Other_miss 0
Core_0_STLB_cause_Other_miss_rate 0
Core_0_STLB_Demand_miss 1014
Core_0_STLB_Demand_miss_rate 1
Core_0_STLB_L1D_Prefetch_miss 0
Core_0_STLB_L1D_Prefetch_miss_rate 0
Core_0_STLB_Other_miss 0
Core_0_STLB_Other_miss_rate 0
