[VMEM] WARNING: physical memory size is smaller than virtual memory size.

*** ChampSim Multicore Out-of-Order Simulator ***
Warmup Instructions: 20000000
Simulation Instructions: 50000000
Number of CPUs: 1
Page size: 4096
STLB ideal mode: off
Core 0: /data0/tzh/champsim_traces/Ligra/ligra_Components.com-lj.ungraph.gcc_6.3.0_O3.drop_15750M.length_250M.champsimtrace.xz
 L1D Berti prefetcher
Off-chip DRAM Size: 16 GiB Channels: 1 Width: 64-bit Data Rate: 3205 MT/s
Warmup halting CPU 0 at instruction 20000004 cycle 5902865 for remainder of phase
Warmup finished CPU 0 instructions: 20000004 cycles: 5902865 cumulative IPC: 3.388 (Simulation time: 00 hr 01 min 05 sec)
Warmup complete CPU 0 instructions: 20000004 cycles: 5902865 cumulative IPC: 3.388 (Simulation time: 00 hr 01 min 05 sec)
Simulation finished CPU 0 instructions: 50000005 cycles: 43126452 cumulative IPC: 1.159 (Simulation time: 00 hr 05 min 53 sec)
Simulation complete CPU 0 instructions: 50000005 cycles: 43126452 cumulative IPC: 1.159 (Simulation time: 00 hr 05 min 53 sec)

ChampSim completed all CPUs

=== Simulation ===
CPU 0 runs /data0/tzh/champsim_traces/Ligra/ligra_Components.com-lj.ungraph.gcc_6.3.0_O3.drop_15750M.length_250M.champsimtrace.xz

Region of Interest Statistics

CPU 0 cumulative IPC: 1.159 instructions: 50000005 cycles: 43126452
CPU 0 Branch Prediction Accuracy: 92.59% MPKI: 8.731 Average ROB Occupancy at Mispredict: 62.39
Branch type MPKI
BRANCH_DIRECT_JUMP: 0
BRANCH_INDIRECT: 0
BRANCH_CONDITIONAL: 8.731
BRANCH_DIRECT_CALL: 0
BRANCH_INDIRECT_CALL: 0
BRANCH_RETURN: 0

cpu0->cpu0_STLB TOTAL        ACCESS:      17699 HIT:          0 MISS:      17699 MSHR_MERGE:          0
cpu0->cpu0_STLB LOAD         ACCESS:      17699 HIT:          0 MISS:      17699 MSHR_MERGE:          0
cpu0->cpu0_STLB RFO          ACCESS:          0 HIT:          0 MISS:          0 MSHR_MERGE:          0
cpu0->cpu0_STLB PREFETCH     ACCESS:          0 HIT:          0 MISS:          0 MSHR_MERGE:          0
cpu0->cpu0_STLB WRITE        ACCESS:          0 HIT:          0 MISS:          0 MSHR_MERGE:          0
cpu0->cpu0_STLB TRANSLATION  ACCESS:          0 HIT:          0 MISS:          0 MSHR_MERGE:          0
cpu0->cpu0_STLB PREFETCH REQUESTED:          0 ISSUED:          0 USEFUL:          0 USELESS:          0 LATE:          0
cpu0->cpu0_STLB AVERAGE MISS LATENCY: 271.4 cycles
cpu0->cpu0_L2C TOTAL        ACCESS:    2128094 HIT:     690176 MISS:    1437918 MSHR_MERGE:     246207
cpu0->cpu0_L2C LOAD         ACCESS:      22434 HIT:       2712 MISS:      19722 MSHR_MERGE:        188
cpu0->cpu0_L2C RFO          ACCESS:     623998 HIT:          0 MISS:     623998 MSHR_MERGE:          0
cpu0->cpu0_L2C PREFETCH     ACCESS:     854875 HIT:      62928 MISS:     791947 MSHR_MERGE:     246019
cpu0->cpu0_L2C WRITE        ACCESS:     624069 HIT:     624069 MISS:          0 MSHR_MERGE:          0
cpu0->cpu0_L2C TRANSLATION  ACCESS:       2718 HIT:        467 MISS:       2251 MSHR_MERGE:          0
cpu0->cpu0_L2C PREFETCH REQUESTED:     368542 ISSUED:     368542 USEFUL:      56360 USELESS:     126840 LATE:        188
cpu0->cpu0_L2C AVERAGE MISS LATENCY: 447.4 cycles
cpu0->cpu0_L1I TOTAL        ACCESS:     324027 HIT:     324027 MISS:          0 MSHR_MERGE:          0
cpu0->cpu0_L1I LOAD         ACCESS:     324027 HIT:     324027 MISS:          0 MSHR_MERGE:          0
cpu0->cpu0_L1I RFO          ACCESS:          0 HIT:          0 MISS:          0 MSHR_MERGE:          0
cpu0->cpu0_L1I PREFETCH     ACCESS:          0 HIT:          0 MISS:          0 MSHR_MERGE:          0
cpu0->cpu0_L1I WRITE        ACCESS:          0 HIT:          0 MISS:          0 MSHR_MERGE:          0
cpu0->cpu0_L1I TRANSLATION  ACCESS:          0 HIT:          0 MISS:          0 MSHR_MERGE:          0
cpu0->cpu0_L1I PREFETCH REQUESTED:          0 ISSUED:          0 USEFUL:          0 USELESS:          0 LATE:          0
cpu0->cpu0_L1I AVERAGE MISS LATENCY: - cycles
cpu0->cpu0_L1D TOTAL        ACCESS:   14910721 HIT:    4254919 MISS:   10655802 MSHR_MERGE:    9520322
cpu0->cpu0_L1D LOAD         ACCESS:    4382841 HIT:    4116498 MISS:     266343 MSHR_MERGE:     243909
cpu0->cpu0_L1D RFO          ACCESS:          0 HIT:          0 MISS:          0 MSHR_MERGE:          0
cpu0->cpu0_L1D PREFETCH     ACCESS:     508481 HIT:      10484 MISS:     497997 MSHR_MERGE:      11667
cpu0->cpu0_L1D WRITE        ACCESS:    9983966 HIT:      95222 MISS:    9888744 MSHR_MERGE:    9264746
cpu0->cpu0_L1D TRANSLATION  ACCESS:      35433 HIT:      32715 MISS:       2718 MSHR_MERGE:          0
cpu0->cpu0_L1D PREFETCH REQUESTED:     508747 ISSUED:     508473 USEFUL:     486319 USELESS:          2 LATE:      28397
cpu0->cpu0_L1D AVERAGE MISS LATENCY: 444.2 cycles
cpu0->cpu0_ITLB TOTAL        ACCESS:     324027 HIT:     324027 MISS:          0 MSHR_MERGE:          0
cpu0->cpu0_ITLB LOAD         ACCESS:     324027 HIT:     324027 MISS:          0 MSHR_MERGE:          0
cpu0->cpu0_ITLB RFO          ACCESS:          0 HIT:          0 MISS:          0 MSHR_MERGE:          0
cpu0->cpu0_ITLB PREFETCH     ACCESS:          0 HIT:          0 MISS:          0 MSHR_MERGE:          0
cpu0->cpu0_ITLB WRITE        ACCESS:          0 HIT:          0 MISS:          0 MSHR_MERGE:          0
cpu0->cpu0_ITLB TRANSLATION  ACCESS:          0 HIT:          0 MISS:          0 MSHR_MERGE:          0
cpu0->cpu0_ITLB PREFETCH REQUESTED:          0 ISSUED:          0 USEFUL:          0 USELESS:          0 LATE:          0
cpu0->cpu0_ITLB AVERAGE MISS LATENCY: - cycles
cpu0->cpu0_DTLB TOTAL        ACCESS:   13647680 HIT:   13412030 MISS:     235650 MSHR_MERGE:     217951
cpu0->cpu0_DTLB LOAD         ACCESS:   13647680 HIT:   13412030 MISS:     235650 MSHR_MERGE:     217951
cpu0->cpu0_DTLB RFO          ACCESS:          0 HIT:          0 MISS:          0 MSHR_MERGE:          0
cpu0->cpu0_DTLB PREFETCH     ACCESS:          0 HIT:          0 MISS:          0 MSHR_MERGE:          0
cpu0->cpu0_DTLB WRITE        ACCESS:          0 HIT:          0 MISS:          0 MSHR_MERGE:          0
cpu0->cpu0_DTLB TRANSLATION  ACCESS:          0 HIT:          0 MISS:          0 MSHR_MERGE:          0
cpu0->cpu0_DTLB PREFETCH REQUESTED:          0 ISSUED:          0 USEFUL:          0 USELESS:          0 LATE:          0
cpu0->cpu0_DTLB AVERAGE MISS LATENCY: 277.4 cycles
cpu0->LLC TOTAL        ACCESS:    1817285 HIT:     544793 MISS:    1272492 MSHR_MERGE:      45789
cpu0->LLC LOAD         ACCESS:      19534 HIT:        366 MISS:      19168 MSHR_MERGE:         25
cpu0->LLC RFO          ACCESS:     623998 HIT:          0 MISS:     623998 MSHR_MERGE:          0
cpu0->LLC PREFETCH     ACCESS:     545928 HIT:      10539 MISS:     535389 MSHR_MERGE:      45764
cpu0->LLC WRITE        ACCESS:     625574 HIT:     533886 MISS:      91688 MSHR_MERGE:          0
cpu0->LLC TRANSLATION  ACCESS:       2251 HIT:          2 MISS:       2249 MSHR_MERGE:          0
cpu0->LLC PREFETCH REQUESTED:          0 ISSUED:          0 USEFUL:          0 USELESS:          0 LATE:          0
cpu0->LLC AVERAGE MISS LATENCY: 379 cycles

DRAM Statistics

Channel 0 RQ ROW_BUFFER_HIT:      62292
  ROW_BUFFER_MISS:    1072719
  AVG DBUS CONGESTED CYCLE: 7.159
Channel 0 WQ ROW_BUFFER_HIT:      68256
  ROW_BUFFER_MISS:     559645
  FULL:          0
Channel 0 REFRESHES ISSUED:       3594

[ROI Statistics]
[System Configuration]
num_cpus 1
cpu_freq 4000
fetch_width 6
decode_width 6
dispatch_width 6
execute_width 6
lq_width 2
sq_width 2
retire_width 6
scheduler_size 128
branch_mispredict_penalty 15
rob_size 352
lq_size 128
sq_size 72
ifetch_buffer_size 64
decode_buffer_size 32
dispatch_buffer_size 32
register_file_size 288
decode_latency 1
dispatch_latency 1
schedule_latency 1
execute_latency 1
page_size 4096
block_size 64
core_0_itlb_set 16
core_0_itlb_way 4
core_0_itlb_rq_size 16
core_0_itlb_wq_size 16
core_0_itlb_pq_size 0
core_0_itlb_mshr_size 8
core_0_itlb_hit_latency 1
core_0_itlb_fill_latency 1
core_0_itlb_max_tag_check 2
core_0_itlb_max_fill 2
core_0_dtlb_set 16
core_0_dtlb_way 4
core_0_dtlb_rq_size 16
core_0_dtlb_wq_size 16
core_0_dtlb_pq_size 0
core_0_dtlb_mshr_size 8
core_0_dtlb_hit_latency 1
core_0_dtlb_fill_latency 1
core_0_dtlb_max_tag_check 2
core_0_dtlb_max_fill 2
core_0_stlb_set 128
core_0_stlb_way 12
core_0_stlb_rq_size 32
core_0_stlb_wq_size 32
core_0_stlb_pq_size 0
core_0_stlb_mshr_size 16
core_0_stlb_hit_latency 4
core_0_stlb_fill_latency 4
core_0_stlb_max_tag_check 1
core_0_stlb_max_fill 1
core_0_l1i_set 64
core_0_l1i_way 8
core_0_l1i_rq_size 64
core_0_l1i_wq_size 64
core_0_l1i_pq_size 32
core_0_l1i_mshr_size 8
core_0_l1i_hit_latency 2
core_0_l1i_fill_latency 2
core_0_l1i_max_tag_check 2
core_0_l1i_max_fill 2
core_0_l1d_set 64
core_0_l1d_way 12
core_0_l1d_rq_size 64
core_0_l1d_wq_size 64
core_0_l1d_pq_size 8
core_0_l1d_mshr_size 16
core_0_l1d_hit_latency 2
core_0_l1d_fill_latency 3
core_0_l1d_max_tag_check 2
core_0_l1d_max_fill 2
core_0_l2c_set 1024
core_0_l2c_way 8
core_0_l2c_rq_size 32
core_0_l2c_wq_size 32
core_0_l2c_pq_size 16
core_0_l2c_mshr_size 32
core_0_l2c_hit_latency 5
core_0_l2c_fill_latency 5
core_0_l2c_max_tag_check 1
core_0_l2c_max_fill 1
llc_set 2048
llc_way 16
llc_rq_size 32
llc_wq_size 32
llc_pq_size 32
llc_mshr_size 64
llc_hit_latency 10
llc_fill_latency 10
llc_max_tag_check 1
llc_max_fill 1
dram_channels 1
dram_ranks 1
dram_bankgroups 8
dram_banks 4
dram_rows 65536
dram_columns 1024
dram_channel_width 8
dram_rq_size 64
dram_wq_size 64
dram_size 17179869184
core_0_itlb_prefetcher no
core_0_dtlb_prefetcher no
core_0_stlb_prefetcher no
core_0_l1i_prefetcher next_line
core_0_l1d_prefetcher berti
core_0_l2c_prefetcher ip_stride
llc_prefetcher no
llc_replacement drrip

Core_0_instructions 50000005
Core_0_cycles 43126452
Core_0_IPC 1.15938
Core_0_branch_prediction_accuracy 92.5901
Core_0_branch_MPKI 8.73096
Core_0_average_ROB_occupancy_at_mispredict 62.3934

Core_0_ITLB_total_access 324027
Core_0_ITLB_total_hit 324027
Core_0_ITLB_total_miss 0
Core_0_ITLB_total_MPKI 0
Core_0_ITLB_total_miss_rate 0
Core_0_ITLB_demand_access 324027
Core_0_ITLB_demand_hit 324027
Core_0_ITLB_demand_miss 0
Core_0_ITLB_demand_MPKI 0
Core_0_ITLB_demand_miss_rate 0
Core_0_ITLB_load_access 324027
Core_0_ITLB_load_hit 324027
Core_0_ITLB_load_miss 0
Core_0_ITLB_load_MPKI 0
Core_0_ITLB_load_miss_rate 0
Core_0_ITLB_rfo_access 0
Core_0_ITLB_rfo_hit 0
Core_0_ITLB_rfo_miss 0
Core_0_ITLB_rfo_MPKI 0
Core_0_ITLB_rfo_miss_rate 0
Core_0_ITLB_prefetch_access 0
Core_0_ITLB_prefetch_hit 0
Core_0_ITLB_prefetch_miss 0
Core_0_ITLB_prefetch_MPKI 0
Core_0_ITLB_prefetch_miss_rate 0
Core_0_ITLB_writeback_access 0
Core_0_ITLB_writeback_hit 0
Core_0_ITLB_writeback_miss 0
Core_0_ITLB_writeback_MPKI 0
Core_0_ITLB_writeback_miss_rate 0
Core_0_ITLB_prefetch_requested 0
Core_0_ITLB_prefetch_issued 0
Core_0_ITLB_prefetch_useful 0
Core_0_ITLB_prefetch_useless 0
Core_0_ITLB_prefetch_late 0
Core_0_ITLB_prefetch_accuracy 0
Core_0_ITLB_prefetch_coverage 0

Core_0_DTLB_total_access 13647680
Core_0_DTLB_total_hit 13412030
Core_0_DTLB_total_miss 235650
Core_0_DTLB_total_MPKI 4.713
Core_0_DTLB_total_miss_rate 0.0172667
Core_0_DTLB_demand_access 13647680
Core_0_DTLB_demand_hit 13412030
Core_0_DTLB_demand_miss 235650
Core_0_DTLB_demand_MPKI 4.713
Core_0_DTLB_demand_miss_rate 0.0172667
Core_0_DTLB_load_access 13647680
Core_0_DTLB_load_hit 13412030
Core_0_DTLB_load_miss 235650
Core_0_DTLB_load_MPKI 4.713
Core_0_DTLB_load_miss_rate 0.0172667
Core_0_DTLB_rfo_access 0
Core_0_DTLB_rfo_hit 0
Core_0_DTLB_rfo_miss 0
Core_0_DTLB_rfo_MPKI 0
Core_0_DTLB_rfo_miss_rate 0
Core_0_DTLB_prefetch_access 0
Core_0_DTLB_prefetch_hit 0
Core_0_DTLB_prefetch_miss 0
Core_0_DTLB_prefetch_MPKI 0
Core_0_DTLB_prefetch_miss_rate 0
Core_0_DTLB_writeback_access 0
Core_0_DTLB_writeback_hit 0
Core_0_DTLB_writeback_miss 0
Core_0_DTLB_writeback_MPKI 0
Core_0_DTLB_writeback_miss_rate 0
Core_0_DTLB_prefetch_requested 0
Core_0_DTLB_prefetch_issued 0
Core_0_DTLB_prefetch_useful 0
Core_0_DTLB_prefetch_useless 0
Core_0_DTLB_prefetch_late 0
Core_0_DTLB_prefetch_accuracy 0
Core_0_DTLB_prefetch_coverage 0

Core_0_STLB_total_access 17699
Core_0_STLB_total_hit 0
Core_0_STLB_total_miss 17699
Core_0_STLB_total_MPKI 0.35398
Core_0_STLB_total_miss_rate 1
Core_0_STLB_demand_access 17699
Core_0_STLB_demand_hit 0
Core_0_STLB_demand_miss 17699
Core_0_STLB_demand_MPKI 0.35398
Core_0_STLB_demand_miss_rate 1
Core_0_STLB_load_access 17699
Core_0_STLB_load_hit 0
Core_0_STLB_load_miss 17699
Core_0_STLB_load_MPKI 0.35398
Core_0_STLB_load_miss_rate 1
Core_0_STLB_rfo_access 0
Core_0_STLB_rfo_hit 0
Core_0_STLB_rfo_miss 0
Core_0_STLB_rfo_MPKI 0
Core_0_STLB_rfo_miss_rate 0
Core_0_STLB_prefetch_access 0
Core_0_STLB_prefetch_hit 0
Core_0_STLB_prefetch_miss 0
Core_0_STLB_prefetch_MPKI 0
Core_0_STLB_prefetch_miss_rate 0
Core_0_STLB_writeback_access 0
Core_0_STLB_writeback_hit 0
Core_0_STLB_writeback_miss 0
Core_0_STLB_writeback_MPKI 0
Core_0_STLB_writeback_miss_rate 0
Core_0_STLB_prefetch_requested 0
Core_0_STLB_prefetch_issued 0
Core_0_STLB_prefetch_useful 0
Core_0_STLB_prefetch_useless 0
Core_0_STLB_prefetch_late 0
Core_0_STLB_prefetch_accuracy 0
Core_0_STLB_prefetch_coverage 0

Core_0_L1I_total_access 324027
Core_0_L1I_total_hit 324027
Core_0_L1I_total_miss 0
Core_0_L1I_total_MPKI 0
Core_0_L1I_total_miss_rate 0
Core_0_L1I_demand_access 324027
Core_0_L1I_demand_hit 324027
Core_0_L1I_demand_miss 0
Core_0_L1I_demand_MPKI 0
Core_0_L1I_demand_miss_rate 0
Core_0_L1I_load_access 324027
Core_0_L1I_load_hit 324027
Core_0_L1I_load_miss 0
Core_0_L1I_load_MPKI 0
Core_0_L1I_load_miss_rate 0
Core_0_L1I_rfo_access 0
Core_0_L1I_rfo_hit 0
Core_0_L1I_rfo_miss 0
Core_0_L1I_rfo_MPKI 0
Core_0_L1I_rfo_miss_rate 0
Core_0_L1I_prefetch_access 0
Core_0_L1I_prefetch_hit 0
Core_0_L1I_prefetch_miss 0
Core_0_L1I_prefetch_MPKI 0
Core_0_L1I_prefetch_miss_rate 0
Core_0_L1I_writeback_access 0
Core_0_L1I_writeback_hit 0
Core_0_L1I_writeback_miss 0
Core_0_L1I_writeback_MPKI 0
Core_0_L1I_writeback_miss_rate 0
Core_0_L1I_prefetch_requested 0
Core_0_L1I_prefetch_issued 0
Core_0_L1I_prefetch_useful 0
Core_0_L1I_prefetch_useless 0
Core_0_L1I_prefetch_late 0
Core_0_L1I_prefetch_accuracy 0
Core_0_L1I_prefetch_coverage 0

Core_0_L1D_total_access 14875288
Core_0_L1D_total_hit 4222204
Core_0_L1D_total_miss 10653084
Core_0_L1D_total_MPKI 213.062
Core_0_L1D_total_miss_rate 0.71616
Core_0_L1D_demand_access 4382841
Core_0_L1D_demand_hit 4116498
Core_0_L1D_demand_miss 266343
Core_0_L1D_demand_MPKI 5.32686
Core_0_L1D_demand_miss_rate 0.0607695
Core_0_L1D_load_access 4382841
Core_0_L1D_load_hit 4116498
Core_0_L1D_load_miss 266343
Core_0_L1D_load_MPKI 5.32686
Core_0_L1D_load_miss_rate 0.0607695
Core_0_L1D_rfo_access 0
Core_0_L1D_rfo_hit 0
Core_0_L1D_rfo_miss 0
Core_0_L1D_rfo_MPKI 0
Core_0_L1D_rfo_miss_rate 0
Core_0_L1D_prefetch_access 508481
Core_0_L1D_prefetch_hit 10484
Core_0_L1D_prefetch_miss 497997
Core_0_L1D_prefetch_MPKI 9.95994
Core_0_L1D_prefetch_miss_rate 0.979382
Core_0_L1D_writeback_access 9983966
Core_0_L1D_writeback_hit 95222
Core_0_L1D_writeback_miss 9888744
Core_0_L1D_writeback_MPKI 197.775
Core_0_L1D_writeback_miss_rate 0.990463
Core_0_L1D_prefetch_requested 508747
Core_0_L1D_prefetch_issued 508473
Core_0_L1D_prefetch_useful 486319
Core_0_L1D_prefetch_useless 2
Core_0_L1D_prefetch_late 28397
Core_0_L1D_prefetch_accuracy 0.95643
Core_0_L1D_prefetch_coverage 0.646132

Core_0_L2C_total_access 2125376
Core_0_L2C_total_hit 689709
Core_0_L2C_total_miss 1435667
Core_0_L2C_total_MPKI 28.7133
Core_0_L2C_total_miss_rate 0.675488
Core_0_L2C_demand_access 646432
Core_0_L2C_demand_hit 2712
Core_0_L2C_demand_miss 643720
Core_0_L2C_demand_MPKI 12.8744
Core_0_L2C_demand_miss_rate 0.995805
Core_0_L2C_load_access 22434
Core_0_L2C_load_hit 2712
Core_0_L2C_load_miss 19722
Core_0_L2C_load_MPKI 0.39444
Core_0_L2C_load_miss_rate 0.879112
Core_0_L2C_rfo_access 623998
Core_0_L2C_rfo_hit 0
Core_0_L2C_rfo_miss 623998
Core_0_L2C_rfo_MPKI 12.48
Core_0_L2C_rfo_miss_rate 1
Core_0_L2C_prefetch_access 854875
Core_0_L2C_prefetch_hit 62928
Core_0_L2C_prefetch_miss 791947
Core_0_L2C_prefetch_MPKI 15.8389
Core_0_L2C_prefetch_miss_rate 0.926389
Core_0_L2C_writeback_access 624069
Core_0_L2C_writeback_hit 624069
Core_0_L2C_writeback_miss 0
Core_0_L2C_writeback_MPKI 0
Core_0_L2C_writeback_miss_rate 0
Core_0_L2C_prefetch_requested 368542
Core_0_L2C_prefetch_issued 368542
Core_0_L2C_prefetch_useful 56360
Core_0_L2C_prefetch_useless 126840
Core_0_L2C_prefetch_late 188
Core_0_L2C_prefetch_accuracy 0.152927
Core_0_L2C_prefetch_coverage 0.0805051

Core_0_LLC_total_access 1815034
Core_0_LLC_total_hit 544791
Core_0_LLC_total_miss 1270243
Core_0_LLC_total_MPKI 25.4049
Core_0_LLC_total_miss_rate 0.699845
Core_0_LLC_demand_access 643532
Core_0_LLC_demand_hit 366
Core_0_LLC_demand_miss 643166
Core_0_LLC_demand_MPKI 12.8633
Core_0_LLC_demand_miss_rate 0.999431
Core_0_LLC_load_access 19534
Core_0_LLC_load_hit 366
Core_0_LLC_load_miss 19168
Core_0_LLC_load_MPKI 0.38336
Core_0_LLC_load_miss_rate 0.981263
Core_0_LLC_rfo_access 623998
Core_0_LLC_rfo_hit 0
Core_0_LLC_rfo_miss 623998
Core_0_LLC_rfo_MPKI 12.48
Core_0_LLC_rfo_miss_rate 1
Core_0_LLC_prefetch_access 545928
Core_0_LLC_prefetch_hit 10539
Core_0_LLC_prefetch_miss 535389
Core_0_LLC_prefetch_MPKI 10.7078
Core_0_LLC_prefetch_miss_rate 0.980695
Core_0_LLC_writeback_access 625574
Core_0_LLC_writeback_hit 533886
Core_0_LLC_writeback_miss 91688
Core_0_LLC_writeback_MPKI 1.83376
Core_0_LLC_writeback_miss_rate 0.146566
Core_0_LLC_prefetch_requested 0
Core_0_LLC_prefetch_issued 0
Core_0_LLC_prefetch_useful 0
Core_0_LLC_prefetch_useless 0
Core_0_LLC_prefetch_late 0
Core_0_LLC_prefetch_accuracy 0
Core_0_LLC_prefetch_coverage 0

[DRAM Statistics]
Channel_0_RQ_row_buffer_hit 62292
Channel_0_RQ_row_buffer_miss 1072719
Channel_0_WQ_row_buffer_hit 68256
Channel_0_WQ_row_buffer_miss 559645
Channel_0_WQ_full 0
Channel_0_dbus_congested 5964288
DRAM_total_RQ_row_buffer_hit 62292
DRAM_total_RQ_row_buffer_miss 1072719
DRAM_total_WQ_row_buffer_hit 68256
DRAM_total_WQ_row_buffer_miss 559645
DRAM_total_WQ_full 0
DRAM_total_dbus_congested 5964288
DRAM_avg_congested_cycle 7.15873

======STLB miss causes ========
Core_0_STLB_miss_cause_breakdown
Core_0_STLB_cause_Demand_Data_miss 17341
Core_0_STLB_cause_Demand_Data_miss_rate 0.979773
Core_0_STLB_cause_Demand_Instruction_miss 0
Core_0_STLB_cause_Demand_Instruction_miss_rate 0
Core_0_STLB_cause_L1D_Prefetch_miss 358
Core_0_STLB_cause_L1D_Prefetch_miss_rate 0.0202271
Core_0_STLB_cause_L1I_Prefetch_miss 0
Core_0_STLB_cause_L1I_Prefetch_miss_rate 0
Core_0_STLB_cause_Other_miss 0
Core_0_STLB_cause_Other_miss_rate 0
Core_0_STLB_Demand_miss 17341
Core_0_STLB_Demand_miss_rate 0.979773
Core_0_STLB_L1D_Prefetch_miss 358
Core_0_STLB_L1D_Prefetch_miss_rate 0.0202271
Core_0_STLB_Other_miss 0
Core_0_STLB_Other_miss_rate 0
