[VMEM] WARNING: physical memory size is smaller than virtual memory size.

*** ChampSim Multicore Out-of-Order Simulator ***
Warmup Instructions: 50000000
Simulation Instructions: 100000000
Number of CPUs: 1
Page size: 4096
Core 0: /data0/tzh/champsim_traces/SPEC06/459.GemsFDTD-765B.champsimtrace.xz
VBerti Prefetcher
BERTI HASH ENTANGLING
BERTI IP MASK ffff
Off-chip DRAM Size: 16 GiB Channels: 1 Width: 64-bit Data Rate: 3205 MT/s
Warmup halting CPU 0 at instruction 50000004 cycle 17566249 for remainder of phase
Warmup finished CPU 0 instructions: 50000004 cycles: 17566249 cumulative IPC: 2.846 (Simulation time: 00 hr 04 min 14 sec)
Warmup complete CPU 0 instructions: 50000004 cycles: 17566249 cumulative IPC: 2.846 (Simulation time: 00 hr 04 min 14 sec)
Simulation finished CPU 0 instructions: 100000005 cycles: 96260873 cumulative IPC: 1.039 (Simulation time: 00 hr 20 min 04 sec)
Simulation complete CPU 0 instructions: 100000005 cycles: 96260873 cumulative IPC: 1.039 (Simulation time: 00 hr 20 min 04 sec)

ChampSim completed all CPUs

=== Simulation ===
CPU 0 runs /data0/tzh/champsim_traces/SPEC06/459.GemsFDTD-765B.champsimtrace.xz

Region of Interest Statistics

CPU 0 cumulative IPC: 1.039 instructions: 100000005 cycles: 96260873
CPU 0 Branch Prediction Accuracy: 99.95% MPKI: 0.00296 Average ROB Occupancy at Mispredict: 318.5
Branch type MPKI
BRANCH_DIRECT_JUMP: 6e-05
BRANCH_INDIRECT: 0
BRANCH_CONDITIONAL: 0.0029
BRANCH_DIRECT_CALL: 0
BRANCH_INDIRECT_CALL: 0
BRANCH_RETURN: 0

cpu0->cpu0_STLB TOTAL        ACCESS:     538759 HIT:     310259 MISS:     228500 MSHR_MERGE:          0
cpu0->cpu0_STLB LOAD         ACCESS:     538759 HIT:     310259 MISS:     228500 MSHR_MERGE:          0
cpu0->cpu0_STLB RFO          ACCESS:          0 HIT:          0 MISS:          0 MSHR_MERGE:          0
cpu0->cpu0_STLB PREFETCH     ACCESS:          0 HIT:          0 MISS:          0 MSHR_MERGE:          0
cpu0->cpu0_STLB WRITE        ACCESS:          0 HIT:          0 MISS:          0 MSHR_MERGE:          0
cpu0->cpu0_STLB TRANSLATION  ACCESS:          0 HIT:          0 MISS:          0 MSHR_MERGE:          0
cpu0->cpu0_STLB PREFETCH REQUESTED:          0 ISSUED:          0 USEFUL:          0 USELESS:          0 LATE:          0 TOO_EARLY:          0
cpu0->cpu0_STLB AVERAGE MISS LATENCY: 114.5 cycles
cpu0->cpu0_L2C TOTAL        ACCESS:    3350309 HIT:    1786623 MISS:    1563686 MSHR_MERGE:      75901
cpu0->cpu0_L2C LOAD         ACCESS:     719144 HIT:     197881 MISS:     521263 MSHR_MERGE:       5235
cpu0->cpu0_L2C RFO          ACCESS:       1661 HIT:       1652 MISS:          9 MSHR_MERGE:          0
cpu0->cpu0_L2C PREFETCH     ACCESS:    1977906 HIT:     965707 MISS:    1012199 MSHR_MERGE:      70666
cpu0->cpu0_L2C WRITE        ACCESS:     618725 HIT:     618718 MISS:          7 MSHR_MERGE:          0
cpu0->cpu0_L2C TRANSLATION  ACCESS:      32873 HIT:       2665 MISS:      30208 MSHR_MERGE:          0
cpu0->cpu0_L2C PREFETCH REQUESTED:     298708 ISSUED:     298708 USEFUL:      64404 USELESS:      93396 LATE:         17 TOO_EARLY:        125
cpu0->cpu0_L2C AVERAGE MISS LATENCY: 302 cycles
cpu0->cpu0_L1I TOTAL        ACCESS:   29114097 HIT:   29113947 MISS:        150 MSHR_MERGE:         62
cpu0->cpu0_L1I LOAD         ACCESS:   29114097 HIT:   29113947 MISS:        150 MSHR_MERGE:         62
cpu0->cpu0_L1I RFO          ACCESS:          0 HIT:          0 MISS:          0 MSHR_MERGE:          0
cpu0->cpu0_L1I PREFETCH     ACCESS:          0 HIT:          0 MISS:          0 MSHR_MERGE:          0
cpu0->cpu0_L1I WRITE        ACCESS:          0 HIT:          0 MISS:          0 MSHR_MERGE:          0
cpu0->cpu0_L1I TRANSLATION  ACCESS:          0 HIT:          0 MISS:          0 MSHR_MERGE:          0
cpu0->cpu0_L1I PREFETCH REQUESTED:          0 ISSUED:          0 USEFUL:          0 USELESS:          0 LATE:          0 TOO_EARLY:          0
cpu0->cpu0_L1I AVERAGE MISS LATENCY: 232 cycles
cpu0->cpu0_L1D TOTAL        ACCESS:   57098247 HIT:   54560041 MISS:    2538206 MSHR_MERGE:     104474
cpu0->cpu0_L1D LOAD         ACCESS:   41931054 HIT:   41125747 MISS:     805307 MSHR_MERGE:      86251
cpu0->cpu0_L1D RFO          ACCESS:          0 HIT:          0 MISS:          0 MSHR_MERGE:          0
cpu0->cpu0_L1D PREFETCH     ACCESS:    7402183 HIT:    5721024 MISS:    1681159 MSHR_MERGE:       1043
cpu0->cpu0_L1D WRITE        ACCESS:    7334181 HIT:    7324421 MISS:       9760 MSHR_MERGE:       8073
cpu0->cpu0_L1D TRANSLATION  ACCESS:     430829 HIT:     388849 MISS:      41980 MSHR_MERGE:       9107
cpu0->cpu0_L1D PREFETCH REQUESTED:   45672233 ISSUED:   13630934 USEFUL:     614829 USELESS:     137113 LATE:       1444 TOO_EARLY:         18
cpu0->cpu0_L1D AVERAGE MISS LATENCY: 229.4 cycles
cpu0->cpu0_ITLB TOTAL        ACCESS:   25105726 HIT:   25105720 MISS:          6 MSHR_MERGE:          5
cpu0->cpu0_ITLB LOAD         ACCESS:   25105726 HIT:   25105720 MISS:          6 MSHR_MERGE:          5
cpu0->cpu0_ITLB RFO          ACCESS:          0 HIT:          0 MISS:          0 MSHR_MERGE:          0
cpu0->cpu0_ITLB PREFETCH     ACCESS:          0 HIT:          0 MISS:          0 MSHR_MERGE:          0
cpu0->cpu0_ITLB WRITE        ACCESS:          0 HIT:          0 MISS:          0 MSHR_MERGE:          0
cpu0->cpu0_ITLB TRANSLATION  ACCESS:          0 HIT:          0 MISS:          0 MSHR_MERGE:          0
cpu0->cpu0_ITLB PREFETCH REQUESTED:          0 ISSUED:          0 USEFUL:          0 USELESS:          0 LATE:          0 TOO_EARLY:          0
cpu0->cpu0_ITLB AVERAGE MISS LATENCY: 691 cycles
cpu0->cpu0_DTLB TOTAL        ACCESS:   58819231 HIT:   58125717 MISS:     693514 MSHR_MERGE:     154756
cpu0->cpu0_DTLB LOAD         ACCESS:   58819231 HIT:   58125717 MISS:     693514 MSHR_MERGE:     154756
cpu0->cpu0_DTLB RFO          ACCESS:          0 HIT:          0 MISS:          0 MSHR_MERGE:          0
cpu0->cpu0_DTLB PREFETCH     ACCESS:          0 HIT:          0 MISS:          0 MSHR_MERGE:          0
cpu0->cpu0_DTLB WRITE        ACCESS:          0 HIT:          0 MISS:          0 MSHR_MERGE:          0
cpu0->cpu0_DTLB TRANSLATION  ACCESS:          0 HIT:          0 MISS:          0 MSHR_MERGE:          0
cpu0->cpu0_DTLB PREFETCH REQUESTED:          0 ISSUED:          0 USEFUL:          0 USELESS:          0 LATE:          0 TOO_EARLY:          0
cpu0->cpu0_DTLB AVERAGE MISS LATENCY: 54 cycles
cpu0->LLC TOTAL        ACCESS:    2104936 HIT:     634850 MISS:    1470086 MSHR_MERGE:       1761
cpu0->LLC LOAD         ACCESS:     516028 HIT:      25575 MISS:     490453 MSHR_MERGE:          1
cpu0->LLC RFO          ACCESS:          9 HIT:          0 MISS:          9 MSHR_MERGE:          0
cpu0->LLC PREFETCH     ACCESS:     941531 HIT:      66241 MISS:     875290 MSHR_MERGE:       1760
cpu0->LLC WRITE        ACCESS:     617160 HIT:     542668 MISS:      74492 MSHR_MERGE:          0
cpu0->LLC TRANSLATION  ACCESS:      30208 HIT:        366 MISS:      29842 MSHR_MERGE:          0
cpu0->LLC PREFETCH REQUESTED:          0 ISSUED:          0 USEFUL:          0 USELESS:          0 LATE:          0 TOO_EARLY:          0
cpu0->LLC AVERAGE MISS LATENCY: 265.1 cycles

DRAM Statistics

Channel 0 RQ ROW_BUFFER_HIT:      20222
  ROW_BUFFER_MISS:    1373612
  AVG DBUS CONGESTED CYCLE: 9.81
Channel 0 WQ ROW_BUFFER_HIT:     124774
  ROW_BUFFER_MISS:     494738
  FULL:          0
Channel 0 REFRESHES ISSUED:       8022

[ROI Statistics]
[System Configuration]
num_cpus 1
cpu_freq 4000
fetch_width 6
decode_width 6
dispatch_width 6
execute_width 6
lq_width 2
sq_width 2
retire_width 6
scheduler_size 128
branch_mispredict_penalty 15
rob_size 352
lq_size 128
sq_size 72
ifetch_buffer_size 64
decode_buffer_size 32
dispatch_buffer_size 32
register_file_size 288
decode_latency 1
dispatch_latency 1
schedule_latency 1
execute_latency 1
page_size 4096
block_size 64
core_0_itlb_set 16
core_0_itlb_way 4
core_0_itlb_rq_size 16
core_0_itlb_wq_size 16
core_0_itlb_pq_size 0
core_0_itlb_mshr_size 8
core_0_itlb_hit_latency 1
core_0_itlb_fill_latency 1
core_0_itlb_max_tag_check 2
core_0_itlb_max_fill 2
core_0_dtlb_set 16
core_0_dtlb_way 4
core_0_dtlb_rq_size 16
core_0_dtlb_wq_size 16
core_0_dtlb_pq_size 0
core_0_dtlb_mshr_size 8
core_0_dtlb_hit_latency 1
core_0_dtlb_fill_latency 1
core_0_dtlb_max_tag_check 2
core_0_dtlb_max_fill 2
core_0_stlb_set 128
core_0_stlb_way 12
core_0_stlb_rq_size 32
core_0_stlb_wq_size 32
core_0_stlb_pq_size 0
core_0_stlb_mshr_size 16
core_0_stlb_hit_latency 4
core_0_stlb_fill_latency 4
core_0_stlb_max_tag_check 1
core_0_stlb_max_fill 1
core_0_l1i_set 64
core_0_l1i_way 8
core_0_l1i_rq_size 64
core_0_l1i_wq_size 64
core_0_l1i_pq_size 32
core_0_l1i_mshr_size 8
core_0_l1i_hit_latency 2
core_0_l1i_fill_latency 2
core_0_l1i_max_tag_check 2
core_0_l1i_max_fill 2
core_0_l1d_set 64
core_0_l1d_way 12
core_0_l1d_rq_size 64
core_0_l1d_wq_size 64
core_0_l1d_pq_size 8
core_0_l1d_mshr_size 16
core_0_l1d_hit_latency 2
core_0_l1d_fill_latency 3
core_0_l1d_max_tag_check 2
core_0_l1d_max_fill 2
core_0_l2c_set 1024
core_0_l2c_way 8
core_0_l2c_rq_size 32
core_0_l2c_wq_size 32
core_0_l2c_pq_size 16
core_0_l2c_mshr_size 32
core_0_l2c_hit_latency 5
core_0_l2c_fill_latency 5
core_0_l2c_max_tag_check 1
core_0_l2c_max_fill 1
llc_set 2048
llc_way 16
llc_rq_size 32
llc_wq_size 32
llc_pq_size 32
llc_mshr_size 64
llc_hit_latency 10
llc_fill_latency 10
llc_max_tag_check 1
llc_max_fill 1
dram_channels 1
dram_ranks 1
dram_bankgroups 8
dram_banks 4
dram_rows 65536
dram_columns 1024
dram_channel_width 8
dram_rq_size 64
dram_wq_size 64
dram_size 17179869184
core_0_itlb_prefetcher no
core_0_dtlb_prefetcher no
core_0_stlb_prefetcher no
core_0_l1i_prefetcher next_line
core_0_l1d_prefetcher vberti
core_0_l2c_prefetcher ip_stride
llc_prefetcher no
llc_replacement drrip

Core_0_instructions 100000005
Core_0_cycles 96260873
Core_0_IPC 1.03884
Core_0_branch_prediction_accuracy 99.9487
Core_0_branch_MPKI 0.00296
Core_0_average_ROB_occupancy_at_mispredict 318.537

Core_0_ITLB_total_access 25105726
Core_0_ITLB_total_hit 25105720
Core_0_ITLB_total_miss 6
Core_0_ITLB_total_MPKI 6e-05
Core_0_ITLB_total_miss_rate 2.38989e-07
Core_0_ITLB_demand_access 25105726
Core_0_ITLB_demand_hit 25105720
Core_0_ITLB_demand_miss 6
Core_0_ITLB_demand_MPKI 6e-05
Core_0_ITLB_demand_miss_rate 2.38989e-07
Core_0_ITLB_load_access 25105726
Core_0_ITLB_load_hit 25105720
Core_0_ITLB_load_miss 6
Core_0_ITLB_load_MPKI 6e-05
Core_0_ITLB_load_miss_rate 2.38989e-07
Core_0_ITLB_rfo_access 0
Core_0_ITLB_rfo_hit 0
Core_0_ITLB_rfo_miss 0
Core_0_ITLB_rfo_MPKI 0
Core_0_ITLB_rfo_miss_rate 0
Core_0_ITLB_prefetch_access 0
Core_0_ITLB_prefetch_hit 0
Core_0_ITLB_prefetch_miss 0
Core_0_ITLB_prefetch_MPKI 0
Core_0_ITLB_prefetch_miss_rate 0
Core_0_ITLB_writeback_access 0
Core_0_ITLB_writeback_hit 0
Core_0_ITLB_writeback_miss 0
Core_0_ITLB_writeback_MPKI 0
Core_0_ITLB_writeback_miss_rate 0
Core_0_ITLB_prefetch_requested 0
Core_0_ITLB_prefetch_issued 0
Core_0_ITLB_prefetch_useful 0
Core_0_ITLB_prefetch_useless 0
Core_0_ITLB_prefetch_late 0
Core_0_ITLB_prefetch_fill 0
Core_0_ITLB_prefetch_too_early 0
Core_0_ITLB_prefetch_too_early_among_fill 0
Core_0_ITLB_prefetch_too_early_among_useless 0
Core_0_ITLB_prefetch_pollution_evict 0
Core_0_ITLB_prefetch_pollution_demand 0
Core_0_ITLB_prefetch_pollution_among_prefetch_fill 0
Core_0_ITLB_prefetch_accuracy 0
Core_0_ITLB_prefetch_coverage 0

Core_0_DTLB_total_access 58819231
Core_0_DTLB_total_hit 58125717
Core_0_DTLB_total_miss 693514
Core_0_DTLB_total_MPKI 6.93514
Core_0_DTLB_total_miss_rate 0.0117906
Core_0_DTLB_demand_access 58819231
Core_0_DTLB_demand_hit 58125717
Core_0_DTLB_demand_miss 693514
Core_0_DTLB_demand_MPKI 6.93514
Core_0_DTLB_demand_miss_rate 0.0117906
Core_0_DTLB_load_access 58819231
Core_0_DTLB_load_hit 58125717
Core_0_DTLB_load_miss 693514
Core_0_DTLB_load_MPKI 6.93514
Core_0_DTLB_load_miss_rate 0.0117906
Core_0_DTLB_rfo_access 0
Core_0_DTLB_rfo_hit 0
Core_0_DTLB_rfo_miss 0
Core_0_DTLB_rfo_MPKI 0
Core_0_DTLB_rfo_miss_rate 0
Core_0_DTLB_prefetch_access 0
Core_0_DTLB_prefetch_hit 0
Core_0_DTLB_prefetch_miss 0
Core_0_DTLB_prefetch_MPKI 0
Core_0_DTLB_prefetch_miss_rate 0
Core_0_DTLB_writeback_access 0
Core_0_DTLB_writeback_hit 0
Core_0_DTLB_writeback_miss 0
Core_0_DTLB_writeback_MPKI 0
Core_0_DTLB_writeback_miss_rate 0
Core_0_DTLB_prefetch_requested 0
Core_0_DTLB_prefetch_issued 0
Core_0_DTLB_prefetch_useful 0
Core_0_DTLB_prefetch_useless 0
Core_0_DTLB_prefetch_late 0
Core_0_DTLB_prefetch_fill 0
Core_0_DTLB_prefetch_too_early 0
Core_0_DTLB_prefetch_too_early_among_fill 0
Core_0_DTLB_prefetch_too_early_among_useless 0
Core_0_DTLB_prefetch_pollution_evict 0
Core_0_DTLB_prefetch_pollution_demand 0
Core_0_DTLB_prefetch_pollution_among_prefetch_fill 0
Core_0_DTLB_prefetch_accuracy 0
Core_0_DTLB_prefetch_coverage 0

Core_0_STLB_total_access 538759
Core_0_STLB_total_hit 310259
Core_0_STLB_total_miss 228500
Core_0_STLB_total_MPKI 2.285
Core_0_STLB_total_miss_rate 0.424123
Core_0_STLB_demand_access 538759
Core_0_STLB_demand_hit 310259
Core_0_STLB_demand_miss 228500
Core_0_STLB_demand_MPKI 2.285
Core_0_STLB_demand_miss_rate 0.424123
Core_0_STLB_load_access 538759
Core_0_STLB_load_hit 310259
Core_0_STLB_load_miss 228500
Core_0_STLB_load_MPKI 2.285
Core_0_STLB_load_miss_rate 0.424123
Core_0_STLB_rfo_access 0
Core_0_STLB_rfo_hit 0
Core_0_STLB_rfo_miss 0
Core_0_STLB_rfo_MPKI 0
Core_0_STLB_rfo_miss_rate 0
Core_0_STLB_prefetch_access 0
Core_0_STLB_prefetch_hit 0
Core_0_STLB_prefetch_miss 0
Core_0_STLB_prefetch_MPKI 0
Core_0_STLB_prefetch_miss_rate 0
Core_0_STLB_writeback_access 0
Core_0_STLB_writeback_hit 0
Core_0_STLB_writeback_miss 0
Core_0_STLB_writeback_MPKI 0
Core_0_STLB_writeback_miss_rate 0
Core_0_STLB_prefetch_requested 0
Core_0_STLB_prefetch_issued 0
Core_0_STLB_prefetch_useful 0
Core_0_STLB_prefetch_useless 0
Core_0_STLB_prefetch_late 0
Core_0_STLB_prefetch_fill 0
Core_0_STLB_prefetch_too_early 0
Core_0_STLB_prefetch_too_early_among_fill 0
Core_0_STLB_prefetch_too_early_among_useless 0
Core_0_STLB_prefetch_pollution_evict 0
Core_0_STLB_prefetch_pollution_demand 0
Core_0_STLB_prefetch_pollution_among_prefetch_fill 0
Core_0_STLB_prefetch_accuracy 0
Core_0_STLB_prefetch_coverage 0

Core_0_L1I_total_access 29114097
Core_0_L1I_total_hit 29113947
Core_0_L1I_total_miss 150
Core_0_L1I_total_MPKI 0.0015
Core_0_L1I_total_miss_rate 5.15214e-06
Core_0_L1I_demand_access 29114097
Core_0_L1I_demand_hit 29113947
Core_0_L1I_demand_miss 150
Core_0_L1I_demand_MPKI 0.0015
Core_0_L1I_demand_miss_rate 5.15214e-06
Core_0_L1I_load_access 29114097
Core_0_L1I_load_hit 29113947
Core_0_L1I_load_miss 150
Core_0_L1I_load_MPKI 0.0015
Core_0_L1I_load_miss_rate 5.15214e-06
Core_0_L1I_rfo_access 0
Core_0_L1I_rfo_hit 0
Core_0_L1I_rfo_miss 0
Core_0_L1I_rfo_MPKI 0
Core_0_L1I_rfo_miss_rate 0
Core_0_L1I_prefetch_access 0
Core_0_L1I_prefetch_hit 0
Core_0_L1I_prefetch_miss 0
Core_0_L1I_prefetch_MPKI 0
Core_0_L1I_prefetch_miss_rate 0
Core_0_L1I_writeback_access 0
Core_0_L1I_writeback_hit 0
Core_0_L1I_writeback_miss 0
Core_0_L1I_writeback_MPKI 0
Core_0_L1I_writeback_miss_rate 0
Core_0_L1I_prefetch_requested 0
Core_0_L1I_prefetch_issued 0
Core_0_L1I_prefetch_useful 0
Core_0_L1I_prefetch_useless 0
Core_0_L1I_prefetch_late 0
Core_0_L1I_prefetch_fill 0
Core_0_L1I_prefetch_too_early 0
Core_0_L1I_prefetch_too_early_among_fill 0
Core_0_L1I_prefetch_too_early_among_useless 0
Core_0_L1I_prefetch_pollution_evict 0
Core_0_L1I_prefetch_pollution_demand 0
Core_0_L1I_prefetch_pollution_among_prefetch_fill 0
Core_0_L1I_prefetch_accuracy 0
Core_0_L1I_prefetch_coverage 0

Core_0_L1D_total_access 56667418
Core_0_L1D_total_hit 54171192
Core_0_L1D_total_miss 2496226
Core_0_L1D_total_MPKI 24.9623
Core_0_L1D_total_miss_rate 0.0440505
Core_0_L1D_demand_access 41931054
Core_0_L1D_demand_hit 41125747
Core_0_L1D_demand_miss 805307
Core_0_L1D_demand_MPKI 8.05307
Core_0_L1D_demand_miss_rate 0.0192055
Core_0_L1D_load_access 41931054
Core_0_L1D_load_hit 41125747
Core_0_L1D_load_miss 805307
Core_0_L1D_load_MPKI 8.05307
Core_0_L1D_load_miss_rate 0.0192055
Core_0_L1D_rfo_access 0
Core_0_L1D_rfo_hit 0
Core_0_L1D_rfo_miss 0
Core_0_L1D_rfo_MPKI 0
Core_0_L1D_rfo_miss_rate 0
Core_0_L1D_prefetch_access 7402183
Core_0_L1D_prefetch_hit 5721024
Core_0_L1D_prefetch_miss 1681159
Core_0_L1D_prefetch_MPKI 16.8116
Core_0_L1D_prefetch_miss_rate 0.227117
Core_0_L1D_writeback_access 7334181
Core_0_L1D_writeback_hit 7324421
Core_0_L1D_writeback_miss 9760
Core_0_L1D_writeback_MPKI 0.0976
Core_0_L1D_writeback_miss_rate 0.00133076
Core_0_L1D_prefetch_requested 45672233
Core_0_L1D_prefetch_issued 13630934
Core_0_L1D_prefetch_useful 614829
Core_0_L1D_prefetch_useless 137113
Core_0_L1D_prefetch_late 1444
Core_0_L1D_prefetch_fill 750557
Core_0_L1D_prefetch_too_early 18
Core_0_L1D_prefetch_too_early_among_fill 2.39822e-05
Core_0_L1D_prefetch_too_early_among_useless 0.000131279
Core_0_L1D_prefetch_pollution_evict 17143
Core_0_L1D_prefetch_pollution_demand 17141
Core_0_L1D_cross_page_pf_translation_only_requested 24571225
Core_0_L1D_cross_page_pf_translation_only_issued 6228750
Core_0_L1D_cross_page_pf_translation_only_dropped 6228761
Core_0_L1D_prefetch_pollution_among_prefetch_fill 0.0228404
Core_0_L1D_prefetch_accuracy 0.0451054
Core_0_L1D_prefetch_coverage 0.432937

Core_0_L2C_total_access 3317436
Core_0_L2C_total_hit 1783958
Core_0_L2C_total_miss 1533478
Core_0_L2C_total_MPKI 15.3348
Core_0_L2C_total_miss_rate 0.462248
Core_0_L2C_demand_access 720805
Core_0_L2C_demand_hit 199533
Core_0_L2C_demand_miss 521272
Core_0_L2C_demand_MPKI 5.21272
Core_0_L2C_demand_miss_rate 0.72318
Core_0_L2C_load_access 719144
Core_0_L2C_load_hit 197881
Core_0_L2C_load_miss 521263
Core_0_L2C_load_MPKI 5.21263
Core_0_L2C_load_miss_rate 0.724838
Core_0_L2C_rfo_access 1661
Core_0_L2C_rfo_hit 1652
Core_0_L2C_rfo_miss 9
Core_0_L2C_rfo_MPKI 9e-05
Core_0_L2C_rfo_miss_rate 0.00541842
Core_0_L2C_prefetch_access 1977906
Core_0_L2C_prefetch_hit 965707
Core_0_L2C_prefetch_miss 1012199
Core_0_L2C_prefetch_MPKI 10.122
Core_0_L2C_prefetch_miss_rate 0.511753
Core_0_L2C_writeback_access 618725
Core_0_L2C_writeback_hit 618718
Core_0_L2C_writeback_miss 7
Core_0_L2C_writeback_MPKI 7e-05
Core_0_L2C_writeback_miss_rate 1.13136e-05
Core_0_L2C_prefetch_requested 298708
Core_0_L2C_prefetch_issued 298708
Core_0_L2C_prefetch_useful 64404
Core_0_L2C_prefetch_useless 93396
Core_0_L2C_prefetch_late 17
Core_0_L2C_prefetch_fill 927556
Core_0_L2C_prefetch_too_early 125
Core_0_L2C_prefetch_too_early_among_fill 0.000134763
Core_0_L2C_prefetch_too_early_among_useless 0.00133839
Core_0_L2C_prefetch_pollution_evict 17773
Core_0_L2C_prefetch_pollution_demand 17745
Core_0_L2C_prefetch_pollution_among_prefetch_fill 0.0191611
Core_0_L2C_prefetch_accuracy 0.215609
Core_0_L2C_prefetch_coverage 0.109965

Core_0_LLC_total_access 2074728
Core_0_LLC_total_hit 634484
Core_0_LLC_total_miss 1440244
Core_0_LLC_total_MPKI 14.4024
Core_0_LLC_total_miss_rate 0.694184
Core_0_LLC_demand_access 516037
Core_0_LLC_demand_hit 25575
Core_0_LLC_demand_miss 490462
Core_0_LLC_demand_MPKI 4.90462
Core_0_LLC_demand_miss_rate 0.95044
Core_0_LLC_load_access 516028
Core_0_LLC_load_hit 25575
Core_0_LLC_load_miss 490453
Core_0_LLC_load_MPKI 4.90453
Core_0_LLC_load_miss_rate 0.950439
Core_0_LLC_rfo_access 9
Core_0_LLC_rfo_hit 0
Core_0_LLC_rfo_miss 9
Core_0_LLC_rfo_MPKI 9e-05
Core_0_LLC_rfo_miss_rate 1
Core_0_LLC_prefetch_access 941531
Core_0_LLC_prefetch_hit 66241
Core_0_LLC_prefetch_miss 875290
Core_0_LLC_prefetch_MPKI 8.7529
Core_0_LLC_prefetch_miss_rate 0.929645
Core_0_LLC_writeback_access 617160
Core_0_LLC_writeback_hit 542668
Core_0_LLC_writeback_miss 74492
Core_0_LLC_writeback_MPKI 0.74492
Core_0_LLC_writeback_miss_rate 0.120701
Core_0_LLC_prefetch_requested 0
Core_0_LLC_prefetch_issued 0
Core_0_LLC_prefetch_useful 0
Core_0_LLC_prefetch_useless 0
Core_0_LLC_prefetch_late 0
Core_0_LLC_prefetch_fill 873531
Core_0_LLC_prefetch_too_early 0
Core_0_LLC_prefetch_too_early_among_fill 0
Core_0_LLC_prefetch_too_early_among_useless 0
Core_0_LLC_prefetch_pollution_evict 1429
Core_0_LLC_prefetch_pollution_demand 1429
Core_0_LLC_prefetch_pollution_among_prefetch_fill 0.00163589
Core_0_LLC_prefetch_accuracy 0
Core_0_LLC_prefetch_coverage 0

[DRAM Statistics]
Channel_0_RQ_row_buffer_hit 20222
Channel_0_RQ_row_buffer_miss 1373612
Channel_0_WQ_row_buffer_hit 124774
Channel_0_WQ_row_buffer_miss 494738
Channel_0_WQ_full 0
Channel_0_dbus_congested 5289263
DRAM_total_RQ_row_buffer_hit 20222
DRAM_total_RQ_row_buffer_miss 1373612
DRAM_total_WQ_row_buffer_hit 124774
DRAM_total_WQ_row_buffer_miss 494738
DRAM_total_WQ_full 0
DRAM_total_dbus_congested 5289263
DRAM_avg_congested_cycle 9.81045

====== DRAM_RQ_TRAFFIC ========
DRAM_RQ_READ_TRAFFIC_BREAKDOWN:
data_demand_read.count = 490373
data_demand_read.share = 35.18%

inst_demand_read.count = 88
inst_demand_read.share = 0.01%

cache_inst_prefetch.count = 0
cache_inst_prefetch.share = 0.00%

cache_data_prefetch.count = 873531
cache_data_prefetch.share = 62.67%

stlb_data_demand.count = 1295
stlb_data_demand.share = 0.09%

stlb_inst_demand.count = 2
stlb_inst_demand.share = 0.00%

stlb_l1i_pref.count = 0
stlb_l1i_pref.share = 0.00%

stlb_l1d_pref.count = 28545
stlb_l1d_pref.share = 2.05%

DRAM_RQ_READ_TRAFFIC_SUMMARY:
cache_demand.count = 490461
cache_demand.share = 35.19%

cache_prefetch.count = 873531
cache_prefetch.share = 62.67%

stlb_demand.count = 1297
stlb_demand.share = 0.09%

stlb_prefetch.count = 28545
stlb_prefetch.share = 2.05%

DRAM_RQ_READ_TRAFFIC_DEBUG:
total_classified_read.count = 1393834
unclassified_read.count = 0
total_read_with_other.count = 1393834

classified_plus_unclassified_check.count = 1393834
dram_rq_read_total_observed.count = 1393834
dram_rq_read_total_observed.per_1K_instructions = 13.9383

STLB_MISS_PTW_DRAM_TOUCH_BREAKDOWN:
stlb_miss_total.count = 228500

stlb_miss_touch_dram.count = 30088
stlb_miss_touch_dram.share = 13.17%

stlb_miss_no_dram_touch.count = 198412
stlb_miss_no_dram_touch.share = 86.83%

STLB_MISS_PTW_DRAM_TOUCH_DEBUG:
stlb_miss_touch_plus_no_touch.count = 228500
stlb_miss_total_check.count = 228500

======STLB miss causes ========
Core_0_STLB_miss_cause_breakdown
Core_0_STLB_cause_Demand_Data_miss 2394
Core_0_STLB_cause_Demand_Data_miss_rate 0.00444355
Core_0_STLB_cause_Demand_Instruction_miss 1
Core_0_STLB_cause_Demand_Instruction_miss_rate 1.85612e-06
Core_0_STLB_cause_L1D_Prefetch_miss 226105
Core_0_STLB_cause_L1D_Prefetch_miss_rate 0.419677
Core_0_STLB_cause_L1D_Prefetch_Same_Page_miss 0
Core_0_STLB_cause_L1D_Prefetch_Same_Page_miss_rate 0
Core_0_STLB_cause_L1D_Prefetch_Cross_Page_miss 226105
Core_0_STLB_cause_L1D_Prefetch_Cross_Page_miss_rate 0.419677
Core_0_STLB_cause_L1I_Prefetch_miss 0
Core_0_STLB_cause_L1I_Prefetch_miss_rate 0
Core_0_STLB_cause_Other_miss 0
Core_0_STLB_cause_Other_miss_rate 0
Core_0_STLB_Demand_miss 2395
Core_0_STLB_Demand_miss_rate 0.0044454
Core_0_STLB_L1D_Prefetch_miss 226105
Core_0_STLB_L1D_Prefetch_miss_rate 0.419677
Core_0_STLB_Other_miss 0
Core_0_STLB_Other_miss_rate 0

========== vBerti-TLB Cross-page Flow Stats ==========

Core_0_vBerti_Requested 45672233
Core_0_vBerti_Cross_page_prefetch_in_Requested 24571225
Core_0_vBerti_Same_page_prefetch_in_Requested 21101008
Core_0_vBerti_Cross_page_prefetch_of_Requested 0.53799
Core_0_vBerti_Issued 13630934
Core_0_vBerti_InPQ_Same_page_prefetch 7402184
Core_0_vBerti_InPQ_Cross_page_prefetch 6228750
Core_0_vBerti_PQ_Drop_Rate 0.701549
Core_0_vBerti_InPQ_Cross_page_prefetch_of_Requested 0.136379
Core_0_vBerti_Cross_page_PQ_Drop_rate 0.746502
Core_0_vBerti_Cross_page_prefetch_of_Issued 0.456957
Core_0_CP_PF_PQFULL_drop 18342475
Core_0_CP_PF_PQFULL_TLB_rescue_enqueued 0
Core_0_CP_PF_PQFULL_TLB_rescue_issued 0
Core_0_CP_PF_PQFULL_TLB_rescue_translated 0

========= DTLB_vBerti Prefetch Stats =========
Core_0_DTLB_demand_access 46176931
Core_0_DTLB_demand_hit 46002950
Core_0_DTLB_demand_miss 173981
Core_0_DTLB_demand_mshr_merge 28571
Core_0_DTLB_demand_fill 145607
Core_0_DTLB_demand_miss_rate 0.0037677
Core_0_DTLB_demand_mpki 1.73981
Core_0_DTLB_vberti_prefetch_access 12642300
Core_0_DTLB_vberti_prefetch_hit 12122767
Core_0_DTLB_vberti_prefetch_miss 519533
Core_0_DTLB_vberti_prefetch_mshr_merge 126185
Core_0_DTLB_vberti_prefetch_fill 393156
Core_0_DTLB_vberti_prefetch_miss_rate 0.0410948
Core_0_DTLB_vberti_prefetch_mpki 5.19533

=== DTLB_vBerti Same/Cross-page Prefetch Stats ===
Core_0_DTLB_vberti_same_page_prefetch 6803700
Core_0_DTLB_vberti_same_page_prefetch_hit 6799859
Core_0_DTLB_vberti_same_page_prefetch_miss 3841
Core_0_DTLB_vberti_same_page_prefetch_mshr_merge 648
Core_0_DTLB_vberti_same_page_prefetch_fill 3178
Core_0_DTLB_vberti_same_page_prefetch_miss_rate 0.000564546
Core_0_DTLB_vberti_same_page_prefetch_mpki 0.03841
Core_0_DTLB_vberti_cross_page_prefetch 5838600
Core_0_DTLB_vberti_cross_page_prefetch_hit 5322908
Core_0_DTLB_vberti_cross_page_prefetch_miss 515692
Core_0_DTLB_vberti_cross_page_prefetch_mshr_merge 125537
Core_0_DTLB_vberti_cross_page_prefetch_fill 389978
Core_0_DTLB_vberti_cross_page_prefetch_miss_rate 0.0883246
Core_0_DTLB_vberti_cross_page_prefetch_mpki 5.15692
Core_0_DTLB_same_page_prefetch_miss_rate 0.000564546
Core_0_DTLB_same_page_prefetch_mpki 0.03841
Core_0_DTLB_cross_page_prefetch_miss_rate 0.0883246
Core_0_DTLB_cross_page_prefetch_mpki 5.15692
Core_0_DTLB_cross_page_prefetch_issued 5838600
Core_0_DTLB_cross_page_prefetch_lookups 5838600
Core_0_DTLB_cross_page_prefetch_useful 283207
Core_0_DTLB_cross_page_prefetch_useless 106948
Core_0_DTLB_cross_page_prefetch_late 181
Core_0_DTLB_cross_page_prefetch_too_early 11315
Core_0_DTLB_cross_page_prefetch_too_early_among_fill 0.0290145
Core_0_DTLB_cross_page_prefetch_too_early_among_useless 0.105799
Core_0_DTLB_cross_page_prefetch_pollution_evict 65369
Core_0_DTLB_cross_page_prefetch_pollution_demand 49913
Core_0_DTLB_cross_page_prefetch_pollution_among_prefetch_fill 0.167622
Core_0_DTLB_cross_page_prefetch_accuracy 0.048506
Core_0_DTLB_cross_page_prefetch_coverage 0.619454

========= STLB_vBerti Prefetch Stats =========
Core_0_STLB_demand_access 145411
Core_0_STLB_demand_hit 143016
Core_0_STLB_demand_miss 2395
Core_0_STLB_demand_mshr_merge 0
Core_0_STLB_demand_fill 2396
Core_0_STLB_demand_miss_rate 0.0164706
Core_0_STLB_demand_mpki 0.02395
Core_0_STLB_vberti_prefetch_access 393348
Core_0_STLB_vberti_prefetch_hit 167243
Core_0_STLB_vberti_prefetch_miss 226105
Core_0_STLB_vberti_prefetch_mshr_merge 0
Core_0_STLB_vberti_prefetch_fill 226109
Core_0_STLB_vberti_prefetch_miss_rate 0.574822
Core_0_STLB_vberti_prefetch_mpki 2.26105

=== STLB_vBerti Same/Cross-page Prefetch Stats ===
Core_0_STLB_vberti_same_page_prefetch 3193
Core_0_STLB_vberti_same_page_prefetch_hit 3193
Core_0_STLB_vberti_same_page_prefetch_miss 0
Core_0_STLB_vberti_same_page_prefetch_mshr_merge 0
Core_0_STLB_vberti_same_page_prefetch_fill 0
Core_0_STLB_vberti_same_page_prefetch_miss_rate 0
Core_0_STLB_vberti_same_page_prefetch_mpki 0
Core_0_STLB_vberti_cross_page_prefetch 390155
Core_0_STLB_vberti_cross_page_prefetch_hit 164050
Core_0_STLB_vberti_cross_page_prefetch_miss 226105
Core_0_STLB_vberti_cross_page_prefetch_mshr_merge 0
Core_0_STLB_vberti_cross_page_prefetch_fill 226109
Core_0_STLB_vberti_cross_page_prefetch_miss_rate 0.579526
Core_0_STLB_vberti_cross_page_prefetch_mpki 2.26105
Core_0_STLB_same_page_prefetch_miss_rate 0
Core_0_STLB_same_page_prefetch_mpki 0
Core_0_STLB_cross_page_prefetch_miss_rate 0.579526
Core_0_STLB_cross_page_prefetch_mpki 2.26105
Core_0_STLB_cross_page_prefetch_issued 390155
Core_0_STLB_cross_page_prefetch_lookups 390155
Core_0_STLB_cross_page_prefetch_useful 23655
Core_0_STLB_cross_page_prefetch_useless 202450
Core_0_STLB_cross_page_prefetch_late 0
Core_0_STLB_cross_page_prefetch_too_early 5
Core_0_STLB_cross_page_prefetch_too_early_among_fill 2.21132e-05
Core_0_STLB_cross_page_prefetch_too_early_among_useless 2.46975e-05
Core_0_STLB_cross_page_prefetch_pollution_evict 212
Core_0_STLB_cross_page_prefetch_pollution_demand 207
Core_0_STLB_cross_page_prefetch_pollution_among_prefetch_fill 0.000937601
Core_0_STLB_cross_page_prefetch_accuracy 0.0606297
Core_0_STLB_cross_page_prefetch_coverage 0.908061

========= STLB Cross-page Prefetch Buffer Stats =========
Core_0_STLB_raw_demand_miss 2394
Core_0_CP_PB_insert 0
Core_0_CP_PB_demand_hit 0
Core_0_STLB_PB_demand_miss 2394
Core_0_CP_PB_coverage 0
Core_0_STLB_raw_demand_mpki 0.02394
Core_0_STLB_PB_demand_mpki 0.02394
Core_0_CP_PB_demand_hit_mpki 0

Core_0_TLB_demand_miss_rate 5.18657e-05
Core_0_TLB_demand_mpki 0.02395
Core_0_TLB_same_page_prefetch_miss_rate 0
Core_0_TLB_same_page_prefetch_mpki 0
Core_0_TLB_cross_page_prefetch_miss_rate 0.0387259
Core_0_TLB_cross_page_prefetch_mpki 2.26105
Core_0_TLB_cross_page_prefetch_issued 5838600
Core_0_TLB_cross_page_prefetch_lookups 5838600
Core_0_TLB_cross_page_prefetch_useful 196728
Core_0_TLB_cross_page_prefetch_useless 79364
Core_0_TLB_cross_page_prefetch_late 169
Core_0_TLB_cross_page_prefetch_too_early 9444
Core_0_TLB_cross_page_prefetch_too_early_among_fill 0.015329
Core_0_TLB_cross_page_prefetch_too_early_among_useless 0.118996
Core_0_TLB_cross_page_prefetch_accuracy 0.0336944
Core_0_TLB_cross_page_prefetch_coverage 0.987972
====== vBerti internal metric ========
Core_0_vBerti_end_to_end_issued 7402184
Core_0_vBerti_end_to_end_useful 454642
Core_0_vBerti_end_to_end_late 6436
Core_0_vBerti_end_to_end_accuracy 0.06142
Core_0_vBerti_end_to_end_timely_accuracy 0.0605505
BERTI TO_L1: 12800203 TO_L2: 8300805 TO_L2_BC_MSHR: 384951
BERTI AVG_LAT: 217.64 NUM_TRACK_LATENCY: 1466919 NUM_CANT_TRACK_LATENCY: 0
BERTI CROSS_PAGE 24571225 NO_CROSS_PAGE: 21101008
BERTI FOUND_BERTI: 8427894 NO_FOUND_BERTI: 41117429
BERTI AVERAGE_ISSUED: 2.88279
