[VMEM] WARNING: physical memory size is smaller than virtual memory size.

*** ChampSim Multicore Out-of-Order Simulator ***
Warmup Instructions: 50000000
Simulation Instructions: 100000000
Number of CPUs: 1
Page size: 4096
Core 0: /data2/zcq/champsim_traces_gap/bc.road-131B.champsimtrace.xz
VBerti Prefetcher
BERTI HASH ENTANGLING
BERTI IP MASK ffff
Off-chip DRAM Size: 16 GiB Channels: 1 Width: 64-bit Data Rate: 3205 MT/s
Warmup halting CPU 0 at instruction 50000000 cycle 15051603 for remainder of phase
Warmup finished CPU 0 instructions: 50000000 cycles: 15051603 cumulative IPC: 3.322 (Simulation time: 00 hr 03 min 44 sec)
Warmup complete CPU 0 instructions: 50000000 cycles: 15051603 cumulative IPC: 3.322 (Simulation time: 00 hr 03 min 44 sec)
Simulation finished CPU 0 instructions: 100000004 cycles: 616452361 cumulative IPC: 0.1622 (Simulation time: 00 hr 52 min 22 sec)
Simulation complete CPU 0 instructions: 100000004 cycles: 616452361 cumulative IPC: 0.1622 (Simulation time: 00 hr 52 min 22 sec)

ChampSim completed all CPUs

=== Simulation ===
CPU 0 runs /data2/zcq/champsim_traces_gap/bc.road-131B.champsimtrace.xz

Region of Interest Statistics

CPU 0 cumulative IPC: 0.1622 instructions: 100000004 cycles: 616452361
CPU 0 Branch Prediction Accuracy: 87.92% MPKI: 18.06 Average ROB Occupancy at Mispredict: 35.1
Branch type MPKI
BRANCH_DIRECT_JUMP: 0
BRANCH_INDIRECT: 0
BRANCH_CONDITIONAL: 18.06
BRANCH_DIRECT_CALL: 0
BRANCH_INDIRECT_CALL: 0
BRANCH_RETURN: 0

cpu0->cpu0_STLB TOTAL        ACCESS:    1502245 HIT:     654451 MISS:     847794 MSHR_MERGE:          0
cpu0->cpu0_STLB LOAD         ACCESS:    1502245 HIT:     654451 MISS:     847794 MSHR_MERGE:          0
cpu0->cpu0_STLB RFO          ACCESS:          0 HIT:          0 MISS:          0 MSHR_MERGE:          0
cpu0->cpu0_STLB PREFETCH     ACCESS:          0 HIT:          0 MISS:          0 MSHR_MERGE:          0
cpu0->cpu0_STLB WRITE        ACCESS:          0 HIT:          0 MISS:          0 MSHR_MERGE:          0
cpu0->cpu0_STLB TRANSLATION  ACCESS:          0 HIT:          0 MISS:          0 MSHR_MERGE:          0
cpu0->cpu0_STLB PREFETCH REQUESTED:          0 ISSUED:          0 USEFUL:          0 USELESS:          0 LATE:          0 TOO_EARLY:          0
cpu0->cpu0_STLB AVERAGE MISS LATENCY: 42.75 cycles
cpu0->cpu0_L2C TOTAL        ACCESS:    9489795 HIT:    3900856 MISS:    5588939 MSHR_MERGE:      88413
cpu0->cpu0_L2C LOAD         ACCESS:    4885276 HIT:     107975 MISS:    4777301 MSHR_MERGE:        550
cpu0->cpu0_L2C RFO          ACCESS:       5318 HIT:       2371 MISS:       2947 MSHR_MERGE:          0
cpu0->cpu0_L2C PREFETCH     ACCESS:    1956946 HIT:    1492091 MISS:     464855 MSHR_MERGE:      87863
cpu0->cpu0_L2C WRITE        ACCESS:    2185654 HIT:    2184443 MISS:       1211 MSHR_MERGE:          0
cpu0->cpu0_L2C TRANSLATION  ACCESS:     456601 HIT:     113976 MISS:     342625 MSHR_MERGE:          0
cpu0->cpu0_L2C PREFETCH REQUESTED:     291679 ISSUED:     287964 USEFUL:     123854 USELESS:      37982 LATE:        128 TOO_EARLY:      19631
cpu0->cpu0_L2C AVERAGE MISS LATENCY: 121.9 cycles
cpu0->cpu0_L1I TOTAL        ACCESS:    4787477 HIT:    4787477 MISS:          0 MSHR_MERGE:          0
cpu0->cpu0_L1I LOAD         ACCESS:    4787477 HIT:    4787477 MISS:          0 MSHR_MERGE:          0
cpu0->cpu0_L1I RFO          ACCESS:          0 HIT:          0 MISS:          0 MSHR_MERGE:          0
cpu0->cpu0_L1I PREFETCH     ACCESS:          0 HIT:          0 MISS:          0 MSHR_MERGE:          0
cpu0->cpu0_L1I WRITE        ACCESS:          0 HIT:          0 MISS:          0 MSHR_MERGE:          0
cpu0->cpu0_L1I TRANSLATION  ACCESS:          0 HIT:          0 MISS:          0 MSHR_MERGE:          0
cpu0->cpu0_L1I PREFETCH REQUESTED:          0 ISSUED:          0 USEFUL:          0 USELESS:          0 LATE:          0 TOO_EARLY:          0
cpu0->cpu0_L1I AVERAGE MISS LATENCY: - cycles
cpu0->cpu0_L1D TOTAL        ACCESS:   85548825 HIT:   77529322 MISS:    8019503 MSHR_MERGE:    1002278
cpu0->cpu0_L1D LOAD         ACCESS:   37548567 HIT:   31705859 MISS:    5842708 MSHR_MERGE:     957420
cpu0->cpu0_L1D RFO          ACCESS:          0 HIT:          0 MISS:          0 MSHR_MERGE:          0
cpu0->cpu0_L1D PREFETCH     ACCESS:   36244878 HIT:   34573553 MISS:    1671325 MSHR_MERGE:       1307
cpu0->cpu0_L1D WRITE        ACCESS:    9953238 HIT:    9907556 MISS:      45682 MSHR_MERGE:      40364
cpu0->cpu0_L1D TRANSLATION  ACCESS:    1802142 HIT:    1342354 MISS:     459788 MSHR_MERGE:       3187
cpu0->cpu0_L1D PREFETCH REQUESTED:   87180595 ISSUED:   38290189 USEFUL:     293822 USELESS:       5277 LATE:         39 TOO_EARLY:        457
cpu0->cpu0_L1D AVERAGE MISS LATENCY: 125.8 cycles
cpu0->cpu0_ITLB TOTAL        ACCESS:    4785980 HIT:    4785980 MISS:          0 MSHR_MERGE:          0
cpu0->cpu0_ITLB LOAD         ACCESS:    4785980 HIT:    4785980 MISS:          0 MSHR_MERGE:          0
cpu0->cpu0_ITLB RFO          ACCESS:          0 HIT:          0 MISS:          0 MSHR_MERGE:          0
cpu0->cpu0_ITLB PREFETCH     ACCESS:          0 HIT:          0 MISS:          0 MSHR_MERGE:          0
cpu0->cpu0_ITLB WRITE        ACCESS:          0 HIT:          0 MISS:          0 MSHR_MERGE:          0
cpu0->cpu0_ITLB TRANSLATION  ACCESS:          0 HIT:          0 MISS:          0 MSHR_MERGE:          0
cpu0->cpu0_ITLB PREFETCH REQUESTED:          0 ISSUED:          0 USEFUL:          0 USELESS:          0 LATE:          0 TOO_EARLY:          0
cpu0->cpu0_ITLB AVERAGE MISS LATENCY: - cycles
cpu0->cpu0_DTLB TOTAL        ACCESS:   71868506 HIT:   69975400 MISS:    1893106 MSHR_MERGE:     390861
cpu0->cpu0_DTLB LOAD         ACCESS:   71868506 HIT:   69975400 MISS:    1893106 MSHR_MERGE:     390861
cpu0->cpu0_DTLB RFO          ACCESS:          0 HIT:          0 MISS:          0 MSHR_MERGE:          0
cpu0->cpu0_DTLB PREFETCH     ACCESS:          0 HIT:          0 MISS:          0 MSHR_MERGE:          0
cpu0->cpu0_DTLB WRITE        ACCESS:          0 HIT:          0 MISS:          0 MSHR_MERGE:          0
cpu0->cpu0_DTLB TRANSLATION  ACCESS:          0 HIT:          0 MISS:          0 MSHR_MERGE:          0
cpu0->cpu0_DTLB PREFETCH REQUESTED:          0 ISSUED:          0 USEFUL:          0 USELESS:          0 LATE:          0 TOO_EARLY:          0
cpu0->cpu0_DTLB AVERAGE MISS LATENCY: 29.69 cycles
cpu0->LLC TOTAL        ACCESS:    7643871 HIT:    4093165 MISS:    3550706 MSHR_MERGE:          8
cpu0->LLC LOAD         ACCESS:    4776751 HIT:    1985298 MISS:    2791453 MSHR_MERGE:          0
cpu0->LLC RFO          ACCESS:       2947 HIT:       1617 MISS:       1330 MSHR_MERGE:          0
cpu0->LLC PREFETCH     ACCESS:     376992 HIT:     214606 MISS:     162386 MSHR_MERGE:          8
cpu0->LLC WRITE        ACCESS:    2144556 HIT:    1630118 MISS:     514438 MSHR_MERGE:          0
cpu0->LLC TRANSLATION  ACCESS:     342625 HIT:     261526 MISS:      81099 MSHR_MERGE:          0
cpu0->LLC PREFETCH REQUESTED:          0 ISSUED:          0 USEFUL:          0 USELESS:          0 LATE:          0 TOO_EARLY:          0
cpu0->LLC AVERAGE MISS LATENCY: 162.1 cycles

DRAM Statistics

Channel 0 RQ ROW_BUFFER_HIT:      11455
  ROW_BUFFER_MISS:    3024269
  AVG DBUS CONGESTED CYCLE: 23
Channel 0 WQ ROW_BUFFER_HIT:     338333
  ROW_BUFFER_MISS:     381964
  FULL:          0
Channel 0 REFRESHES ISSUED:      51371

[ROI Statistics]
[System Configuration]
num_cpus 1
cpu_freq 4000
fetch_width 6
decode_width 6
dispatch_width 6
execute_width 6
lq_width 2
sq_width 2
retire_width 6
scheduler_size 128
branch_mispredict_penalty 15
rob_size 352
lq_size 128
sq_size 72
ifetch_buffer_size 64
decode_buffer_size 32
dispatch_buffer_size 32
register_file_size 288
decode_latency 1
dispatch_latency 1
schedule_latency 1
execute_latency 1
page_size 4096
block_size 64
core_0_itlb_set 16
core_0_itlb_way 4
core_0_itlb_rq_size 16
core_0_itlb_wq_size 16
core_0_itlb_pq_size 0
core_0_itlb_mshr_size 8
core_0_itlb_hit_latency 1
core_0_itlb_fill_latency 1
core_0_itlb_max_tag_check 2
core_0_itlb_max_fill 2
core_0_dtlb_set 16
core_0_dtlb_way 4
core_0_dtlb_rq_size 16
core_0_dtlb_wq_size 16
core_0_dtlb_pq_size 0
core_0_dtlb_mshr_size 8
core_0_dtlb_hit_latency 1
core_0_dtlb_fill_latency 1
core_0_dtlb_max_tag_check 2
core_0_dtlb_max_fill 2
core_0_stlb_set 128
core_0_stlb_way 12
core_0_stlb_rq_size 32
core_0_stlb_wq_size 32
core_0_stlb_pq_size 0
core_0_stlb_mshr_size 16
core_0_stlb_hit_latency 4
core_0_stlb_fill_latency 4
core_0_stlb_max_tag_check 1
core_0_stlb_max_fill 1
core_0_l1i_set 64
core_0_l1i_way 8
core_0_l1i_rq_size 64
core_0_l1i_wq_size 64
core_0_l1i_pq_size 32
core_0_l1i_mshr_size 8
core_0_l1i_hit_latency 2
core_0_l1i_fill_latency 2
core_0_l1i_max_tag_check 2
core_0_l1i_max_fill 2
core_0_l1d_set 64
core_0_l1d_way 12
core_0_l1d_rq_size 64
core_0_l1d_wq_size 64
core_0_l1d_pq_size 8
core_0_l1d_mshr_size 16
core_0_l1d_hit_latency 2
core_0_l1d_fill_latency 3
core_0_l1d_max_tag_check 2
core_0_l1d_max_fill 2
core_0_l2c_set 1024
core_0_l2c_way 8
core_0_l2c_rq_size 32
core_0_l2c_wq_size 32
core_0_l2c_pq_size 16
core_0_l2c_mshr_size 32
core_0_l2c_hit_latency 5
core_0_l2c_fill_latency 5
core_0_l2c_max_tag_check 1
core_0_l2c_max_fill 1
llc_set 2048
llc_way 16
llc_rq_size 32
llc_wq_size 32
llc_pq_size 32
llc_mshr_size 64
llc_hit_latency 10
llc_fill_latency 10
llc_max_tag_check 1
llc_max_fill 1
dram_channels 1
dram_ranks 1
dram_bankgroups 8
dram_banks 4
dram_rows 65536
dram_columns 1024
dram_channel_width 8
dram_rq_size 64
dram_wq_size 64
dram_size 17179869184
core_0_itlb_prefetcher no
core_0_dtlb_prefetcher no
core_0_stlb_prefetcher no
core_0_l1i_prefetcher next_line
core_0_l1d_prefetcher vberti
core_0_l2c_prefetcher ip_stride
llc_prefetcher no
llc_replacement drrip

Core_0_instructions 100000004
Core_0_cycles 616452361
Core_0_IPC 0.162219
Core_0_branch_prediction_accuracy 87.9215
Core_0_branch_MPKI 18.0636
Core_0_average_ROB_occupancy_at_mispredict 35.0999

Core_0_ITLB_total_access 4785980
Core_0_ITLB_total_hit 4785980
Core_0_ITLB_total_miss 0
Core_0_ITLB_total_MPKI 0
Core_0_ITLB_total_miss_rate 0
Core_0_ITLB_demand_access 4785980
Core_0_ITLB_demand_hit 4785980
Core_0_ITLB_demand_miss 0
Core_0_ITLB_demand_MPKI 0
Core_0_ITLB_demand_miss_rate 0
Core_0_ITLB_load_access 4785980
Core_0_ITLB_load_hit 4785980
Core_0_ITLB_load_miss 0
Core_0_ITLB_load_MPKI 0
Core_0_ITLB_load_miss_rate 0
Core_0_ITLB_rfo_access 0
Core_0_ITLB_rfo_hit 0
Core_0_ITLB_rfo_miss 0
Core_0_ITLB_rfo_MPKI 0
Core_0_ITLB_rfo_miss_rate 0
Core_0_ITLB_prefetch_access 0
Core_0_ITLB_prefetch_hit 0
Core_0_ITLB_prefetch_miss 0
Core_0_ITLB_prefetch_MPKI 0
Core_0_ITLB_prefetch_miss_rate 0
Core_0_ITLB_writeback_access 0
Core_0_ITLB_writeback_hit 0
Core_0_ITLB_writeback_miss 0
Core_0_ITLB_writeback_MPKI 0
Core_0_ITLB_writeback_miss_rate 0
Core_0_ITLB_prefetch_requested 0
Core_0_ITLB_prefetch_issued 0
Core_0_ITLB_prefetch_useful 0
Core_0_ITLB_prefetch_useless 0
Core_0_ITLB_prefetch_late 0
Core_0_ITLB_prefetch_fill 0
Core_0_ITLB_prefetch_too_early 0
Core_0_ITLB_prefetch_too_early_among_fill 0
Core_0_ITLB_prefetch_too_early_among_useless 0
Core_0_ITLB_prefetch_pollution_evict 0
Core_0_ITLB_prefetch_pollution_demand 0
Core_0_ITLB_prefetch_pollution_among_prefetch_fill 0
Core_0_ITLB_prefetch_accuracy 0
Core_0_ITLB_prefetch_coverage 0

Core_0_DTLB_total_access 71868506
Core_0_DTLB_total_hit 69975400
Core_0_DTLB_total_miss 1893106
Core_0_DTLB_total_MPKI 18.9311
Core_0_DTLB_total_miss_rate 0.0263412
Core_0_DTLB_demand_access 71868506
Core_0_DTLB_demand_hit 69975400
Core_0_DTLB_demand_miss 1893106
Core_0_DTLB_demand_MPKI 18.9311
Core_0_DTLB_demand_miss_rate 0.0263412
Core_0_DTLB_load_access 71868506
Core_0_DTLB_load_hit 69975400
Core_0_DTLB_load_miss 1893106
Core_0_DTLB_load_MPKI 18.9311
Core_0_DTLB_load_miss_rate 0.0263412
Core_0_DTLB_rfo_access 0
Core_0_DTLB_rfo_hit 0
Core_0_DTLB_rfo_miss 0
Core_0_DTLB_rfo_MPKI 0
Core_0_DTLB_rfo_miss_rate 0
Core_0_DTLB_prefetch_access 0
Core_0_DTLB_prefetch_hit 0
Core_0_DTLB_prefetch_miss 0
Core_0_DTLB_prefetch_MPKI 0
Core_0_DTLB_prefetch_miss_rate 0
Core_0_DTLB_writeback_access 0
Core_0_DTLB_writeback_hit 0
Core_0_DTLB_writeback_miss 0
Core_0_DTLB_writeback_MPKI 0
Core_0_DTLB_writeback_miss_rate 0
Core_0_DTLB_prefetch_requested 0
Core_0_DTLB_prefetch_issued 0
Core_0_DTLB_prefetch_useful 0
Core_0_DTLB_prefetch_useless 0
Core_0_DTLB_prefetch_late 0
Core_0_DTLB_prefetch_fill 0
Core_0_DTLB_prefetch_too_early 0
Core_0_DTLB_prefetch_too_early_among_fill 0
Core_0_DTLB_prefetch_too_early_among_useless 0
Core_0_DTLB_prefetch_pollution_evict 0
Core_0_DTLB_prefetch_pollution_demand 0
Core_0_DTLB_prefetch_pollution_among_prefetch_fill 0
Core_0_DTLB_prefetch_accuracy 0
Core_0_DTLB_prefetch_coverage 0

Core_0_STLB_total_access 1502245
Core_0_STLB_total_hit 654451
Core_0_STLB_total_miss 847794
Core_0_STLB_total_MPKI 8.47794
Core_0_STLB_total_miss_rate 0.564351
Core_0_STLB_demand_access 1502245
Core_0_STLB_demand_hit 654451
Core_0_STLB_demand_miss 847794
Core_0_STLB_demand_MPKI 8.47794
Core_0_STLB_demand_miss_rate 0.564351
Core_0_STLB_load_access 1502245
Core_0_STLB_load_hit 654451
Core_0_STLB_load_miss 847794
Core_0_STLB_load_MPKI 8.47794
Core_0_STLB_load_miss_rate 0.564351
Core_0_STLB_rfo_access 0
Core_0_STLB_rfo_hit 0
Core_0_STLB_rfo_miss 0
Core_0_STLB_rfo_MPKI 0
Core_0_STLB_rfo_miss_rate 0
Core_0_STLB_prefetch_access 0
Core_0_STLB_prefetch_hit 0
Core_0_STLB_prefetch_miss 0
Core_0_STLB_prefetch_MPKI 0
Core_0_STLB_prefetch_miss_rate 0
Core_0_STLB_writeback_access 0
Core_0_STLB_writeback_hit 0
Core_0_STLB_writeback_miss 0
Core_0_STLB_writeback_MPKI 0
Core_0_STLB_writeback_miss_rate 0
Core_0_STLB_prefetch_requested 0
Core_0_STLB_prefetch_issued 0
Core_0_STLB_prefetch_useful 0
Core_0_STLB_prefetch_useless 0
Core_0_STLB_prefetch_late 0
Core_0_STLB_prefetch_fill 0
Core_0_STLB_prefetch_too_early 0
Core_0_STLB_prefetch_too_early_among_fill 0
Core_0_STLB_prefetch_too_early_among_useless 0
Core_0_STLB_prefetch_pollution_evict 0
Core_0_STLB_prefetch_pollution_demand 0
Core_0_STLB_prefetch_pollution_among_prefetch_fill 0
Core_0_STLB_prefetch_accuracy 0
Core_0_STLB_prefetch_coverage 0

Core_0_L1I_total_access 4787477
Core_0_L1I_total_hit 4787477
Core_0_L1I_total_miss 0
Core_0_L1I_total_MPKI 0
Core_0_L1I_total_miss_rate 0
Core_0_L1I_demand_access 4787477
Core_0_L1I_demand_hit 4787477
Core_0_L1I_demand_miss 0
Core_0_L1I_demand_MPKI 0
Core_0_L1I_demand_miss_rate 0
Core_0_L1I_load_access 4787477
Core_0_L1I_load_hit 4787477
Core_0_L1I_load_miss 0
Core_0_L1I_load_MPKI 0
Core_0_L1I_load_miss_rate 0
Core_0_L1I_rfo_access 0
Core_0_L1I_rfo_hit 0
Core_0_L1I_rfo_miss 0
Core_0_L1I_rfo_MPKI 0
Core_0_L1I_rfo_miss_rate 0
Core_0_L1I_prefetch_access 0
Core_0_L1I_prefetch_hit 0
Core_0_L1I_prefetch_miss 0
Core_0_L1I_prefetch_MPKI 0
Core_0_L1I_prefetch_miss_rate 0
Core_0_L1I_writeback_access 0
Core_0_L1I_writeback_hit 0
Core_0_L1I_writeback_miss 0
Core_0_L1I_writeback_MPKI 0
Core_0_L1I_writeback_miss_rate 0
Core_0_L1I_prefetch_requested 0
Core_0_L1I_prefetch_issued 0
Core_0_L1I_prefetch_useful 0
Core_0_L1I_prefetch_useless 0
Core_0_L1I_prefetch_late 0
Core_0_L1I_prefetch_fill 0
Core_0_L1I_prefetch_too_early 0
Core_0_L1I_prefetch_too_early_among_fill 0
Core_0_L1I_prefetch_too_early_among_useless 0
Core_0_L1I_prefetch_pollution_evict 0
Core_0_L1I_prefetch_pollution_demand 0
Core_0_L1I_prefetch_pollution_among_prefetch_fill 0
Core_0_L1I_prefetch_accuracy 0
Core_0_L1I_prefetch_coverage 0

Core_0_L1D_total_access 83746683
Core_0_L1D_total_hit 76186968
Core_0_L1D_total_miss 7559715
Core_0_L1D_total_MPKI 75.5971
Core_0_L1D_total_miss_rate 0.0902688
Core_0_L1D_demand_access 37548567
Core_0_L1D_demand_hit 31705859
Core_0_L1D_demand_miss 5842708
Core_0_L1D_demand_MPKI 58.4271
Core_0_L1D_demand_miss_rate 0.155604
Core_0_L1D_load_access 37548567
Core_0_L1D_load_hit 31705859
Core_0_L1D_load_miss 5842708
Core_0_L1D_load_MPKI 58.4271
Core_0_L1D_load_miss_rate 0.155604
Core_0_L1D_rfo_access 0
Core_0_L1D_rfo_hit 0
Core_0_L1D_rfo_miss 0
Core_0_L1D_rfo_MPKI 0
Core_0_L1D_rfo_miss_rate 0
Core_0_L1D_prefetch_access 36244878
Core_0_L1D_prefetch_hit 34573553
Core_0_L1D_prefetch_miss 1671325
Core_0_L1D_prefetch_MPKI 16.7132
Core_0_L1D_prefetch_miss_rate 0.046112
Core_0_L1D_writeback_access 9953238
Core_0_L1D_writeback_hit 9907556
Core_0_L1D_writeback_miss 45682
Core_0_L1D_writeback_MPKI 0.45682
Core_0_L1D_writeback_miss_rate 0.00458966
Core_0_L1D_prefetch_requested 87180595
Core_0_L1D_prefetch_issued 38290189
Core_0_L1D_prefetch_useful 293822
Core_0_L1D_prefetch_useless 5277
Core_0_L1D_prefetch_late 39
Core_0_L1D_prefetch_fill 299065
Core_0_L1D_prefetch_too_early 457
Core_0_L1D_prefetch_too_early_among_fill 0.0015281
Core_0_L1D_prefetch_too_early_among_useless 0.0866022
Core_0_L1D_prefetch_pollution_evict 5212
Core_0_L1D_prefetch_pollution_demand 5207
Core_0_L1D_cross_page_pf_translation_only_requested 6712973
Core_0_L1D_cross_page_pf_translation_only_issued 2045319
Core_0_L1D_cross_page_pf_translation_only_dropped 2045319
Core_0_L1D_prefetch_pollution_among_prefetch_fill 0.0174276
Core_0_L1D_prefetch_accuracy 0.00767356
Core_0_L1D_prefetch_coverage 0.0478808

Core_0_L2C_total_access 9033194
Core_0_L2C_total_hit 3786880
Core_0_L2C_total_miss 5246314
Core_0_L2C_total_MPKI 52.4631
Core_0_L2C_total_miss_rate 0.580782
Core_0_L2C_demand_access 4890594
Core_0_L2C_demand_hit 110346
Core_0_L2C_demand_miss 4780248
Core_0_L2C_demand_MPKI 47.8025
Core_0_L2C_demand_miss_rate 0.977437
Core_0_L2C_load_access 4885276
Core_0_L2C_load_hit 107975
Core_0_L2C_load_miss 4777301
Core_0_L2C_load_MPKI 47.773
Core_0_L2C_load_miss_rate 0.977898
Core_0_L2C_rfo_access 5318
Core_0_L2C_rfo_hit 2371
Core_0_L2C_rfo_miss 2947
Core_0_L2C_rfo_MPKI 0.02947
Core_0_L2C_rfo_miss_rate 0.554156
Core_0_L2C_prefetch_access 1956946
Core_0_L2C_prefetch_hit 1492091
Core_0_L2C_prefetch_miss 464855
Core_0_L2C_prefetch_MPKI 4.64855
Core_0_L2C_prefetch_miss_rate 0.237541
Core_0_L2C_writeback_access 2185654
Core_0_L2C_writeback_hit 2184443
Core_0_L2C_writeback_miss 1211
Core_0_L2C_writeback_MPKI 0.01211
Core_0_L2C_writeback_miss_rate 0.000554068
Core_0_L2C_prefetch_requested 291679
Core_0_L2C_prefetch_issued 287964
Core_0_L2C_prefetch_useful 123854
Core_0_L2C_prefetch_useless 37982
Core_0_L2C_prefetch_late 128
Core_0_L2C_prefetch_fill 376419
Core_0_L2C_prefetch_too_early 19631
Core_0_L2C_prefetch_too_early_among_fill 0.052152
Core_0_L2C_prefetch_too_early_among_useless 0.51685
Core_0_L2C_prefetch_pollution_evict 249144
Core_0_L2C_prefetch_pollution_demand 248285
Core_0_L2C_prefetch_pollution_among_prefetch_fill 0.661879
Core_0_L2C_prefetch_accuracy 0.430102
Core_0_L2C_prefetch_coverage 0.0252552

Core_0_LLC_total_access 7301246
Core_0_LLC_total_hit 3831639
Core_0_LLC_total_miss 3469607
Core_0_LLC_total_MPKI 34.6961
Core_0_LLC_total_miss_rate 0.475208
Core_0_LLC_demand_access 4779698
Core_0_LLC_demand_hit 1986915
Core_0_LLC_demand_miss 2792783
Core_0_LLC_demand_MPKI 27.9278
Core_0_LLC_demand_miss_rate 0.584301
Core_0_LLC_load_access 4776751
Core_0_LLC_load_hit 1985298
Core_0_LLC_load_miss 2791453
Core_0_LLC_load_MPKI 27.9145
Core_0_LLC_load_miss_rate 0.584383
Core_0_LLC_rfo_access 2947
Core_0_LLC_rfo_hit 1617
Core_0_LLC_rfo_miss 1330
Core_0_LLC_rfo_MPKI 0.0133
Core_0_LLC_rfo_miss_rate 0.451306
Core_0_LLC_prefetch_access 376992
Core_0_LLC_prefetch_hit 214606
Core_0_LLC_prefetch_miss 162386
Core_0_LLC_prefetch_MPKI 1.62386
Core_0_LLC_prefetch_miss_rate 0.430741
Core_0_LLC_writeback_access 2144556
Core_0_LLC_writeback_hit 1630118
Core_0_LLC_writeback_miss 514438
Core_0_LLC_writeback_MPKI 5.14438
Core_0_LLC_writeback_miss_rate 0.239881
Core_0_LLC_prefetch_requested 0
Core_0_LLC_prefetch_issued 0
Core_0_LLC_prefetch_useful 0
Core_0_LLC_prefetch_useless 0
Core_0_LLC_prefetch_late 0
Core_0_LLC_prefetch_fill 162378
Core_0_LLC_prefetch_too_early 0
Core_0_LLC_prefetch_too_early_among_fill 0
Core_0_LLC_prefetch_too_early_among_useless 0
Core_0_LLC_prefetch_pollution_evict 101021
Core_0_LLC_prefetch_pollution_demand 101021
Core_0_LLC_prefetch_pollution_among_prefetch_fill 0.622135
Core_0_LLC_prefetch_accuracy 0
Core_0_LLC_prefetch_coverage 0

[DRAM Statistics]
Channel_0_RQ_row_buffer_hit 11455
Channel_0_RQ_row_buffer_miss 3024269
Channel_0_WQ_row_buffer_hit 338333
Channel_0_WQ_row_buffer_miss 381964
Channel_0_WQ_full 0
Channel_0_dbus_congested 14475007
DRAM_total_RQ_row_buffer_hit 11455
DRAM_total_RQ_row_buffer_miss 3024269
DRAM_total_WQ_row_buffer_hit 338333
DRAM_total_WQ_row_buffer_miss 381964
DRAM_total_WQ_full 0
DRAM_total_dbus_congested 14475007
DRAM_avg_congested_cycle 23.0022

====== DRAM_RQ_TRAFFIC ========
DRAM_RQ_READ_TRAFFIC_BREAKDOWN:
data_demand_read.count = 2792783
data_demand_read.share = 91.98%

inst_demand_read.count = 0
inst_demand_read.share = 0.00%

cache_inst_prefetch.count = 0
cache_inst_prefetch.share = 0.00%

cache_data_prefetch.count = 162378
cache_data_prefetch.share = 5.35%

stlb_data_demand.count = 80660
stlb_data_demand.share = 2.66%

stlb_inst_demand.count = 0
stlb_inst_demand.share = 0.00%

stlb_l1i_pref.count = 0
stlb_l1i_pref.share = 0.00%

stlb_l1d_pref.count = 439
stlb_l1d_pref.share = 0.01%

DRAM_RQ_READ_TRAFFIC_SUMMARY:
cache_demand.count = 2792783
cache_demand.share = 91.98%

cache_prefetch.count = 162378
cache_prefetch.share = 5.35%

stlb_demand.count = 80660
stlb_demand.share = 2.66%

stlb_prefetch.count = 439
stlb_prefetch.share = 0.01%

DRAM_RQ_READ_TRAFFIC_DEBUG:
total_classified_read.count = 3036260
unclassified_read.count = 0
total_read_with_other.count = 3036260

classified_plus_unclassified_check.count = 3036260
dram_rq_read_total_observed.count = 3036260
dram_rq_read_total_observed.per_1K_instructions = 30.3626

STLB_MISS_PTW_DRAM_TOUCH_BREAKDOWN:
stlb_miss_total.count = 847794

stlb_miss_touch_dram.count = 81138
stlb_miss_touch_dram.share = 9.57%

stlb_miss_no_dram_touch.count = 766656
stlb_miss_no_dram_touch.share = 90.43%

STLB_MISS_PTW_DRAM_TOUCH_DEBUG:
stlb_miss_touch_plus_no_touch.count = 847794
stlb_miss_total_check.count = 847794

======STLB miss causes ========
Core_0_STLB_miss_cause_breakdown
Core_0_STLB_cause_Demand_Data_miss 843419
Core_0_STLB_cause_Demand_Data_miss_rate 0.561439
Core_0_STLB_cause_Demand_Instruction_miss 0
Core_0_STLB_cause_Demand_Instruction_miss_rate 0
Core_0_STLB_cause_L1D_Prefetch_miss 4375
Core_0_STLB_cause_L1D_Prefetch_miss_rate 0.00291231
Core_0_STLB_cause_L1D_Prefetch_Same_Page_miss 0
Core_0_STLB_cause_L1D_Prefetch_Same_Page_miss_rate 0
Core_0_STLB_cause_L1D_Prefetch_Cross_Page_miss 4375
Core_0_STLB_cause_L1D_Prefetch_Cross_Page_miss_rate 0.00291231
Core_0_STLB_cause_L1I_Prefetch_miss 0
Core_0_STLB_cause_L1I_Prefetch_miss_rate 0
Core_0_STLB_cause_Other_miss 0
Core_0_STLB_cause_Other_miss_rate 0
Core_0_STLB_Demand_miss 843419
Core_0_STLB_Demand_miss_rate 0.561439
Core_0_STLB_L1D_Prefetch_miss 4375
Core_0_STLB_L1D_Prefetch_miss_rate 0.00291231
Core_0_STLB_Other_miss 0
Core_0_STLB_Other_miss_rate 0

========== vBerti-TLB Cross-page Flow Stats ==========

Core_0_vBerti_Requested 87180595
Core_0_vBerti_Cross_page_prefetch_in_Requested 6712973
Core_0_vBerti_Same_page_prefetch_in_Requested 80467622
Core_0_vBerti_Cross_page_prefetch_of_Requested 0.0770008
Core_0_vBerti_Issued 38290189
Core_0_vBerti_InPQ_Same_page_prefetch 36244870
Core_0_vBerti_InPQ_Cross_page_prefetch 2045319
Core_0_vBerti_PQ_Drop_Rate 0.560795
Core_0_vBerti_InPQ_Cross_page_prefetch_of_Requested 0.0234607
Core_0_vBerti_Cross_page_PQ_Drop_rate 0.695318
Core_0_vBerti_Cross_page_prefetch_of_Issued 0.0534163
Core_0_CP_PF_PQFULL_drop 4667654
Core_0_CP_PF_PQFULL_TLB_rescue_enqueued 0
Core_0_CP_PF_PQFULL_TLB_rescue_issued 0
Core_0_CP_PF_PQFULL_TLB_rescue_translated 0

========= DTLB_vBerti Prefetch Stats =========
Core_0_DTLB_demand_access 45967723
Core_0_DTLB_demand_hit 44091561
Core_0_DTLB_demand_miss 1876162
Core_0_DTLB_demand_mshr_merge 380590
Core_0_DTLB_demand_fill 1495574
Core_0_DTLB_demand_miss_rate 0.0408148
Core_0_DTLB_demand_mpki 18.7616
Core_0_DTLB_vberti_prefetch_access 25900783
Core_0_DTLB_vberti_prefetch_hit 25883839
Core_0_DTLB_vberti_prefetch_miss 16944
Core_0_DTLB_vberti_prefetch_mshr_merge 10271
Core_0_DTLB_vberti_prefetch_fill 6671
Core_0_DTLB_vberti_prefetch_miss_rate 0.000654189
Core_0_DTLB_vberti_prefetch_mpki 0.16944

=== DTLB_vBerti Same/Cross-page Prefetch Stats ===
Core_0_DTLB_vberti_same_page_prefetch 24552130
Core_0_DTLB_vberti_same_page_prefetch_hit 24552028
Core_0_DTLB_vberti_same_page_prefetch_miss 102
Core_0_DTLB_vberti_same_page_prefetch_mshr_merge 15
Core_0_DTLB_vberti_same_page_prefetch_fill 87
Core_0_DTLB_vberti_same_page_prefetch_miss_rate 4.15443e-06
Core_0_DTLB_vberti_same_page_prefetch_mpki 0.00102
Core_0_DTLB_vberti_cross_page_prefetch 1348653
Core_0_DTLB_vberti_cross_page_prefetch_hit 1331811
Core_0_DTLB_vberti_cross_page_prefetch_miss 16842
Core_0_DTLB_vberti_cross_page_prefetch_mshr_merge 10256
Core_0_DTLB_vberti_cross_page_prefetch_fill 6584
Core_0_DTLB_vberti_cross_page_prefetch_miss_rate 0.012488
Core_0_DTLB_vberti_cross_page_prefetch_mpki 0.16842
Core_0_DTLB_same_page_prefetch_miss_rate 4.15443e-06
Core_0_DTLB_same_page_prefetch_mpki 0.00102
Core_0_DTLB_cross_page_prefetch_miss_rate 0.012488
Core_0_DTLB_cross_page_prefetch_mpki 0.16842
Core_0_DTLB_cross_page_prefetch_issued 1348653
Core_0_DTLB_cross_page_prefetch_lookups 1348653
Core_0_DTLB_cross_page_prefetch_useful 5084
Core_0_DTLB_cross_page_prefetch_useless 1502
Core_0_DTLB_cross_page_prefetch_late 2
Core_0_DTLB_cross_page_prefetch_too_early 368
Core_0_DTLB_cross_page_prefetch_too_early_among_fill 0.0558931
Core_0_DTLB_cross_page_prefetch_too_early_among_useless 0.245007
Core_0_DTLB_cross_page_prefetch_pollution_evict 6217
Core_0_DTLB_cross_page_prefetch_pollution_demand 6203
Core_0_DTLB_cross_page_prefetch_pollution_among_prefetch_fill 0.944259
Core_0_DTLB_cross_page_prefetch_accuracy 0.00376969
Core_0_DTLB_cross_page_prefetch_coverage 0.00270246

========= STLB_vBerti Prefetch Stats =========
Core_0_STLB_demand_access 1495572
Core_0_STLB_demand_hit 652153
Core_0_STLB_demand_miss 843419
Core_0_STLB_demand_mshr_merge 0
Core_0_STLB_demand_fill 843419
Core_0_STLB_demand_miss_rate 0.563944
Core_0_STLB_demand_mpki 8.43419
Core_0_STLB_vberti_prefetch_access 6673
Core_0_STLB_vberti_prefetch_hit 2298
Core_0_STLB_vberti_prefetch_miss 4375
Core_0_STLB_vberti_prefetch_mshr_merge 0
Core_0_STLB_vberti_prefetch_fill 4375
Core_0_STLB_vberti_prefetch_miss_rate 0.655627
Core_0_STLB_vberti_prefetch_mpki 0.04375

=== STLB_vBerti Same/Cross-page Prefetch Stats ===
Core_0_STLB_vberti_same_page_prefetch 87
Core_0_STLB_vberti_same_page_prefetch_hit 87
Core_0_STLB_vberti_same_page_prefetch_miss 0
Core_0_STLB_vberti_same_page_prefetch_mshr_merge 0
Core_0_STLB_vberti_same_page_prefetch_fill 0
Core_0_STLB_vberti_same_page_prefetch_miss_rate 0
Core_0_STLB_vberti_same_page_prefetch_mpki 0
Core_0_STLB_vberti_cross_page_prefetch 6586
Core_0_STLB_vberti_cross_page_prefetch_hit 2211
Core_0_STLB_vberti_cross_page_prefetch_miss 4375
Core_0_STLB_vberti_cross_page_prefetch_mshr_merge 0
Core_0_STLB_vberti_cross_page_prefetch_fill 4375
Core_0_STLB_vberti_cross_page_prefetch_miss_rate 0.664288
Core_0_STLB_vberti_cross_page_prefetch_mpki 0.04375
Core_0_STLB_same_page_prefetch_miss_rate 0
Core_0_STLB_same_page_prefetch_mpki 0
Core_0_STLB_cross_page_prefetch_miss_rate 0.664288
Core_0_STLB_cross_page_prefetch_mpki 0.04375
Core_0_STLB_cross_page_prefetch_issued 6586
Core_0_STLB_cross_page_prefetch_lookups 6586
Core_0_STLB_cross_page_prefetch_useful 1536
Core_0_STLB_cross_page_prefetch_useless 2839
Core_0_STLB_cross_page_prefetch_late 0
Core_0_STLB_cross_page_prefetch_too_early 320
Core_0_STLB_cross_page_prefetch_too_early_among_fill 0.0731429
Core_0_STLB_cross_page_prefetch_too_early_among_useless 0.112716
Core_0_STLB_cross_page_prefetch_pollution_evict 4280
Core_0_STLB_cross_page_prefetch_pollution_demand 4276
Core_0_STLB_cross_page_prefetch_pollution_among_prefetch_fill 0.978286
Core_0_STLB_cross_page_prefetch_accuracy 0.233222
Core_0_STLB_cross_page_prefetch_coverage 0.00181785

========= STLB Cross-page Prefetch Buffer Stats =========
Core_0_STLB_raw_demand_miss 843419
Core_0_CP_PB_insert 0
Core_0_CP_PB_demand_hit 0
Core_0_STLB_PB_demand_miss 843419
Core_0_CP_PB_coverage 0
Core_0_STLB_raw_demand_mpki 8.43419
Core_0_STLB_PB_demand_mpki 8.43419
Core_0_CP_PB_demand_hit_mpki 0

Core_0_TLB_demand_miss_rate 0.0183481
Core_0_TLB_demand_mpki 8.43419
Core_0_TLB_same_page_prefetch_miss_rate 0
Core_0_TLB_same_page_prefetch_mpki 0
Core_0_TLB_cross_page_prefetch_miss_rate 0.00324398
Core_0_TLB_cross_page_prefetch_mpki 0.04375
Core_0_TLB_cross_page_prefetch_issued 1348653
Core_0_TLB_cross_page_prefetch_lookups 1348653
Core_0_TLB_cross_page_prefetch_useful 2472
Core_0_TLB_cross_page_prefetch_useless 537
Core_0_TLB_cross_page_prefetch_late 2
Core_0_TLB_cross_page_prefetch_too_early 352
Core_0_TLB_cross_page_prefetch_too_early_among_fill 0.0321197
Core_0_TLB_cross_page_prefetch_too_early_among_useless 0.655493
Core_0_TLB_cross_page_prefetch_accuracy 0.00183294
Core_0_TLB_cross_page_prefetch_coverage 0.00292236
====== vBerti internal metric ========
Core_0_vBerti_end_to_end_issued 36244870
Core_0_vBerti_end_to_end_useful 10431
Core_0_vBerti_end_to_end_late 421
Core_0_vBerti_end_to_end_accuracy 0.000287792
Core_0_vBerti_end_to_end_timely_accuracy 0.000276177
BERTI TO_L1: 73580528 TO_L2: 6887094 TO_L2_BC_MSHR: 91
BERTI AVG_LAT: 128.871 NUM_TRACK_LATENCY: 5179665 NUM_CANT_TRACK_LATENCY: 0
BERTI CROSS_PAGE 6712973 NO_CROSS_PAGE: 80467622
BERTI FOUND_BERTI: 31392394 NO_FOUND_BERTI: 16109411
BERTI AVERAGE_ISSUED: 3.2153
