[VMEM] WARNING: physical memory size is smaller than virtual memory size.

*** ChampSim Multicore Out-of-Order Simulator ***
Warmup Instructions: 50000000
Simulation Instructions: 100000000
Number of CPUs: 1
Page size: 4096
Core 0: /data2/zcq/champsim_traces_gap/bc.road-79B.champsimtrace.xz
VBerti Prefetcher
BERTI HASH ENTANGLING
BERTI IP MASK ffff
Off-chip DRAM Size: 16 GiB Channels: 1 Width: 64-bit Data Rate: 3205 MT/s
Warmup halting CPU 0 at instruction 50000001 cycle 14651489 for remainder of phase
Warmup finished CPU 0 instructions: 50000001 cycles: 14651489 cumulative IPC: 3.413 (Simulation time: 00 hr 03 min 29 sec)
Warmup complete CPU 0 instructions: 50000001 cycles: 14651489 cumulative IPC: 3.413 (Simulation time: 00 hr 03 min 29 sec)
Simulation finished CPU 0 instructions: 100000003 cycles: 356340430 cumulative IPC: 0.2806 (Simulation time: 00 hr 30 min 59 sec)
Simulation complete CPU 0 instructions: 100000003 cycles: 356340430 cumulative IPC: 0.2806 (Simulation time: 00 hr 30 min 59 sec)

ChampSim completed all CPUs

=== Simulation ===
CPU 0 runs /data2/zcq/champsim_traces_gap/bc.road-79B.champsimtrace.xz

Region of Interest Statistics

CPU 0 cumulative IPC: 0.2806 instructions: 100000003 cycles: 356340430
CPU 0 Branch Prediction Accuracy: 88.49% MPKI: 17.22 Average ROB Occupancy at Mispredict: 37.88
Branch type MPKI
BRANCH_DIRECT_JUMP: 0
BRANCH_INDIRECT: 0
BRANCH_CONDITIONAL: 17.22
BRANCH_DIRECT_CALL: 0
BRANCH_INDIRECT_CALL: 0
BRANCH_RETURN: 0

cpu0->cpu0_STLB TOTAL        ACCESS:    1957391 HIT:    1219320 MISS:     738071 MSHR_MERGE:          0
cpu0->cpu0_STLB LOAD         ACCESS:    1957391 HIT:    1219320 MISS:     738071 MSHR_MERGE:          0
cpu0->cpu0_STLB RFO          ACCESS:          0 HIT:          0 MISS:          0 MSHR_MERGE:          0
cpu0->cpu0_STLB PREFETCH     ACCESS:          0 HIT:          0 MISS:          0 MSHR_MERGE:          0
cpu0->cpu0_STLB WRITE        ACCESS:          0 HIT:          0 MISS:          0 MSHR_MERGE:          0
cpu0->cpu0_STLB TRANSLATION  ACCESS:          0 HIT:          0 MISS:          0 MSHR_MERGE:          0
cpu0->cpu0_STLB PREFETCH REQUESTED:          0 ISSUED:          0 USEFUL:          0 USELESS:          0 LATE:          0 TOO_EARLY:          0
cpu0->cpu0_STLB AVERAGE MISS LATENCY: 24.15 cycles
cpu0->cpu0_L2C TOTAL        ACCESS:   11157856 HIT:    6675178 MISS:    4482678 MSHR_MERGE:      70127
cpu0->cpu0_L2C LOAD         ACCESS:    5155600 HIT:    1161397 MISS:    3994203 MSHR_MERGE:        271
cpu0->cpu0_L2C RFO          ACCESS:       7362 HIT:       3639 MISS:       3723 MSHR_MERGE:          0
cpu0->cpu0_L2C PREFETCH     ACCESS:    3255633 HIT:    2983688 MISS:     271945 MSHR_MERGE:      69856
cpu0->cpu0_L2C WRITE        ACCESS:    2327340 HIT:    2326406 MISS:        934 MSHR_MERGE:          0
cpu0->cpu0_L2C TRANSLATION  ACCESS:     411921 HIT:     200048 MISS:     211873 MSHR_MERGE:          0
cpu0->cpu0_L2C PREFETCH REQUESTED:     892626 ISSUED:     880108 USEFUL:      78035 USELESS:      27863 LATE:        122 TOO_EARLY:      15753
cpu0->cpu0_L2C AVERAGE MISS LATENCY: 62.17 cycles
cpu0->cpu0_L1I TOTAL        ACCESS:    4855797 HIT:    4855797 MISS:          0 MSHR_MERGE:          0
cpu0->cpu0_L1I LOAD         ACCESS:    4855797 HIT:    4855797 MISS:          0 MSHR_MERGE:          0
cpu0->cpu0_L1I RFO          ACCESS:          0 HIT:          0 MISS:          0 MSHR_MERGE:          0
cpu0->cpu0_L1I PREFETCH     ACCESS:          0 HIT:          0 MISS:          0 MSHR_MERGE:          0
cpu0->cpu0_L1I WRITE        ACCESS:          0 HIT:          0 MISS:          0 MSHR_MERGE:          0
cpu0->cpu0_L1I TRANSLATION  ACCESS:          0 HIT:          0 MISS:          0 MSHR_MERGE:          0
cpu0->cpu0_L1I PREFETCH REQUESTED:          0 ISSUED:          0 USEFUL:          0 USELESS:          0 LATE:          0 TOO_EARLY:          0
cpu0->cpu0_L1I AVERAGE MISS LATENCY: - cycles
cpu0->cpu0_L1D TOTAL        ACCESS:   85402709 HIT:   76470818 MISS:    8931891 MSHR_MERGE:     980676
cpu0->cpu0_L1D LOAD         ACCESS:   37407489 HIT:   31316301 MISS:    6091188 MSHR_MERGE:     935577
cpu0->cpu0_L1D RFO          ACCESS:          0 HIT:          0 MISS:          0 MSHR_MERGE:          0
cpu0->cpu0_L1D PREFETCH     ACCESS:   36393978 HIT:   34016825 MISS:    2377153 MSHR_MERGE:        832
cpu0->cpu0_L1D WRITE        ACCESS:   10046409 HIT:    9996706 MISS:      49703 MSHR_MERGE:      42341
cpu0->cpu0_L1D TRANSLATION  ACCESS:    1554833 HIT:    1140986 MISS:     413847 MSHR_MERGE:       1926
cpu0->cpu0_L1D PREFETCH REQUESTED:   86818476 ISSUED:   38380476 USEFUL:     276709 USELESS:      15567 LATE:         45 TOO_EARLY:        220
cpu0->cpu0_L1D AVERAGE MISS LATENCY: 55.75 cycles
cpu0->cpu0_ITLB TOTAL        ACCESS:    4850526 HIT:    4850526 MISS:          0 MSHR_MERGE:          0
cpu0->cpu0_ITLB LOAD         ACCESS:    4850526 HIT:    4850526 MISS:          0 MSHR_MERGE:          0
cpu0->cpu0_ITLB RFO          ACCESS:          0 HIT:          0 MISS:          0 MSHR_MERGE:          0
cpu0->cpu0_ITLB PREFETCH     ACCESS:          0 HIT:          0 MISS:          0 MSHR_MERGE:          0
cpu0->cpu0_ITLB WRITE        ACCESS:          0 HIT:          0 MISS:          0 MSHR_MERGE:          0
cpu0->cpu0_ITLB TRANSLATION  ACCESS:          0 HIT:          0 MISS:          0 MSHR_MERGE:          0
cpu0->cpu0_ITLB PREFETCH REQUESTED:          0 ISSUED:          0 USEFUL:          0 USELESS:          0 LATE:          0 TOO_EARLY:          0
cpu0->cpu0_ITLB AVERAGE MISS LATENCY: - cycles
cpu0->cpu0_DTLB TOTAL        ACCESS:   70676541 HIT:   68244226 MISS:    2432315 MSHR_MERGE:     474924
cpu0->cpu0_DTLB LOAD         ACCESS:   70676541 HIT:   68244226 MISS:    2432315 MSHR_MERGE:     474924
cpu0->cpu0_DTLB RFO          ACCESS:          0 HIT:          0 MISS:          0 MSHR_MERGE:          0
cpu0->cpu0_DTLB PREFETCH     ACCESS:          0 HIT:          0 MISS:          0 MSHR_MERGE:          0
cpu0->cpu0_DTLB WRITE        ACCESS:          0 HIT:          0 MISS:          0 MSHR_MERGE:          0
cpu0->cpu0_DTLB TRANSLATION  ACCESS:          0 HIT:          0 MISS:          0 MSHR_MERGE:          0
cpu0->cpu0_DTLB PREFETCH REQUESTED:          0 ISSUED:          0 USEFUL:          0 USELESS:          0 LATE:          0 TOO_EARLY:          0
cpu0->cpu0_DTLB AVERAGE MISS LATENCY: 14.48 cycles
cpu0->LLC TOTAL        ACCESS:    6181405 HIT:    4956811 MISS:    1224594 MSHR_MERGE:          0
cpu0->LLC LOAD         ACCESS:    3993925 HIT:    2929684 MISS:    1064241 MSHR_MERGE:          0
cpu0->LLC RFO          ACCESS:       3723 HIT:       2436 MISS:       1287 MSHR_MERGE:          0
cpu0->LLC PREFETCH     ACCESS:     202087 HIT:      93054 MISS:     109033 MSHR_MERGE:          0
cpu0->LLC WRITE        ACCESS:    1769797 HIT:    1725655 MISS:      44142 MSHR_MERGE:          0
cpu0->LLC TRANSLATION  ACCESS:     211873 HIT:     205982 MISS:       5891 MSHR_MERGE:          0
cpu0->LLC PREFETCH REQUESTED:          0 ISSUED:          0 USEFUL:          0 USELESS:          0 LATE:          0 TOO_EARLY:          0
cpu0->LLC AVERAGE MISS LATENCY: 177.4 cycles

DRAM Statistics

Channel 0 RQ ROW_BUFFER_HIT:       2974
  ROW_BUFFER_MISS:    1177318
  AVG DBUS CONGESTED CYCLE: 21.03
Channel 0 WQ ROW_BUFFER_HIT:     114092
  ROW_BUFFER_MISS:     303081
  FULL:          0
Channel 0 REFRESHES ISSUED:      29695

[ROI Statistics]
[System Configuration]
num_cpus 1
cpu_freq 4000
fetch_width 6
decode_width 6
dispatch_width 6
execute_width 6
lq_width 2
sq_width 2
retire_width 6
scheduler_size 128
branch_mispredict_penalty 15
rob_size 352
lq_size 128
sq_size 72
ifetch_buffer_size 64
decode_buffer_size 32
dispatch_buffer_size 32
register_file_size 288
decode_latency 1
dispatch_latency 1
schedule_latency 1
execute_latency 1
page_size 4096
block_size 64
core_0_itlb_set 16
core_0_itlb_way 4
core_0_itlb_rq_size 16
core_0_itlb_wq_size 16
core_0_itlb_pq_size 0
core_0_itlb_mshr_size 8
core_0_itlb_hit_latency 1
core_0_itlb_fill_latency 1
core_0_itlb_max_tag_check 2
core_0_itlb_max_fill 2
core_0_dtlb_set 16
core_0_dtlb_way 4
core_0_dtlb_rq_size 16
core_0_dtlb_wq_size 16
core_0_dtlb_pq_size 0
core_0_dtlb_mshr_size 8
core_0_dtlb_hit_latency 1
core_0_dtlb_fill_latency 1
core_0_dtlb_max_tag_check 2
core_0_dtlb_max_fill 2
core_0_stlb_set 128
core_0_stlb_way 12
core_0_stlb_rq_size 32
core_0_stlb_wq_size 32
core_0_stlb_pq_size 0
core_0_stlb_mshr_size 16
core_0_stlb_hit_latency 4
core_0_stlb_fill_latency 4
core_0_stlb_max_tag_check 1
core_0_stlb_max_fill 1
core_0_l1i_set 64
core_0_l1i_way 8
core_0_l1i_rq_size 64
core_0_l1i_wq_size 64
core_0_l1i_pq_size 32
core_0_l1i_mshr_size 8
core_0_l1i_hit_latency 2
core_0_l1i_fill_latency 2
core_0_l1i_max_tag_check 2
core_0_l1i_max_fill 2
core_0_l1d_set 64
core_0_l1d_way 12
core_0_l1d_rq_size 64
core_0_l1d_wq_size 64
core_0_l1d_pq_size 8
core_0_l1d_mshr_size 16
core_0_l1d_hit_latency 2
core_0_l1d_fill_latency 3
core_0_l1d_max_tag_check 2
core_0_l1d_max_fill 2
core_0_l2c_set 1024
core_0_l2c_way 8
core_0_l2c_rq_size 32
core_0_l2c_wq_size 32
core_0_l2c_pq_size 16
core_0_l2c_mshr_size 32
core_0_l2c_hit_latency 5
core_0_l2c_fill_latency 5
core_0_l2c_max_tag_check 1
core_0_l2c_max_fill 1
llc_set 2048
llc_way 16
llc_rq_size 32
llc_wq_size 32
llc_pq_size 32
llc_mshr_size 64
llc_hit_latency 10
llc_fill_latency 10
llc_max_tag_check 1
llc_max_fill 1
dram_channels 1
dram_ranks 1
dram_bankgroups 8
dram_banks 4
dram_rows 65536
dram_columns 1024
dram_channel_width 8
dram_rq_size 64
dram_wq_size 64
dram_size 17179869184
core_0_itlb_prefetcher no
core_0_dtlb_prefetcher no
core_0_stlb_prefetcher no
core_0_l1i_prefetcher next_line
core_0_l1d_prefetcher vberti
core_0_l2c_prefetcher ip_stride
llc_prefetcher no
llc_replacement drrip

Core_0_instructions 100000003
Core_0_cycles 356340430
Core_0_IPC 0.280631
Core_0_branch_prediction_accuracy 88.4904
Core_0_branch_MPKI 17.2176
Core_0_average_ROB_occupancy_at_mispredict 37.8826

Core_0_ITLB_total_access 4850526
Core_0_ITLB_total_hit 4850526
Core_0_ITLB_total_miss 0
Core_0_ITLB_total_MPKI 0
Core_0_ITLB_total_miss_rate 0
Core_0_ITLB_demand_access 4850526
Core_0_ITLB_demand_hit 4850526
Core_0_ITLB_demand_miss 0
Core_0_ITLB_demand_MPKI 0
Core_0_ITLB_demand_miss_rate 0
Core_0_ITLB_load_access 4850526
Core_0_ITLB_load_hit 4850526
Core_0_ITLB_load_miss 0
Core_0_ITLB_load_MPKI 0
Core_0_ITLB_load_miss_rate 0
Core_0_ITLB_rfo_access 0
Core_0_ITLB_rfo_hit 0
Core_0_ITLB_rfo_miss 0
Core_0_ITLB_rfo_MPKI 0
Core_0_ITLB_rfo_miss_rate 0
Core_0_ITLB_prefetch_access 0
Core_0_ITLB_prefetch_hit 0
Core_0_ITLB_prefetch_miss 0
Core_0_ITLB_prefetch_MPKI 0
Core_0_ITLB_prefetch_miss_rate 0
Core_0_ITLB_writeback_access 0
Core_0_ITLB_writeback_hit 0
Core_0_ITLB_writeback_miss 0
Core_0_ITLB_writeback_MPKI 0
Core_0_ITLB_writeback_miss_rate 0
Core_0_ITLB_prefetch_requested 0
Core_0_ITLB_prefetch_issued 0
Core_0_ITLB_prefetch_useful 0
Core_0_ITLB_prefetch_useless 0
Core_0_ITLB_prefetch_late 0
Core_0_ITLB_prefetch_fill 0
Core_0_ITLB_prefetch_too_early 0
Core_0_ITLB_prefetch_too_early_among_fill 0
Core_0_ITLB_prefetch_too_early_among_useless 0
Core_0_ITLB_prefetch_pollution_evict 0
Core_0_ITLB_prefetch_pollution_demand 0
Core_0_ITLB_prefetch_pollution_among_prefetch_fill 0
Core_0_ITLB_prefetch_accuracy 0
Core_0_ITLB_prefetch_coverage 0

Core_0_DTLB_total_access 70676541
Core_0_DTLB_total_hit 68244226
Core_0_DTLB_total_miss 2432315
Core_0_DTLB_total_MPKI 24.3231
Core_0_DTLB_total_miss_rate 0.0344147
Core_0_DTLB_demand_access 70676541
Core_0_DTLB_demand_hit 68244226
Core_0_DTLB_demand_miss 2432315
Core_0_DTLB_demand_MPKI 24.3231
Core_0_DTLB_demand_miss_rate 0.0344147
Core_0_DTLB_load_access 70676541
Core_0_DTLB_load_hit 68244226
Core_0_DTLB_load_miss 2432315
Core_0_DTLB_load_MPKI 24.3231
Core_0_DTLB_load_miss_rate 0.0344147
Core_0_DTLB_rfo_access 0
Core_0_DTLB_rfo_hit 0
Core_0_DTLB_rfo_miss 0
Core_0_DTLB_rfo_MPKI 0
Core_0_DTLB_rfo_miss_rate 0
Core_0_DTLB_prefetch_access 0
Core_0_DTLB_prefetch_hit 0
Core_0_DTLB_prefetch_miss 0
Core_0_DTLB_prefetch_MPKI 0
Core_0_DTLB_prefetch_miss_rate 0
Core_0_DTLB_writeback_access 0
Core_0_DTLB_writeback_hit 0
Core_0_DTLB_writeback_miss 0
Core_0_DTLB_writeback_MPKI 0
Core_0_DTLB_writeback_miss_rate 0
Core_0_DTLB_prefetch_requested 0
Core_0_DTLB_prefetch_issued 0
Core_0_DTLB_prefetch_useful 0
Core_0_DTLB_prefetch_useless 0
Core_0_DTLB_prefetch_late 0
Core_0_DTLB_prefetch_fill 0
Core_0_DTLB_prefetch_too_early 0
Core_0_DTLB_prefetch_too_early_among_fill 0
Core_0_DTLB_prefetch_too_early_among_useless 0
Core_0_DTLB_prefetch_pollution_evict 0
Core_0_DTLB_prefetch_pollution_demand 0
Core_0_DTLB_prefetch_pollution_among_prefetch_fill 0
Core_0_DTLB_prefetch_accuracy 0
Core_0_DTLB_prefetch_coverage 0

Core_0_STLB_total_access 1957391
Core_0_STLB_total_hit 1219320
Core_0_STLB_total_miss 738071
Core_0_STLB_total_MPKI 7.38071
Core_0_STLB_total_miss_rate 0.377069
Core_0_STLB_demand_access 1957391
Core_0_STLB_demand_hit 1219320
Core_0_STLB_demand_miss 738071
Core_0_STLB_demand_MPKI 7.38071
Core_0_STLB_demand_miss_rate 0.377069
Core_0_STLB_load_access 1957391
Core_0_STLB_load_hit 1219320
Core_0_STLB_load_miss 738071
Core_0_STLB_load_MPKI 7.38071
Core_0_STLB_load_miss_rate 0.377069
Core_0_STLB_rfo_access 0
Core_0_STLB_rfo_hit 0
Core_0_STLB_rfo_miss 0
Core_0_STLB_rfo_MPKI 0
Core_0_STLB_rfo_miss_rate 0
Core_0_STLB_prefetch_access 0
Core_0_STLB_prefetch_hit 0
Core_0_STLB_prefetch_miss 0
Core_0_STLB_prefetch_MPKI 0
Core_0_STLB_prefetch_miss_rate 0
Core_0_STLB_writeback_access 0
Core_0_STLB_writeback_hit 0
Core_0_STLB_writeback_miss 0
Core_0_STLB_writeback_MPKI 0
Core_0_STLB_writeback_miss_rate 0
Core_0_STLB_prefetch_requested 0
Core_0_STLB_prefetch_issued 0
Core_0_STLB_prefetch_useful 0
Core_0_STLB_prefetch_useless 0
Core_0_STLB_prefetch_late 0
Core_0_STLB_prefetch_fill 0
Core_0_STLB_prefetch_too_early 0
Core_0_STLB_prefetch_too_early_among_fill 0
Core_0_STLB_prefetch_too_early_among_useless 0
Core_0_STLB_prefetch_pollution_evict 0
Core_0_STLB_prefetch_pollution_demand 0
Core_0_STLB_prefetch_pollution_among_prefetch_fill 0
Core_0_STLB_prefetch_accuracy 0
Core_0_STLB_prefetch_coverage 0

Core_0_L1I_total_access 4855797
Core_0_L1I_total_hit 4855797
Core_0_L1I_total_miss 0
Core_0_L1I_total_MPKI 0
Core_0_L1I_total_miss_rate 0
Core_0_L1I_demand_access 4855797
Core_0_L1I_demand_hit 4855797
Core_0_L1I_demand_miss 0
Core_0_L1I_demand_MPKI 0
Core_0_L1I_demand_miss_rate 0
Core_0_L1I_load_access 4855797
Core_0_L1I_load_hit 4855797
Core_0_L1I_load_miss 0
Core_0_L1I_load_MPKI 0
Core_0_L1I_load_miss_rate 0
Core_0_L1I_rfo_access 0
Core_0_L1I_rfo_hit 0
Core_0_L1I_rfo_miss 0
Core_0_L1I_rfo_MPKI 0
Core_0_L1I_rfo_miss_rate 0
Core_0_L1I_prefetch_access 0
Core_0_L1I_prefetch_hit 0
Core_0_L1I_prefetch_miss 0
Core_0_L1I_prefetch_MPKI 0
Core_0_L1I_prefetch_miss_rate 0
Core_0_L1I_writeback_access 0
Core_0_L1I_writeback_hit 0
Core_0_L1I_writeback_miss 0
Core_0_L1I_writeback_MPKI 0
Core_0_L1I_writeback_miss_rate 0
Core_0_L1I_prefetch_requested 0
Core_0_L1I_prefetch_issued 0
Core_0_L1I_prefetch_useful 0
Core_0_L1I_prefetch_useless 0
Core_0_L1I_prefetch_late 0
Core_0_L1I_prefetch_fill 0
Core_0_L1I_prefetch_too_early 0
Core_0_L1I_prefetch_too_early_among_fill 0
Core_0_L1I_prefetch_too_early_among_useless 0
Core_0_L1I_prefetch_pollution_evict 0
Core_0_L1I_prefetch_pollution_demand 0
Core_0_L1I_prefetch_pollution_among_prefetch_fill 0
Core_0_L1I_prefetch_accuracy 0
Core_0_L1I_prefetch_coverage 0

Core_0_L1D_total_access 83847876
Core_0_L1D_total_hit 75329832
Core_0_L1D_total_miss 8518044
Core_0_L1D_total_MPKI 85.1804
Core_0_L1D_total_miss_rate 0.101589
Core_0_L1D_demand_access 37407489
Core_0_L1D_demand_hit 31316301
Core_0_L1D_demand_miss 6091188
Core_0_L1D_demand_MPKI 60.9119
Core_0_L1D_demand_miss_rate 0.162833
Core_0_L1D_load_access 37407489
Core_0_L1D_load_hit 31316301
Core_0_L1D_load_miss 6091188
Core_0_L1D_load_MPKI 60.9119
Core_0_L1D_load_miss_rate 0.162833
Core_0_L1D_rfo_access 0
Core_0_L1D_rfo_hit 0
Core_0_L1D_rfo_miss 0
Core_0_L1D_rfo_MPKI 0
Core_0_L1D_rfo_miss_rate 0
Core_0_L1D_prefetch_access 36393978
Core_0_L1D_prefetch_hit 34016825
Core_0_L1D_prefetch_miss 2377153
Core_0_L1D_prefetch_MPKI 23.7715
Core_0_L1D_prefetch_miss_rate 0.0653172
Core_0_L1D_writeback_access 10046409
Core_0_L1D_writeback_hit 9996706
Core_0_L1D_writeback_miss 49703
Core_0_L1D_writeback_MPKI 0.49703
Core_0_L1D_writeback_miss_rate 0.00494734
Core_0_L1D_prefetch_requested 86818476
Core_0_L1D_prefetch_issued 38380476
Core_0_L1D_prefetch_useful 276709
Core_0_L1D_prefetch_useless 15567
Core_0_L1D_prefetch_late 45
Core_0_L1D_prefetch_fill 292233
Core_0_L1D_prefetch_too_early 220
Core_0_L1D_prefetch_too_early_among_fill 0.000752824
Core_0_L1D_prefetch_too_early_among_useless 0.0141325
Core_0_L1D_prefetch_pollution_evict 155590
Core_0_L1D_prefetch_pollution_demand 155587
Core_0_L1D_cross_page_pf_translation_only_requested 6566697
Core_0_L1D_cross_page_pf_translation_only_issued 1986505
Core_0_L1D_cross_page_pf_translation_only_dropped 1986505
Core_0_L1D_prefetch_pollution_among_prefetch_fill 0.532418
Core_0_L1D_prefetch_accuracy 0.00720963
Core_0_L1D_prefetch_coverage 0.0434537

Core_0_L2C_total_access 10745935
Core_0_L2C_total_hit 6475130
Core_0_L2C_total_miss 4270805
Core_0_L2C_total_MPKI 42.708
Core_0_L2C_total_miss_rate 0.397434
Core_0_L2C_demand_access 5162962
Core_0_L2C_demand_hit 1165036
Core_0_L2C_demand_miss 3997926
Core_0_L2C_demand_MPKI 39.9793
Core_0_L2C_demand_miss_rate 0.774347
Core_0_L2C_load_access 5155600
Core_0_L2C_load_hit 1161397
Core_0_L2C_load_miss 3994203
Core_0_L2C_load_MPKI 39.942
Core_0_L2C_load_miss_rate 0.774731
Core_0_L2C_rfo_access 7362
Core_0_L2C_rfo_hit 3639
Core_0_L2C_rfo_miss 3723
Core_0_L2C_rfo_MPKI 0.03723
Core_0_L2C_rfo_miss_rate 0.505705
Core_0_L2C_prefetch_access 3255633
Core_0_L2C_prefetch_hit 2983688
Core_0_L2C_prefetch_miss 271945
Core_0_L2C_prefetch_MPKI 2.71945
Core_0_L2C_prefetch_miss_rate 0.0835306
Core_0_L2C_writeback_access 2327340
Core_0_L2C_writeback_hit 2326406
Core_0_L2C_writeback_miss 934
Core_0_L2C_writeback_MPKI 0.00934
Core_0_L2C_writeback_miss_rate 0.000401317
Core_0_L2C_prefetch_requested 892626
Core_0_L2C_prefetch_issued 880108
Core_0_L2C_prefetch_useful 78035
Core_0_L2C_prefetch_useless 27863
Core_0_L2C_prefetch_late 122
Core_0_L2C_prefetch_fill 201800
Core_0_L2C_prefetch_too_early 15753
Core_0_L2C_prefetch_too_early_among_fill 0.0780624
Core_0_L2C_prefetch_too_early_among_useless 0.565373
Core_0_L2C_prefetch_pollution_evict 151435
Core_0_L2C_prefetch_pollution_demand 150801
Core_0_L2C_prefetch_pollution_among_prefetch_fill 0.750421
Core_0_L2C_prefetch_accuracy 0.0886653
Core_0_L2C_prefetch_coverage 0.0191452

Core_0_LLC_total_access 5969532
Core_0_LLC_total_hit 4750829
Core_0_LLC_total_miss 1218703
Core_0_LLC_total_MPKI 12.187
Core_0_LLC_total_miss_rate 0.204154
Core_0_LLC_demand_access 3997648
Core_0_LLC_demand_hit 2932120
Core_0_LLC_demand_miss 1065528
Core_0_LLC_demand_MPKI 10.6553
Core_0_LLC_demand_miss_rate 0.266539
Core_0_LLC_load_access 3993925
Core_0_LLC_load_hit 2929684
Core_0_LLC_load_miss 1064241
Core_0_LLC_load_MPKI 10.6424
Core_0_LLC_load_miss_rate 0.266465
Core_0_LLC_rfo_access 3723
Core_0_LLC_rfo_hit 2436
Core_0_LLC_rfo_miss 1287
Core_0_LLC_rfo_MPKI 0.01287
Core_0_LLC_rfo_miss_rate 0.345689
Core_0_LLC_prefetch_access 202087
Core_0_LLC_prefetch_hit 93054
Core_0_LLC_prefetch_miss 109033
Core_0_LLC_prefetch_MPKI 1.09033
Core_0_LLC_prefetch_miss_rate 0.539535
Core_0_LLC_writeback_access 1769797
Core_0_LLC_writeback_hit 1725655
Core_0_LLC_writeback_miss 44142
Core_0_LLC_writeback_MPKI 0.44142
Core_0_LLC_writeback_miss_rate 0.0249418
Core_0_LLC_prefetch_requested 0
Core_0_LLC_prefetch_issued 0
Core_0_LLC_prefetch_useful 0
Core_0_LLC_prefetch_useless 0
Core_0_LLC_prefetch_late 0
Core_0_LLC_prefetch_fill 109033
Core_0_LLC_prefetch_too_early 0
Core_0_LLC_prefetch_too_early_among_fill 0
Core_0_LLC_prefetch_too_early_among_useless 0
Core_0_LLC_prefetch_pollution_evict 46773
Core_0_LLC_prefetch_pollution_demand 46773
Core_0_LLC_prefetch_pollution_among_prefetch_fill 0.42898
Core_0_LLC_prefetch_accuracy 0
Core_0_LLC_prefetch_coverage 0

[DRAM Statistics]
Channel_0_RQ_row_buffer_hit 2974
Channel_0_RQ_row_buffer_miss 1177318
Channel_0_WQ_row_buffer_hit 114092
Channel_0_WQ_row_buffer_miss 303081
Channel_0_WQ_full 0
Channel_0_dbus_congested 4929514
DRAM_total_RQ_row_buffer_hit 2974
DRAM_total_RQ_row_buffer_miss 1177318
DRAM_total_WQ_row_buffer_hit 114092
DRAM_total_WQ_row_buffer_miss 303081
DRAM_total_WQ_full 0
DRAM_total_dbus_congested 4929514
DRAM_avg_congested_cycle 21.0347

====== DRAM_RQ_TRAFFIC ========
DRAM_RQ_READ_TRAFFIC_BREAKDOWN:
data_demand_read.count = 1065528
data_demand_read.share = 90.26%

inst_demand_read.count = 0
inst_demand_read.share = 0.00%

cache_inst_prefetch.count = 0
cache_inst_prefetch.share = 0.00%

cache_data_prefetch.count = 109033
cache_data_prefetch.share = 9.24%

stlb_data_demand.count = 5679
stlb_data_demand.share = 0.48%

stlb_inst_demand.count = 0
stlb_inst_demand.share = 0.00%

stlb_l1i_pref.count = 0
stlb_l1i_pref.share = 0.00%

stlb_l1d_pref.count = 212
stlb_l1d_pref.share = 0.02%

DRAM_RQ_READ_TRAFFIC_SUMMARY:
cache_demand.count = 1065528
cache_demand.share = 90.26%

cache_prefetch.count = 109033
cache_prefetch.share = 9.24%

stlb_demand.count = 5679
stlb_demand.share = 0.48%

stlb_prefetch.count = 212
stlb_prefetch.share = 0.02%

DRAM_RQ_READ_TRAFFIC_DEBUG:
total_classified_read.count = 1180452
unclassified_read.count = 0
total_read_with_other.count = 1180452

classified_plus_unclassified_check.count = 1180452
dram_rq_read_total_observed.count = 1180452
dram_rq_read_total_observed.per_1K_instructions = 11.8045

STLB_MISS_PTW_DRAM_TOUCH_BREAKDOWN:
stlb_miss_total.count = 738071

stlb_miss_touch_dram.count = 5858
stlb_miss_touch_dram.share = 0.79%

stlb_miss_no_dram_touch.count = 732213
stlb_miss_no_dram_touch.share = 99.21%

STLB_MISS_PTW_DRAM_TOUCH_DEBUG:
stlb_miss_touch_plus_no_touch.count = 738071
stlb_miss_total_check.count = 738071

======STLB miss causes ========
Core_0_STLB_miss_cause_breakdown
Core_0_STLB_cause_Demand_Data_miss 735553
Core_0_STLB_cause_Demand_Data_miss_rate 0.375782
Core_0_STLB_cause_Demand_Instruction_miss 0
Core_0_STLB_cause_Demand_Instruction_miss_rate 0
Core_0_STLB_cause_L1D_Prefetch_miss 2518
Core_0_STLB_cause_L1D_Prefetch_miss_rate 0.00128641
Core_0_STLB_cause_L1D_Prefetch_Same_Page_miss 0
Core_0_STLB_cause_L1D_Prefetch_Same_Page_miss_rate 0
Core_0_STLB_cause_L1D_Prefetch_Cross_Page_miss 2518
Core_0_STLB_cause_L1D_Prefetch_Cross_Page_miss_rate 0.00128641
Core_0_STLB_cause_L1I_Prefetch_miss 0
Core_0_STLB_cause_L1I_Prefetch_miss_rate 0
Core_0_STLB_cause_Other_miss 0
Core_0_STLB_cause_Other_miss_rate 0
Core_0_STLB_Demand_miss 735553
Core_0_STLB_Demand_miss_rate 0.375782
Core_0_STLB_L1D_Prefetch_miss 2518
Core_0_STLB_L1D_Prefetch_miss_rate 0.00128641
Core_0_STLB_Other_miss 0
Core_0_STLB_Other_miss_rate 0

========== vBerti-TLB Cross-page Flow Stats ==========

Core_0_vBerti_Requested 86818476
Core_0_vBerti_Cross_page_prefetch_in_Requested 6566697
Core_0_vBerti_Same_page_prefetch_in_Requested 80251779
Core_0_vBerti_Cross_page_prefetch_of_Requested 0.0756371
Core_0_vBerti_Issued 38380476
Core_0_vBerti_InPQ_Same_page_prefetch 36393971
Core_0_vBerti_InPQ_Cross_page_prefetch 1986505
Core_0_vBerti_PQ_Drop_Rate 0.557923
Core_0_vBerti_InPQ_Cross_page_prefetch_of_Requested 0.0228811
Core_0_vBerti_Cross_page_PQ_Drop_rate 0.697488
Core_0_vBerti_Cross_page_prefetch_of_Issued 0.0517582
Core_0_CP_PF_PQFULL_drop 4580192
Core_0_CP_PF_PQFULL_TLB_rescue_enqueued 0
Core_0_CP_PF_PQFULL_TLB_rescue_issued 0
Core_0_CP_PF_PQFULL_TLB_rescue_translated 0

========= DTLB_vBerti Prefetch Stats =========
Core_0_DTLB_demand_access 45009988
Core_0_DTLB_demand_hit 42592058
Core_0_DTLB_demand_miss 2417930
Core_0_DTLB_demand_mshr_merge 466641
Core_0_DTLB_demand_fill 1951290
Core_0_DTLB_demand_miss_rate 0.0537199
Core_0_DTLB_demand_mpki 24.1793
Core_0_DTLB_vberti_prefetch_access 25666553
Core_0_DTLB_vberti_prefetch_hit 25652168
Core_0_DTLB_vberti_prefetch_miss 14385
Core_0_DTLB_vberti_prefetch_mshr_merge 8283
Core_0_DTLB_vberti_prefetch_fill 6101
Core_0_DTLB_vberti_prefetch_miss_rate 0.000560457
Core_0_DTLB_vberti_prefetch_mpki 0.14385

=== DTLB_vBerti Same/Cross-page Prefetch Stats ===
Core_0_DTLB_vberti_same_page_prefetch 24334273
Core_0_DTLB_vberti_same_page_prefetch_hit 24334221
Core_0_DTLB_vberti_same_page_prefetch_miss 52
Core_0_DTLB_vberti_same_page_prefetch_mshr_merge 7
Core_0_DTLB_vberti_same_page_prefetch_fill 45
Core_0_DTLB_vberti_same_page_prefetch_miss_rate 2.1369e-06
Core_0_DTLB_vberti_same_page_prefetch_mpki 0.00052
Core_0_DTLB_vberti_cross_page_prefetch 1332280
Core_0_DTLB_vberti_cross_page_prefetch_hit 1317947
Core_0_DTLB_vberti_cross_page_prefetch_miss 14333
Core_0_DTLB_vberti_cross_page_prefetch_mshr_merge 8276
Core_0_DTLB_vberti_cross_page_prefetch_fill 6056
Core_0_DTLB_vberti_cross_page_prefetch_miss_rate 0.0107582
Core_0_DTLB_vberti_cross_page_prefetch_mpki 0.14333
Core_0_DTLB_same_page_prefetch_miss_rate 2.1369e-06
Core_0_DTLB_same_page_prefetch_mpki 0.00052
Core_0_DTLB_cross_page_prefetch_miss_rate 0.0107582
Core_0_DTLB_cross_page_prefetch_mpki 0.14333
Core_0_DTLB_cross_page_prefetch_issued 1332280
Core_0_DTLB_cross_page_prefetch_lookups 1332280
Core_0_DTLB_cross_page_prefetch_useful 4400
Core_0_DTLB_cross_page_prefetch_useless 1657
Core_0_DTLB_cross_page_prefetch_late 1
Core_0_DTLB_cross_page_prefetch_too_early 388
Core_0_DTLB_cross_page_prefetch_too_early_among_fill 0.0640687
Core_0_DTLB_cross_page_prefetch_too_early_among_useless 0.234158
Core_0_DTLB_cross_page_prefetch_pollution_evict 5929
Core_0_DTLB_cross_page_prefetch_pollution_demand 5909
Core_0_DTLB_cross_page_prefetch_pollution_among_prefetch_fill 0.979029
Core_0_DTLB_cross_page_prefetch_accuracy 0.00330261
Core_0_DTLB_cross_page_prefetch_coverage 0.00181643

========= STLB_vBerti Prefetch Stats =========
Core_0_STLB_demand_access 1951289
Core_0_STLB_demand_hit 1215736
Core_0_STLB_demand_miss 735553
Core_0_STLB_demand_mshr_merge 0
Core_0_STLB_demand_fill 735553
Core_0_STLB_demand_miss_rate 0.376957
Core_0_STLB_demand_mpki 7.35553
Core_0_STLB_vberti_prefetch_access 6102
Core_0_STLB_vberti_prefetch_hit 3584
Core_0_STLB_vberti_prefetch_miss 2518
Core_0_STLB_vberti_prefetch_mshr_merge 0
Core_0_STLB_vberti_prefetch_fill 2518
Core_0_STLB_vberti_prefetch_miss_rate 0.412652
Core_0_STLB_vberti_prefetch_mpki 0.02518

=== STLB_vBerti Same/Cross-page Prefetch Stats ===
Core_0_STLB_vberti_same_page_prefetch 45
Core_0_STLB_vberti_same_page_prefetch_hit 45
Core_0_STLB_vberti_same_page_prefetch_miss 0
Core_0_STLB_vberti_same_page_prefetch_mshr_merge 0
Core_0_STLB_vberti_same_page_prefetch_fill 0
Core_0_STLB_vberti_same_page_prefetch_miss_rate 0
Core_0_STLB_vberti_same_page_prefetch_mpki 0
Core_0_STLB_vberti_cross_page_prefetch 6057
Core_0_STLB_vberti_cross_page_prefetch_hit 3539
Core_0_STLB_vberti_cross_page_prefetch_miss 2518
Core_0_STLB_vberti_cross_page_prefetch_mshr_merge 0
Core_0_STLB_vberti_cross_page_prefetch_fill 2518
Core_0_STLB_vberti_cross_page_prefetch_miss_rate 0.415717
Core_0_STLB_vberti_cross_page_prefetch_mpki 0.02518
Core_0_STLB_same_page_prefetch_miss_rate 0
Core_0_STLB_same_page_prefetch_mpki 0
Core_0_STLB_cross_page_prefetch_miss_rate 0.415717
Core_0_STLB_cross_page_prefetch_mpki 0.02518
Core_0_STLB_cross_page_prefetch_issued 6057
Core_0_STLB_cross_page_prefetch_lookups 6057
Core_0_STLB_cross_page_prefetch_useful 1147
Core_0_STLB_cross_page_prefetch_useless 1371
Core_0_STLB_cross_page_prefetch_late 0
Core_0_STLB_cross_page_prefetch_too_early 182
Core_0_STLB_cross_page_prefetch_too_early_among_fill 0.0722796
Core_0_STLB_cross_page_prefetch_too_early_among_useless 0.13275
Core_0_STLB_cross_page_prefetch_pollution_evict 2402
Core_0_STLB_cross_page_prefetch_pollution_demand 2402
Core_0_STLB_cross_page_prefetch_pollution_among_prefetch_fill 0.953932
Core_0_STLB_cross_page_prefetch_accuracy 0.189368
Core_0_STLB_cross_page_prefetch_coverage 0.00155694

========= STLB Cross-page Prefetch Buffer Stats =========
Core_0_STLB_raw_demand_miss 735553
Core_0_CP_PB_insert 0
Core_0_CP_PB_demand_hit 0
Core_0_STLB_PB_demand_miss 735553
Core_0_CP_PB_coverage 0
Core_0_STLB_raw_demand_mpki 7.35553
Core_0_STLB_PB_demand_mpki 7.35553
Core_0_CP_PB_demand_hit_mpki 0

Core_0_TLB_demand_miss_rate 0.016342
Core_0_TLB_demand_mpki 7.35553
Core_0_TLB_same_page_prefetch_miss_rate 0
Core_0_TLB_same_page_prefetch_mpki 0
Core_0_TLB_cross_page_prefetch_miss_rate 0.00188999
Core_0_TLB_cross_page_prefetch_mpki 0.02518
Core_0_TLB_cross_page_prefetch_issued 1332280
Core_0_TLB_cross_page_prefetch_lookups 1332280
Core_0_TLB_cross_page_prefetch_useful 1672
Core_0_TLB_cross_page_prefetch_useless 765
Core_0_TLB_cross_page_prefetch_late 1
Core_0_TLB_cross_page_prefetch_too_early 356
Core_0_TLB_cross_page_prefetch_too_early_among_fill 0.0415209
Core_0_TLB_cross_page_prefetch_too_early_among_useless 0.465359
Core_0_TLB_cross_page_prefetch_accuracy 0.00125499
Core_0_TLB_cross_page_prefetch_coverage 0.00226796
====== vBerti internal metric ========
Core_0_vBerti_end_to_end_issued 36393971
Core_0_vBerti_end_to_end_useful 6765
Core_0_vBerti_end_to_end_late 147
Core_0_vBerti_end_to_end_accuracy 0.000185882
Core_0_vBerti_end_to_end_timely_accuracy 0.000181843
BERTI TO_L1: 72716063 TO_L2: 7535716 TO_L2_BC_MSHR: 104
BERTI AVG_LAT: 57.9877 NUM_TRACK_LATENCY: 5450260 NUM_CANT_TRACK_LATENCY: 0
BERTI CROSS_PAGE 6566697 NO_CROSS_PAGE: 80251779
BERTI FOUND_BERTI: 31420506 NO_FOUND_BERTI: 16033392
BERTI AVERAGE_ISSUED: 3.19073
