[VMEM] WARNING: physical memory size is smaller than virtual memory size.

*** ChampSim Multicore Out-of-Order Simulator ***
Warmup Instructions: 50000000
Simulation Instructions: 100000000
Number of CPUs: 1
Page size: 4096
Core 0: /data2/zcq/champsim_traces_gap/bc.twitter-2320B.champsimtrace.xz
VBerti Prefetcher
BERTI HASH ENTANGLING
BERTI IP MASK ffff
Off-chip DRAM Size: 16 GiB Channels: 1 Width: 64-bit Data Rate: 3205 MT/s
Warmup halting CPU 0 at instruction 50000004 cycle 19848894 for remainder of phase
Warmup finished CPU 0 instructions: 50000004 cycles: 19848894 cumulative IPC: 2.519 (Simulation time: 00 hr 03 min 13 sec)
Warmup complete CPU 0 instructions: 50000004 cycles: 19848894 cumulative IPC: 2.519 (Simulation time: 00 hr 03 min 13 sec)
Simulation finished CPU 0 instructions: 100000003 cycles: 169746139 cumulative IPC: 0.5891 (Simulation time: 00 hr 19 min 44 sec)
Simulation complete CPU 0 instructions: 100000003 cycles: 169746139 cumulative IPC: 0.5891 (Simulation time: 00 hr 19 min 44 sec)

ChampSim completed all CPUs

=== Simulation ===
CPU 0 runs /data2/zcq/champsim_traces_gap/bc.twitter-2320B.champsimtrace.xz

Region of Interest Statistics

CPU 0 cumulative IPC: 0.5891 instructions: 100000003 cycles: 169746139
CPU 0 Branch Prediction Accuracy: 92.5% MPKI: 11.82 Average ROB Occupancy at Mispredict: 166
Branch type MPKI
BRANCH_DIRECT_JUMP: 0
BRANCH_INDIRECT: 0
BRANCH_CONDITIONAL: 11.82
BRANCH_DIRECT_CALL: 0
BRANCH_INDIRECT_CALL: 0
BRANCH_RETURN: 0

cpu0->cpu0_STLB TOTAL        ACCESS:    1971182 HIT:      63209 MISS:    1907973 MSHR_MERGE:          0
cpu0->cpu0_STLB LOAD         ACCESS:    1971182 HIT:      63209 MISS:    1907973 MSHR_MERGE:          0
cpu0->cpu0_STLB RFO          ACCESS:          0 HIT:          0 MISS:          0 MSHR_MERGE:          0
cpu0->cpu0_STLB PREFETCH     ACCESS:          0 HIT:          0 MISS:          0 MSHR_MERGE:          0
cpu0->cpu0_STLB WRITE        ACCESS:          0 HIT:          0 MISS:          0 MSHR_MERGE:          0
cpu0->cpu0_STLB TRANSLATION  ACCESS:          0 HIT:          0 MISS:          0 MSHR_MERGE:          0
cpu0->cpu0_STLB PREFETCH REQUESTED:          0 ISSUED:          0 USEFUL:          0 USELESS:          0 LATE:          0 TOO_EARLY:          0
cpu0->cpu0_STLB AVERAGE MISS LATENCY: 65 cycles
cpu0->cpu0_L2C TOTAL        ACCESS:    8614978 HIT:    3899971 MISS:    4715007 MSHR_MERGE:     462897
cpu0->cpu0_L2C LOAD         ACCESS:    2571126 HIT:      93249 MISS:    2477877 MSHR_MERGE:      10429
cpu0->cpu0_L2C RFO          ACCESS:      22503 HIT:         39 MISS:      22464 MSHR_MERGE:          0
cpu0->cpu0_L2C PREFETCH     ACCESS:    4293124 HIT:    3339887 MISS:     953237 MSHR_MERGE:     452468
cpu0->cpu0_L2C WRITE        ACCESS:      45783 HIT:      45783 MISS:          0 MSHR_MERGE:          0
cpu0->cpu0_L2C TRANSLATION  ACCESS:    1682442 HIT:     421013 MISS:    1261429 MSHR_MERGE:          0
cpu0->cpu0_L2C PREFETCH REQUESTED:     760361 ISSUED:     760361 USEFUL:     169949 USELESS:      96073 LATE:       7906 TOO_EARLY:        198
cpu0->cpu0_L2C AVERAGE MISS LATENCY: 177 cycles
cpu0->cpu0_L1I TOTAL        ACCESS:    1303311 HIT:    1303311 MISS:          0 MSHR_MERGE:          0
cpu0->cpu0_L1I LOAD         ACCESS:    1303311 HIT:    1303311 MISS:          0 MSHR_MERGE:          0
cpu0->cpu0_L1I RFO          ACCESS:          0 HIT:          0 MISS:          0 MSHR_MERGE:          0
cpu0->cpu0_L1I PREFETCH     ACCESS:          0 HIT:          0 MISS:          0 MSHR_MERGE:          0
cpu0->cpu0_L1I WRITE        ACCESS:          0 HIT:          0 MISS:          0 MSHR_MERGE:          0
cpu0->cpu0_L1I TRANSLATION  ACCESS:          0 HIT:          0 MISS:          0 MSHR_MERGE:          0
cpu0->cpu0_L1I PREFETCH REQUESTED:          0 ISSUED:          0 USEFUL:          0 USELESS:          0 LATE:          0 TOO_EARLY:          0
cpu0->cpu0_L1I AVERAGE MISS LATENCY: - cycles
cpu0->cpu0_L1D TOTAL        ACCESS:   25412677 HIT:   17128663 MISS:    8284014 MSHR_MERGE:     426926
cpu0->cpu0_L1D LOAD         ACCESS:   13877777 HIT:   10926481 MISS:    2951296 MSHR_MERGE:     380170
cpu0->cpu0_L1D RFO          ACCESS:          0 HIT:          0 MISS:          0 MSHR_MERGE:          0
cpu0->cpu0_L1D PREFETCH     ACCESS:    6969053 HIT:    3373951 MISS:    3595102 MSHR_MERGE:      14085
cpu0->cpu0_L1D WRITE        ACCESS:      47628 HIT:      25120 MISS:      22508 MSHR_MERGE:          5
cpu0->cpu0_L1D TRANSLATION  ACCESS:    4518219 HIT:    2803111 MISS:    1715108 MSHR_MERGE:      32666
cpu0->cpu0_L1D PREFETCH REQUESTED:    7258589 ISSUED:    7167179 USEFUL:     189597 USELESS:      56071 LATE:       1994 TOO_EARLY:        554
cpu0->cpu0_L1D AVERAGE MISS LATENCY: 164.6 cycles
cpu0->cpu0_ITLB TOTAL        ACCESS:    1301340 HIT:    1301340 MISS:          0 MSHR_MERGE:          0
cpu0->cpu0_ITLB LOAD         ACCESS:    1301340 HIT:    1301340 MISS:          0 MSHR_MERGE:          0
cpu0->cpu0_ITLB RFO          ACCESS:          0 HIT:          0 MISS:          0 MSHR_MERGE:          0
cpu0->cpu0_ITLB PREFETCH     ACCESS:          0 HIT:          0 MISS:          0 MSHR_MERGE:          0
cpu0->cpu0_ITLB WRITE        ACCESS:          0 HIT:          0 MISS:          0 MSHR_MERGE:          0
cpu0->cpu0_ITLB TRANSLATION  ACCESS:          0 HIT:          0 MISS:          0 MSHR_MERGE:          0
cpu0->cpu0_ITLB PREFETCH REQUESTED:          0 ISSUED:          0 USEFUL:          0 USELESS:          0 LATE:          0 TOO_EARLY:          0
cpu0->cpu0_ITLB AVERAGE MISS LATENCY: - cycles
cpu0->cpu0_DTLB TOTAL        ACCESS:   17674946 HIT:   15408517 MISS:    2266429 MSHR_MERGE:     295247
cpu0->cpu0_DTLB LOAD         ACCESS:   17674946 HIT:   15408517 MISS:    2266429 MSHR_MERGE:     295247
cpu0->cpu0_DTLB RFO          ACCESS:          0 HIT:          0 MISS:          0 MSHR_MERGE:          0
cpu0->cpu0_DTLB PREFETCH     ACCESS:          0 HIT:          0 MISS:          0 MSHR_MERGE:          0
cpu0->cpu0_DTLB WRITE        ACCESS:          0 HIT:          0 MISS:          0 MSHR_MERGE:          0
cpu0->cpu0_DTLB TRANSLATION  ACCESS:          0 HIT:          0 MISS:          0 MSHR_MERGE:          0
cpu0->cpu0_DTLB PREFETCH REQUESTED:          0 ISSUED:          0 USEFUL:          0 USELESS:          0 LATE:          0 TOO_EARLY:          0
cpu0->cpu0_DTLB AVERAGE MISS LATENCY: 68.9 cycles
cpu0->LLC TOTAL        ACCESS:    4297631 HIT:    1100245 MISS:    3197386 MSHR_MERGE:       1223
cpu0->LLC LOAD         ACCESS:    2467448 HIT:      22643 MISS:    2444805 MSHR_MERGE:        647
cpu0->LLC RFO          ACCESS:      22464 HIT:         76 MISS:      22388 MSHR_MERGE:          0
cpu0->LLC PREFETCH     ACCESS:     500769 HIT:        737 MISS:     500032 MSHR_MERGE:        576
cpu0->LLC WRITE        ACCESS:      45521 HIT:       8816 MISS:      36705 MSHR_MERGE:          0
cpu0->LLC TRANSLATION  ACCESS:    1261429 HIT:    1067973 MISS:     193456 MSHR_MERGE:          0
cpu0->LLC PREFETCH REQUESTED:          0 ISSUED:          0 USEFUL:          0 USELESS:          0 LATE:          0 TOO_EARLY:          0
cpu0->LLC AVERAGE MISS LATENCY: 224.5 cycles

DRAM Statistics

Channel 0 RQ ROW_BUFFER_HIT:      39322
  ROW_BUFFER_MISS:    3120132
  AVG DBUS CONGESTED CYCLE: 5.701
Channel 0 WQ ROW_BUFFER_HIT:      12881
  ROW_BUFFER_MISS:      31600
  FULL:          0
Channel 0 REFRESHES ISSUED:      14145

[ROI Statistics]
[System Configuration]
num_cpus 1
cpu_freq 4000
fetch_width 6
decode_width 6
dispatch_width 6
execute_width 6
lq_width 2
sq_width 2
retire_width 6
scheduler_size 128
branch_mispredict_penalty 15
rob_size 352
lq_size 128
sq_size 72
ifetch_buffer_size 64
decode_buffer_size 32
dispatch_buffer_size 32
register_file_size 288
decode_latency 1
dispatch_latency 1
schedule_latency 1
execute_latency 1
page_size 4096
block_size 64
core_0_itlb_set 16
core_0_itlb_way 4
core_0_itlb_rq_size 16
core_0_itlb_wq_size 16
core_0_itlb_pq_size 0
core_0_itlb_mshr_size 8
core_0_itlb_hit_latency 1
core_0_itlb_fill_latency 1
core_0_itlb_max_tag_check 2
core_0_itlb_max_fill 2
core_0_dtlb_set 16
core_0_dtlb_way 4
core_0_dtlb_rq_size 16
core_0_dtlb_wq_size 16
core_0_dtlb_pq_size 0
core_0_dtlb_mshr_size 8
core_0_dtlb_hit_latency 1
core_0_dtlb_fill_latency 1
core_0_dtlb_max_tag_check 2
core_0_dtlb_max_fill 2
core_0_stlb_set 128
core_0_stlb_way 12
core_0_stlb_rq_size 32
core_0_stlb_wq_size 32
core_0_stlb_pq_size 0
core_0_stlb_mshr_size 16
core_0_stlb_hit_latency 4
core_0_stlb_fill_latency 4
core_0_stlb_max_tag_check 1
core_0_stlb_max_fill 1
core_0_l1i_set 64
core_0_l1i_way 8
core_0_l1i_rq_size 64
core_0_l1i_wq_size 64
core_0_l1i_pq_size 32
core_0_l1i_mshr_size 8
core_0_l1i_hit_latency 2
core_0_l1i_fill_latency 2
core_0_l1i_max_tag_check 2
core_0_l1i_max_fill 2
core_0_l1d_set 64
core_0_l1d_way 12
core_0_l1d_rq_size 64
core_0_l1d_wq_size 64
core_0_l1d_pq_size 8
core_0_l1d_mshr_size 16
core_0_l1d_hit_latency 2
core_0_l1d_fill_latency 3
core_0_l1d_max_tag_check 2
core_0_l1d_max_fill 2
core_0_l2c_set 1024
core_0_l2c_way 8
core_0_l2c_rq_size 32
core_0_l2c_wq_size 32
core_0_l2c_pq_size 16
core_0_l2c_mshr_size 32
core_0_l2c_hit_latency 5
core_0_l2c_fill_latency 5
core_0_l2c_max_tag_check 1
core_0_l2c_max_fill 1
llc_set 2048
llc_way 16
llc_rq_size 32
llc_wq_size 32
llc_pq_size 32
llc_mshr_size 64
llc_hit_latency 10
llc_fill_latency 10
llc_max_tag_check 1
llc_max_fill 1
dram_channels 1
dram_ranks 1
dram_bankgroups 8
dram_banks 4
dram_rows 65536
dram_columns 1024
dram_channel_width 8
dram_rq_size 64
dram_wq_size 64
dram_size 17179869184
core_0_itlb_prefetcher no
core_0_dtlb_prefetcher no
core_0_stlb_prefetcher no
core_0_l1i_prefetcher next_line
core_0_l1d_prefetcher vberti
core_0_l2c_prefetcher ip_stride
llc_prefetcher no
llc_replacement drrip

Core_0_instructions 100000003
Core_0_cycles 169746139
Core_0_IPC 0.589115
Core_0_branch_prediction_accuracy 92.5019
Core_0_branch_MPKI 11.8244
Core_0_average_ROB_occupancy_at_mispredict 166.028

Core_0_ITLB_total_access 1301340
Core_0_ITLB_total_hit 1301340
Core_0_ITLB_total_miss 0
Core_0_ITLB_total_MPKI 0
Core_0_ITLB_total_miss_rate 0
Core_0_ITLB_demand_access 1301340
Core_0_ITLB_demand_hit 1301340
Core_0_ITLB_demand_miss 0
Core_0_ITLB_demand_MPKI 0
Core_0_ITLB_demand_miss_rate 0
Core_0_ITLB_load_access 1301340
Core_0_ITLB_load_hit 1301340
Core_0_ITLB_load_miss 0
Core_0_ITLB_load_MPKI 0
Core_0_ITLB_load_miss_rate 0
Core_0_ITLB_rfo_access 0
Core_0_ITLB_rfo_hit 0
Core_0_ITLB_rfo_miss 0
Core_0_ITLB_rfo_MPKI 0
Core_0_ITLB_rfo_miss_rate 0
Core_0_ITLB_prefetch_access 0
Core_0_ITLB_prefetch_hit 0
Core_0_ITLB_prefetch_miss 0
Core_0_ITLB_prefetch_MPKI 0
Core_0_ITLB_prefetch_miss_rate 0
Core_0_ITLB_writeback_access 0
Core_0_ITLB_writeback_hit 0
Core_0_ITLB_writeback_miss 0
Core_0_ITLB_writeback_MPKI 0
Core_0_ITLB_writeback_miss_rate 0
Core_0_ITLB_prefetch_requested 0
Core_0_ITLB_prefetch_issued 0
Core_0_ITLB_prefetch_useful 0
Core_0_ITLB_prefetch_useless 0
Core_0_ITLB_prefetch_late 0
Core_0_ITLB_prefetch_fill 0
Core_0_ITLB_prefetch_too_early 0
Core_0_ITLB_prefetch_too_early_among_fill 0
Core_0_ITLB_prefetch_too_early_among_useless 0
Core_0_ITLB_prefetch_pollution_evict 0
Core_0_ITLB_prefetch_pollution_demand 0
Core_0_ITLB_prefetch_pollution_among_prefetch_fill 0
Core_0_ITLB_prefetch_accuracy 0
Core_0_ITLB_prefetch_coverage 0

Core_0_DTLB_total_access 17674946
Core_0_DTLB_total_hit 15408517
Core_0_DTLB_total_miss 2266429
Core_0_DTLB_total_MPKI 22.6643
Core_0_DTLB_total_miss_rate 0.128228
Core_0_DTLB_demand_access 17674946
Core_0_DTLB_demand_hit 15408517
Core_0_DTLB_demand_miss 2266429
Core_0_DTLB_demand_MPKI 22.6643
Core_0_DTLB_demand_miss_rate 0.128228
Core_0_DTLB_load_access 17674946
Core_0_DTLB_load_hit 15408517
Core_0_DTLB_load_miss 2266429
Core_0_DTLB_load_MPKI 22.6643
Core_0_DTLB_load_miss_rate 0.128228
Core_0_DTLB_rfo_access 0
Core_0_DTLB_rfo_hit 0
Core_0_DTLB_rfo_miss 0
Core_0_DTLB_rfo_MPKI 0
Core_0_DTLB_rfo_miss_rate 0
Core_0_DTLB_prefetch_access 0
Core_0_DTLB_prefetch_hit 0
Core_0_DTLB_prefetch_miss 0
Core_0_DTLB_prefetch_MPKI 0
Core_0_DTLB_prefetch_miss_rate 0
Core_0_DTLB_writeback_access 0
Core_0_DTLB_writeback_hit 0
Core_0_DTLB_writeback_miss 0
Core_0_DTLB_writeback_MPKI 0
Core_0_DTLB_writeback_miss_rate 0
Core_0_DTLB_prefetch_requested 0
Core_0_DTLB_prefetch_issued 0
Core_0_DTLB_prefetch_useful 0
Core_0_DTLB_prefetch_useless 0
Core_0_DTLB_prefetch_late 0
Core_0_DTLB_prefetch_fill 0
Core_0_DTLB_prefetch_too_early 0
Core_0_DTLB_prefetch_too_early_among_fill 0
Core_0_DTLB_prefetch_too_early_among_useless 0
Core_0_DTLB_prefetch_pollution_evict 0
Core_0_DTLB_prefetch_pollution_demand 0
Core_0_DTLB_prefetch_pollution_among_prefetch_fill 0
Core_0_DTLB_prefetch_accuracy 0
Core_0_DTLB_prefetch_coverage 0

Core_0_STLB_total_access 1971182
Core_0_STLB_total_hit 63209
Core_0_STLB_total_miss 1907973
Core_0_STLB_total_MPKI 19.0797
Core_0_STLB_total_miss_rate 0.967933
Core_0_STLB_demand_access 1971182
Core_0_STLB_demand_hit 63209
Core_0_STLB_demand_miss 1907973
Core_0_STLB_demand_MPKI 19.0797
Core_0_STLB_demand_miss_rate 0.967933
Core_0_STLB_load_access 1971182
Core_0_STLB_load_hit 63209
Core_0_STLB_load_miss 1907973
Core_0_STLB_load_MPKI 19.0797
Core_0_STLB_load_miss_rate 0.967933
Core_0_STLB_rfo_access 0
Core_0_STLB_rfo_hit 0
Core_0_STLB_rfo_miss 0
Core_0_STLB_rfo_MPKI 0
Core_0_STLB_rfo_miss_rate 0
Core_0_STLB_prefetch_access 0
Core_0_STLB_prefetch_hit 0
Core_0_STLB_prefetch_miss 0
Core_0_STLB_prefetch_MPKI 0
Core_0_STLB_prefetch_miss_rate 0
Core_0_STLB_writeback_access 0
Core_0_STLB_writeback_hit 0
Core_0_STLB_writeback_miss 0
Core_0_STLB_writeback_MPKI 0
Core_0_STLB_writeback_miss_rate 0
Core_0_STLB_prefetch_requested 0
Core_0_STLB_prefetch_issued 0
Core_0_STLB_prefetch_useful 0
Core_0_STLB_prefetch_useless 0
Core_0_STLB_prefetch_late 0
Core_0_STLB_prefetch_fill 0
Core_0_STLB_prefetch_too_early 0
Core_0_STLB_prefetch_too_early_among_fill 0
Core_0_STLB_prefetch_too_early_among_useless 0
Core_0_STLB_prefetch_pollution_evict 0
Core_0_STLB_prefetch_pollution_demand 0
Core_0_STLB_prefetch_pollution_among_prefetch_fill 0
Core_0_STLB_prefetch_accuracy 0
Core_0_STLB_prefetch_coverage 0

Core_0_L1I_total_access 1303311
Core_0_L1I_total_hit 1303311
Core_0_L1I_total_miss 0
Core_0_L1I_total_MPKI 0
Core_0_L1I_total_miss_rate 0
Core_0_L1I_demand_access 1303311
Core_0_L1I_demand_hit 1303311
Core_0_L1I_demand_miss 0
Core_0_L1I_demand_MPKI 0
Core_0_L1I_demand_miss_rate 0
Core_0_L1I_load_access 1303311
Core_0_L1I_load_hit 1303311
Core_0_L1I_load_miss 0
Core_0_L1I_load_MPKI 0
Core_0_L1I_load_miss_rate 0
Core_0_L1I_rfo_access 0
Core_0_L1I_rfo_hit 0
Core_0_L1I_rfo_miss 0
Core_0_L1I_rfo_MPKI 0
Core_0_L1I_rfo_miss_rate 0
Core_0_L1I_prefetch_access 0
Core_0_L1I_prefetch_hit 0
Core_0_L1I_prefetch_miss 0
Core_0_L1I_prefetch_MPKI 0
Core_0_L1I_prefetch_miss_rate 0
Core_0_L1I_writeback_access 0
Core_0_L1I_writeback_hit 0
Core_0_L1I_writeback_miss 0
Core_0_L1I_writeback_MPKI 0
Core_0_L1I_writeback_miss_rate 0
Core_0_L1I_prefetch_requested 0
Core_0_L1I_prefetch_issued 0
Core_0_L1I_prefetch_useful 0
Core_0_L1I_prefetch_useless 0
Core_0_L1I_prefetch_late 0
Core_0_L1I_prefetch_fill 0
Core_0_L1I_prefetch_too_early 0
Core_0_L1I_prefetch_too_early_among_fill 0
Core_0_L1I_prefetch_too_early_among_useless 0
Core_0_L1I_prefetch_pollution_evict 0
Core_0_L1I_prefetch_pollution_demand 0
Core_0_L1I_prefetch_pollution_among_prefetch_fill 0
Core_0_L1I_prefetch_accuracy 0
Core_0_L1I_prefetch_coverage 0

Core_0_L1D_total_access 20894458
Core_0_L1D_total_hit 14325552
Core_0_L1D_total_miss 6568906
Core_0_L1D_total_MPKI 65.6891
Core_0_L1D_total_miss_rate 0.314385
Core_0_L1D_demand_access 13877777
Core_0_L1D_demand_hit 10926481
Core_0_L1D_demand_miss 2951296
Core_0_L1D_demand_MPKI 29.513
Core_0_L1D_demand_miss_rate 0.212663
Core_0_L1D_load_access 13877777
Core_0_L1D_load_hit 10926481
Core_0_L1D_load_miss 2951296
Core_0_L1D_load_MPKI 29.513
Core_0_L1D_load_miss_rate 0.212663
Core_0_L1D_rfo_access 0
Core_0_L1D_rfo_hit 0
Core_0_L1D_rfo_miss 0
Core_0_L1D_rfo_MPKI 0
Core_0_L1D_rfo_miss_rate 0
Core_0_L1D_prefetch_access 6969053
Core_0_L1D_prefetch_hit 3373951
Core_0_L1D_prefetch_miss 3595102
Core_0_L1D_prefetch_MPKI 35.951
Core_0_L1D_prefetch_miss_rate 0.515867
Core_0_L1D_writeback_access 47628
Core_0_L1D_writeback_hit 25120
Core_0_L1D_writeback_miss 22508
Core_0_L1D_writeback_MPKI 0.22508
Core_0_L1D_writeback_miss_rate 0.472579
Core_0_L1D_prefetch_requested 7258589
Core_0_L1D_prefetch_issued 7167179
Core_0_L1D_prefetch_useful 189597
Core_0_L1D_prefetch_useless 56071
Core_0_L1D_prefetch_late 1994
Core_0_L1D_prefetch_fill 243673
Core_0_L1D_prefetch_too_early 554
Core_0_L1D_prefetch_too_early_among_fill 0.00227354
Core_0_L1D_prefetch_too_early_among_useless 0.00988033
Core_0_L1D_prefetch_pollution_evict 1934
Core_0_L1D_prefetch_pollution_demand 1918
Core_0_L1D_cross_page_pf_translation_only_requested 207857
Core_0_L1D_cross_page_pf_translation_only_issued 198127
Core_0_L1D_cross_page_pf_translation_only_dropped 198127
Core_0_L1D_prefetch_pollution_among_prefetch_fill 0.00793687
Core_0_L1D_prefetch_accuracy 0.0264535
Core_0_L1D_prefetch_coverage 0.060364

Core_0_L2C_total_access 6932536
Core_0_L2C_total_hit 3478958
Core_0_L2C_total_miss 3453578
Core_0_L2C_total_MPKI 34.5358
Core_0_L2C_total_miss_rate 0.49817
Core_0_L2C_demand_access 2593629
Core_0_L2C_demand_hit 93288
Core_0_L2C_demand_miss 2500341
Core_0_L2C_demand_MPKI 25.0034
Core_0_L2C_demand_miss_rate 0.964032
Core_0_L2C_load_access 2571126
Core_0_L2C_load_hit 93249
Core_0_L2C_load_miss 2477877
Core_0_L2C_load_MPKI 24.7788
Core_0_L2C_load_miss_rate 0.963732
Core_0_L2C_rfo_access 22503
Core_0_L2C_rfo_hit 39
Core_0_L2C_rfo_miss 22464
Core_0_L2C_rfo_MPKI 0.22464
Core_0_L2C_rfo_miss_rate 0.998267
Core_0_L2C_prefetch_access 4293124
Core_0_L2C_prefetch_hit 3339887
Core_0_L2C_prefetch_miss 953237
Core_0_L2C_prefetch_MPKI 9.53237
Core_0_L2C_prefetch_miss_rate 0.222038
Core_0_L2C_writeback_access 45783
Core_0_L2C_writeback_hit 45783
Core_0_L2C_writeback_miss 0
Core_0_L2C_writeback_MPKI 0
Core_0_L2C_writeback_miss_rate 0
Core_0_L2C_prefetch_requested 760361
Core_0_L2C_prefetch_issued 760361
Core_0_L2C_prefetch_useful 169949
Core_0_L2C_prefetch_useless 96073
Core_0_L2C_prefetch_late 7906
Core_0_L2C_prefetch_fill 483509
Core_0_L2C_prefetch_too_early 198
Core_0_L2C_prefetch_too_early_among_fill 0.000409506
Core_0_L2C_prefetch_too_early_among_useless 0.00206093
Core_0_L2C_prefetch_pollution_evict 7335
Core_0_L2C_prefetch_pollution_demand 7333
Core_0_L2C_prefetch_pollution_among_prefetch_fill 0.0151703
Core_0_L2C_prefetch_accuracy 0.223511
Core_0_L2C_prefetch_coverage 0.0636444

Core_0_LLC_total_access 3036202
Core_0_LLC_total_hit 32272
Core_0_LLC_total_miss 3003930
Core_0_LLC_total_MPKI 30.0393
Core_0_LLC_total_miss_rate 0.989371
Core_0_LLC_demand_access 2489912
Core_0_LLC_demand_hit 22719
Core_0_LLC_demand_miss 2467193
Core_0_LLC_demand_MPKI 24.6719
Core_0_LLC_demand_miss_rate 0.990876
Core_0_LLC_load_access 2467448
Core_0_LLC_load_hit 22643
Core_0_LLC_load_miss 2444805
Core_0_LLC_load_MPKI 24.448
Core_0_LLC_load_miss_rate 0.990823
Core_0_LLC_rfo_access 22464
Core_0_LLC_rfo_hit 76
Core_0_LLC_rfo_miss 22388
Core_0_LLC_rfo_MPKI 0.22388
Core_0_LLC_rfo_miss_rate 0.996617
Core_0_LLC_prefetch_access 500769
Core_0_LLC_prefetch_hit 737
Core_0_LLC_prefetch_miss 500032
Core_0_LLC_prefetch_MPKI 5.00032
Core_0_LLC_prefetch_miss_rate 0.998528
Core_0_LLC_writeback_access 45521
Core_0_LLC_writeback_hit 8816
Core_0_LLC_writeback_miss 36705
Core_0_LLC_writeback_MPKI 0.36705
Core_0_LLC_writeback_miss_rate 0.806331
Core_0_LLC_prefetch_requested 0
Core_0_LLC_prefetch_issued 0
Core_0_LLC_prefetch_useful 0
Core_0_LLC_prefetch_useless 0
Core_0_LLC_prefetch_late 0
Core_0_LLC_prefetch_fill 498809
Core_0_LLC_prefetch_too_early 0
Core_0_LLC_prefetch_too_early_among_fill 0
Core_0_LLC_prefetch_too_early_among_useless 0
Core_0_LLC_prefetch_pollution_evict 21134
Core_0_LLC_prefetch_pollution_demand 21134
Core_0_LLC_prefetch_pollution_among_prefetch_fill 0.0423689
Core_0_LLC_prefetch_accuracy 0
Core_0_LLC_prefetch_coverage 0

[DRAM Statistics]
Channel_0_RQ_row_buffer_hit 39322
Channel_0_RQ_row_buffer_miss 3120132
Channel_0_WQ_row_buffer_hit 12881
Channel_0_WQ_row_buffer_miss 31600
Channel_0_WQ_full 0
Channel_0_dbus_congested 4481181
DRAM_total_RQ_row_buffer_hit 39322
DRAM_total_RQ_row_buffer_miss 3120132
DRAM_total_WQ_row_buffer_hit 12881
DRAM_total_WQ_row_buffer_miss 31600
DRAM_total_WQ_full 0
DRAM_total_dbus_congested 4481181
DRAM_avg_congested_cycle 5.70097

====== DRAM_RQ_TRAFFIC ========
DRAM_RQ_READ_TRAFFIC_BREAKDOWN:
data_demand_read.count = 2466546
data_demand_read.share = 78.07%

inst_demand_read.count = 0
inst_demand_read.share = 0.00%

cache_inst_prefetch.count = 0
cache_inst_prefetch.share = 0.00%

cache_data_prefetch.count = 499456
cache_data_prefetch.share = 15.81%

stlb_data_demand.count = 192586
stlb_data_demand.share = 6.10%

stlb_inst_demand.count = 0
stlb_inst_demand.share = 0.00%

stlb_l1i_pref.count = 0
stlb_l1i_pref.share = 0.00%

stlb_l1d_pref.count = 870
stlb_l1d_pref.share = 0.03%

DRAM_RQ_READ_TRAFFIC_SUMMARY:
cache_demand.count = 2466546
cache_demand.share = 78.07%

cache_prefetch.count = 499456
cache_prefetch.share = 15.81%

stlb_demand.count = 192586
stlb_demand.share = 6.10%

stlb_prefetch.count = 870
stlb_prefetch.share = 0.03%

DRAM_RQ_READ_TRAFFIC_DEBUG:
total_classified_read.count = 3159458
unclassified_read.count = 0
total_read_with_other.count = 3159458

classified_plus_unclassified_check.count = 3159458
dram_rq_read_total_observed.count = 3159458
dram_rq_read_total_observed.per_1K_instructions = 31.5946

STLB_MISS_PTW_DRAM_TOUCH_BREAKDOWN:
stlb_miss_total.count = 1907973

stlb_miss_touch_dram.count = 188505
stlb_miss_touch_dram.share = 9.88%

stlb_miss_no_dram_touch.count = 1719468
stlb_miss_no_dram_touch.share = 90.12%

STLB_MISS_PTW_DRAM_TOUCH_DEBUG:
stlb_miss_touch_plus_no_touch.count = 1907973
stlb_miss_total_check.count = 1907973

======STLB miss causes ========
Core_0_STLB_miss_cause_breakdown
Core_0_STLB_cause_Demand_Data_miss 1898108
Core_0_STLB_cause_Demand_Data_miss_rate 0.962929
Core_0_STLB_cause_Demand_Instruction_miss 0
Core_0_STLB_cause_Demand_Instruction_miss_rate 0
Core_0_STLB_cause_L1D_Prefetch_miss 9865
Core_0_STLB_cause_L1D_Prefetch_miss_rate 0.00500461
Core_0_STLB_cause_L1D_Prefetch_Same_Page_miss 0
Core_0_STLB_cause_L1D_Prefetch_Same_Page_miss_rate 0
Core_0_STLB_cause_L1D_Prefetch_Cross_Page_miss 9865
Core_0_STLB_cause_L1D_Prefetch_Cross_Page_miss_rate 0.00500461
Core_0_STLB_cause_L1I_Prefetch_miss 0
Core_0_STLB_cause_L1I_Prefetch_miss_rate 0
Core_0_STLB_cause_Other_miss 0
Core_0_STLB_cause_Other_miss_rate 0
Core_0_STLB_Demand_miss 1898108
Core_0_STLB_Demand_miss_rate 0.962929
Core_0_STLB_L1D_Prefetch_miss 9865
Core_0_STLB_L1D_Prefetch_miss_rate 0.00500461
Core_0_STLB_Other_miss 0
Core_0_STLB_Other_miss_rate 0

========== vBerti-TLB Cross-page Flow Stats ==========

Core_0_vBerti_Requested 7258589
Core_0_vBerti_Cross_page_prefetch_in_Requested 207857
Core_0_vBerti_Same_page_prefetch_in_Requested 7050732
Core_0_vBerti_Cross_page_prefetch_of_Requested 0.028636
Core_0_vBerti_Issued 7167179
Core_0_vBerti_InPQ_Same_page_prefetch 6969052
Core_0_vBerti_InPQ_Cross_page_prefetch 198127
Core_0_vBerti_PQ_Drop_Rate 0.0125934
Core_0_vBerti_InPQ_Cross_page_prefetch_of_Requested 0.0272955
Core_0_vBerti_Cross_page_PQ_Drop_rate 0.046811
Core_0_vBerti_Cross_page_prefetch_of_Issued 0.0276437
Core_0_CP_PF_PQFULL_drop 9730
Core_0_CP_PF_PQFULL_TLB_rescue_enqueued 0
Core_0_CP_PF_PQFULL_TLB_rescue_issued 0
Core_0_CP_PF_PQFULL_TLB_rescue_translated 0

========= DTLB_vBerti Prefetch Stats =========
Core_0_DTLB_demand_access 13906796
Core_0_DTLB_demand_hit 11668760
Core_0_DTLB_demand_miss 2238036
Core_0_DTLB_demand_mshr_merge 277747
Core_0_DTLB_demand_fill 1960478
Core_0_DTLB_demand_miss_rate 0.160931
Core_0_DTLB_demand_mpki 22.3804
Core_0_DTLB_vberti_prefetch_access 3768150
Core_0_DTLB_vberti_prefetch_hit 3739757
Core_0_DTLB_vberti_prefetch_miss 28393
Core_0_DTLB_vberti_prefetch_mshr_merge 17500
Core_0_DTLB_vberti_prefetch_fill 10704
Core_0_DTLB_vberti_prefetch_miss_rate 0.007535
Core_0_DTLB_vberti_prefetch_mpki 0.28393

=== DTLB_vBerti Same/Cross-page Prefetch Stats ===
Core_0_DTLB_vberti_same_page_prefetch 3609912
Core_0_DTLB_vberti_same_page_prefetch_hit 3609910
Core_0_DTLB_vberti_same_page_prefetch_miss 2
Core_0_DTLB_vberti_same_page_prefetch_mshr_merge 0
Core_0_DTLB_vberti_same_page_prefetch_fill 2
Core_0_DTLB_vberti_same_page_prefetch_miss_rate 5.5403e-07
Core_0_DTLB_vberti_same_page_prefetch_mpki 2e-05
Core_0_DTLB_vberti_cross_page_prefetch 158238
Core_0_DTLB_vberti_cross_page_prefetch_hit 129847
Core_0_DTLB_vberti_cross_page_prefetch_miss 28391
Core_0_DTLB_vberti_cross_page_prefetch_mshr_merge 17500
Core_0_DTLB_vberti_cross_page_prefetch_fill 10702
Core_0_DTLB_vberti_cross_page_prefetch_miss_rate 0.17942
Core_0_DTLB_vberti_cross_page_prefetch_mpki 0.28391
Core_0_DTLB_same_page_prefetch_miss_rate 5.5403e-07
Core_0_DTLB_same_page_prefetch_mpki 2e-05
Core_0_DTLB_cross_page_prefetch_miss_rate 0.17942
Core_0_DTLB_cross_page_prefetch_mpki 0.28391
Core_0_DTLB_cross_page_prefetch_issued 158238
Core_0_DTLB_cross_page_prefetch_lookups 158238
Core_0_DTLB_cross_page_prefetch_useful 7369
Core_0_DTLB_cross_page_prefetch_useless 3522
Core_0_DTLB_cross_page_prefetch_late 189
Core_0_DTLB_cross_page_prefetch_too_early 384
Core_0_DTLB_cross_page_prefetch_too_early_among_fill 0.0358811
Core_0_DTLB_cross_page_prefetch_too_early_among_useless 0.109029
Core_0_DTLB_cross_page_prefetch_pollution_evict 1418
Core_0_DTLB_cross_page_prefetch_pollution_demand 1394
Core_0_DTLB_cross_page_prefetch_pollution_among_prefetch_fill 0.132499
Core_0_DTLB_cross_page_prefetch_accuracy 0.0465691
Core_0_DTLB_cross_page_prefetch_coverage 0.00328181

========= STLB_vBerti Prefetch Stats =========
Core_0_STLB_demand_access 1960289
Core_0_STLB_demand_hit 62181
Core_0_STLB_demand_miss 1898108
Core_0_STLB_demand_mshr_merge 0
Core_0_STLB_demand_fill 1898108
Core_0_STLB_demand_miss_rate 0.96828
Core_0_STLB_demand_mpki 18.9811
Core_0_STLB_vberti_prefetch_access 10893
Core_0_STLB_vberti_prefetch_hit 1028
Core_0_STLB_vberti_prefetch_miss 9865
Core_0_STLB_vberti_prefetch_mshr_merge 0
Core_0_STLB_vberti_prefetch_fill 9865
Core_0_STLB_vberti_prefetch_miss_rate 0.905627
Core_0_STLB_vberti_prefetch_mpki 0.09865

=== STLB_vBerti Same/Cross-page Prefetch Stats ===
Core_0_STLB_vberti_same_page_prefetch 2
Core_0_STLB_vberti_same_page_prefetch_hit 2
Core_0_STLB_vberti_same_page_prefetch_miss 0
Core_0_STLB_vberti_same_page_prefetch_mshr_merge 0
Core_0_STLB_vberti_same_page_prefetch_fill 0
Core_0_STLB_vberti_same_page_prefetch_miss_rate 0
Core_0_STLB_vberti_same_page_prefetch_mpki 0
Core_0_STLB_vberti_cross_page_prefetch 10891
Core_0_STLB_vberti_cross_page_prefetch_hit 1026
Core_0_STLB_vberti_cross_page_prefetch_miss 9865
Core_0_STLB_vberti_cross_page_prefetch_mshr_merge 0
Core_0_STLB_vberti_cross_page_prefetch_fill 9865
Core_0_STLB_vberti_cross_page_prefetch_miss_rate 0.905794
Core_0_STLB_vberti_cross_page_prefetch_mpki 0.09865
Core_0_STLB_same_page_prefetch_miss_rate 0
Core_0_STLB_same_page_prefetch_mpki 0
Core_0_STLB_cross_page_prefetch_miss_rate 0.905794
Core_0_STLB_cross_page_prefetch_mpki 0.09865
Core_0_STLB_cross_page_prefetch_issued 10891
Core_0_STLB_cross_page_prefetch_lookups 10891
Core_0_STLB_cross_page_prefetch_useful 282
Core_0_STLB_cross_page_prefetch_useless 9583
Core_0_STLB_cross_page_prefetch_late 0
Core_0_STLB_cross_page_prefetch_too_early 2189
Core_0_STLB_cross_page_prefetch_too_early_among_fill 0.221896
Core_0_STLB_cross_page_prefetch_too_early_among_useless 0.228425
Core_0_STLB_cross_page_prefetch_pollution_evict 6935
Core_0_STLB_cross_page_prefetch_pollution_demand 6877
Core_0_STLB_cross_page_prefetch_pollution_among_prefetch_fill 0.70299
Core_0_STLB_cross_page_prefetch_accuracy 0.0258929
Core_0_STLB_cross_page_prefetch_coverage 0.000148547

========= STLB Cross-page Prefetch Buffer Stats =========
Core_0_STLB_raw_demand_miss 1898108
Core_0_CP_PB_insert 0
Core_0_CP_PB_demand_hit 0
Core_0_STLB_PB_demand_miss 1898108
Core_0_CP_PB_coverage 0
Core_0_STLB_raw_demand_mpki 18.9811
Core_0_STLB_PB_demand_mpki 18.9811
Core_0_CP_PB_demand_hit_mpki 0

Core_0_TLB_demand_miss_rate 0.136488
Core_0_TLB_demand_mpki 18.9811
Core_0_TLB_same_page_prefetch_miss_rate 0
Core_0_TLB_same_page_prefetch_mpki 0
Core_0_TLB_cross_page_prefetch_miss_rate 0.0623428
Core_0_TLB_cross_page_prefetch_mpki 0.09865
Core_0_TLB_cross_page_prefetch_issued 158238
Core_0_TLB_cross_page_prefetch_lookups 158238
Core_0_TLB_cross_page_prefetch_useful 7369
Core_0_TLB_cross_page_prefetch_useless 3522
Core_0_TLB_cross_page_prefetch_late 189
Core_0_TLB_cross_page_prefetch_too_early 384
Core_0_TLB_cross_page_prefetch_too_early_among_fill 0.0186707
Core_0_TLB_cross_page_prefetch_too_early_among_useless 0.109029
Core_0_TLB_cross_page_prefetch_accuracy 0.0465691
Core_0_TLB_cross_page_prefetch_coverage 0.00386727
====== vBerti internal metric ========
Core_0_vBerti_end_to_end_issued 6969052
Core_0_vBerti_end_to_end_useful 79116
Core_0_vBerti_end_to_end_late 4497
Core_0_vBerti_end_to_end_accuracy 0.0113525
Core_0_vBerti_end_to_end_timely_accuracy 0.0107072
BERTI TO_L1: 3468685 TO_L2: 3582047 TO_L2_BC_MSHR: 77109
BERTI AVG_LAT: 229.774 NUM_TRACK_LATENCY: 2829496 NUM_CANT_TRACK_LATENCY: 0
BERTI CROSS_PAGE 207857 NO_CROSS_PAGE: 7050732
BERTI FOUND_BERTI: 13290802 NO_FOUND_BERTI: 1240157
BERTI AVERAGE_ISSUED: 1.42064
