[VMEM] WARNING: physical memory size is smaller than virtual memory size.

*** ChampSim Multicore Out-of-Order Simulator ***
Warmup Instructions: 50000000
Simulation Instructions: 100000000
Number of CPUs: 1
Page size: 4096
Core 0: /data2/zcq/champsim_traces_gap/bc.twitter-309B.champsimtrace.xz
VBerti Prefetcher
BERTI HASH ENTANGLING
BERTI IP MASK ffff
Off-chip DRAM Size: 16 GiB Channels: 1 Width: 64-bit Data Rate: 3205 MT/s
Warmup halting CPU 0 at instruction 50000001 cycle 17281380 for remainder of phase
Warmup finished CPU 0 instructions: 50000001 cycles: 17281380 cumulative IPC: 2.893 (Simulation time: 00 hr 04 min 16 sec)
Warmup complete CPU 0 instructions: 50000001 cycles: 17281380 cumulative IPC: 2.893 (Simulation time: 00 hr 04 min 16 sec)
Simulation finished CPU 0 instructions: 100000000 cycles: 495053223 cumulative IPC: 0.202 (Simulation time: 00 hr 46 min 36 sec)
Simulation complete CPU 0 instructions: 100000000 cycles: 495053223 cumulative IPC: 0.202 (Simulation time: 00 hr 46 min 36 sec)

ChampSim completed all CPUs

=== Simulation ===
CPU 0 runs /data2/zcq/champsim_traces_gap/bc.twitter-309B.champsimtrace.xz

Region of Interest Statistics

CPU 0 cumulative IPC: 0.202 instructions: 100000000 cycles: 495053223
CPU 0 Branch Prediction Accuracy: 91.22% MPKI: 11.63 Average ROB Occupancy at Mispredict: 69.78
Branch type MPKI
BRANCH_DIRECT_JUMP: 0
BRANCH_INDIRECT: 0
BRANCH_CONDITIONAL: 11.63
BRANCH_DIRECT_CALL: 0
BRANCH_INDIRECT_CALL: 0
BRANCH_RETURN: 0

cpu0->cpu0_STLB TOTAL        ACCESS:    4330225 HIT:      57043 MISS:    4273182 MSHR_MERGE:          0
cpu0->cpu0_STLB LOAD         ACCESS:    4330225 HIT:      57043 MISS:    4273182 MSHR_MERGE:          0
cpu0->cpu0_STLB RFO          ACCESS:          0 HIT:          0 MISS:          0 MSHR_MERGE:          0
cpu0->cpu0_STLB PREFETCH     ACCESS:          0 HIT:          0 MISS:          0 MSHR_MERGE:          0
cpu0->cpu0_STLB WRITE        ACCESS:          0 HIT:          0 MISS:          0 MSHR_MERGE:          0
cpu0->cpu0_STLB TRANSLATION  ACCESS:          0 HIT:          0 MISS:          0 MSHR_MERGE:          0
cpu0->cpu0_STLB PREFETCH REQUESTED:          0 ISSUED:          0 USEFUL:          0 USELESS:          0 LATE:          0 TOO_EARLY:          0
cpu0->cpu0_STLB AVERAGE MISS LATENCY: 64.4 cycles
cpu0->cpu0_L2C TOTAL        ACCESS:   14920352 HIT:    5559713 MISS:    9360639 MSHR_MERGE:     378770
cpu0->cpu0_L2C LOAD         ACCESS:    5726515 HIT:     277636 MISS:    5448879 MSHR_MERGE:      55278
cpu0->cpu0_L2C RFO          ACCESS:       7113 HIT:       6052 MISS:       1061 MSHR_MERGE:          0
cpu0->cpu0_L2C PREFETCH     ACCESS:    3749940 HIT:    2226957 MISS:    1522983 MSHR_MERGE:     323492
cpu0->cpu0_L2C WRITE        ACCESS:    2512853 HIT:    2512336 MISS:        517 MSHR_MERGE:          0
cpu0->cpu0_L2C TRANSLATION  ACCESS:    2923931 HIT:     536732 MISS:    2387199 MSHR_MERGE:          0
cpu0->cpu0_L2C PREFETCH REQUESTED:     862747 ISSUED:     862290 USEFUL:     139598 USELESS:     158713 LATE:      30074 TOO_EARLY:       1194
cpu0->cpu0_L2C AVERAGE MISS LATENCY: 195 cycles
cpu0->cpu0_L1I TOTAL        ACCESS:    1593154 HIT:    1593154 MISS:          0 MSHR_MERGE:          0
cpu0->cpu0_L1I LOAD         ACCESS:    1593154 HIT:    1593154 MISS:          0 MSHR_MERGE:          0
cpu0->cpu0_L1I RFO          ACCESS:          0 HIT:          0 MISS:          0 MSHR_MERGE:          0
cpu0->cpu0_L1I PREFETCH     ACCESS:          0 HIT:          0 MISS:          0 MSHR_MERGE:          0
cpu0->cpu0_L1I WRITE        ACCESS:          0 HIT:          0 MISS:          0 MSHR_MERGE:          0
cpu0->cpu0_L1I TRANSLATION  ACCESS:          0 HIT:          0 MISS:          0 MSHR_MERGE:          0
cpu0->cpu0_L1I PREFETCH REQUESTED:          0 ISSUED:          0 USEFUL:          0 USELESS:          0 LATE:          0 TOO_EARLY:          0
cpu0->cpu0_L1I AVERAGE MISS LATENCY: - cycles
cpu0->cpu0_L1D TOTAL        ACCESS:   54801578 HIT:   42627799 MISS:   12173779 MSHR_MERGE:     609015
cpu0->cpu0_L1D LOAD         ACCESS:   30616340 HIT:   24793784 MISS:    5822556 MSHR_MERGE:      96041
cpu0->cpu0_L1D RFO          ACCESS:          0 HIT:          0 MISS:          0 MSHR_MERGE:          0
cpu0->cpu0_L1D PREFETCH     ACCESS:    9976632 HIT:    7060425 MISS:    2916207 MSHR_MERGE:       9002
cpu0->cpu0_L1D WRITE        ACCESS:    5865389 HIT:    5851523 MISS:      13866 MSHR_MERGE:       6753
cpu0->cpu0_L1D TRANSLATION  ACCESS:    8343217 HIT:    4922067 MISS:    3421150 MSHR_MERGE:     497219
cpu0->cpu0_L1D PREFETCH REQUESTED:   22578540 ISSUED:   12273308 USEFUL:     252257 USELESS:      23543 LATE:        787 TOO_EARLY:       1183
cpu0->cpu0_L1D AVERAGE MISS LATENCY: 185.5 cycles
cpu0->cpu0_ITLB TOTAL        ACCESS:    1468612 HIT:    1468612 MISS:          0 MSHR_MERGE:          0
cpu0->cpu0_ITLB LOAD         ACCESS:    1468612 HIT:    1468612 MISS:          0 MSHR_MERGE:          0
cpu0->cpu0_ITLB RFO          ACCESS:          0 HIT:          0 MISS:          0 MSHR_MERGE:          0
cpu0->cpu0_ITLB PREFETCH     ACCESS:          0 HIT:          0 MISS:          0 MSHR_MERGE:          0
cpu0->cpu0_ITLB WRITE        ACCESS:          0 HIT:          0 MISS:          0 MSHR_MERGE:          0
cpu0->cpu0_ITLB TRANSLATION  ACCESS:          0 HIT:          0 MISS:          0 MSHR_MERGE:          0
cpu0->cpu0_ITLB PREFETCH REQUESTED:          0 ISSUED:          0 USEFUL:          0 USELESS:          0 LATE:          0 TOO_EARLY:          0
cpu0->cpu0_ITLB AVERAGE MISS LATENCY: - cycles
cpu0->cpu0_DTLB TOTAL        ACCESS:   44250648 HIT:   39559991 MISS:    4690657 MSHR_MERGE:     360431
cpu0->cpu0_DTLB LOAD         ACCESS:   44250648 HIT:   39559991 MISS:    4690657 MSHR_MERGE:     360431
cpu0->cpu0_DTLB RFO          ACCESS:          0 HIT:          0 MISS:          0 MSHR_MERGE:          0
cpu0->cpu0_DTLB PREFETCH     ACCESS:          0 HIT:          0 MISS:          0 MSHR_MERGE:          0
cpu0->cpu0_DTLB WRITE        ACCESS:          0 HIT:          0 MISS:          0 MSHR_MERGE:          0
cpu0->cpu0_DTLB TRANSLATION  ACCESS:          0 HIT:          0 MISS:          0 MSHR_MERGE:          0
cpu0->cpu0_DTLB PREFETCH REQUESTED:          0 ISSUED:          0 USEFUL:          0 USELESS:          0 LATE:          0 TOO_EARLY:          0
cpu0->cpu0_DTLB AVERAGE MISS LATENCY: 69.54 cycles
cpu0->LLC TOTAL        ACCESS:   11482461 HIT:    3898456 MISS:    7584005 MSHR_MERGE:      11633
cpu0->LLC LOAD         ACCESS:    5393600 HIT:     401942 MISS:    4991658 MSHR_MERGE:       2327
cpu0->LLC RFO          ACCESS:       1061 HIT:        383 MISS:        678 MSHR_MERGE:          0
cpu0->LLC PREFETCH     ACCESS:    1199483 HIT:      14248 MISS:    1185235 MSHR_MERGE:       9306
cpu0->LLC WRITE        ACCESS:    2501118 HIT:    1638837 MISS:     862281 MSHR_MERGE:          0
cpu0->LLC TRANSLATION  ACCESS:    2387199 HIT:    1843046 MISS:     544153 MSHR_MERGE:          0
cpu0->LLC PREFETCH REQUESTED:          0 ISSUED:          0 USEFUL:          0 USELESS:          0 LATE:          0 TOO_EARLY:          0
cpu0->LLC AVERAGE MISS LATENCY: 218.5 cycles

DRAM Statistics

Channel 0 RQ ROW_BUFFER_HIT:     150106
  ROW_BUFFER_MISS:    6559557
  AVG DBUS CONGESTED CYCLE: 6.356
Channel 0 WQ ROW_BUFFER_HIT:     596690
  ROW_BUFFER_MISS:    1817176
  FULL:          0
Channel 0 REFRESHES ISSUED:      41254

[ROI Statistics]
[System Configuration]
num_cpus 1
cpu_freq 4000
fetch_width 6
decode_width 6
dispatch_width 6
execute_width 6
lq_width 2
sq_width 2
retire_width 6
scheduler_size 128
branch_mispredict_penalty 15
rob_size 352
lq_size 128
sq_size 72
ifetch_buffer_size 64
decode_buffer_size 32
dispatch_buffer_size 32
register_file_size 288
decode_latency 1
dispatch_latency 1
schedule_latency 1
execute_latency 1
page_size 4096
block_size 64
core_0_itlb_set 16
core_0_itlb_way 4
core_0_itlb_rq_size 16
core_0_itlb_wq_size 16
core_0_itlb_pq_size 0
core_0_itlb_mshr_size 8
core_0_itlb_hit_latency 1
core_0_itlb_fill_latency 1
core_0_itlb_max_tag_check 2
core_0_itlb_max_fill 2
core_0_dtlb_set 16
core_0_dtlb_way 4
core_0_dtlb_rq_size 16
core_0_dtlb_wq_size 16
core_0_dtlb_pq_size 0
core_0_dtlb_mshr_size 8
core_0_dtlb_hit_latency 1
core_0_dtlb_fill_latency 1
core_0_dtlb_max_tag_check 2
core_0_dtlb_max_fill 2
core_0_stlb_set 128
core_0_stlb_way 12
core_0_stlb_rq_size 32
core_0_stlb_wq_size 32
core_0_stlb_pq_size 0
core_0_stlb_mshr_size 16
core_0_stlb_hit_latency 4
core_0_stlb_fill_latency 4
core_0_stlb_max_tag_check 1
core_0_stlb_max_fill 1
core_0_l1i_set 64
core_0_l1i_way 8
core_0_l1i_rq_size 64
core_0_l1i_wq_size 64
core_0_l1i_pq_size 32
core_0_l1i_mshr_size 8
core_0_l1i_hit_latency 2
core_0_l1i_fill_latency 2
core_0_l1i_max_tag_check 2
core_0_l1i_max_fill 2
core_0_l1d_set 64
core_0_l1d_way 12
core_0_l1d_rq_size 64
core_0_l1d_wq_size 64
core_0_l1d_pq_size 8
core_0_l1d_mshr_size 16
core_0_l1d_hit_latency 2
core_0_l1d_fill_latency 3
core_0_l1d_max_tag_check 2
core_0_l1d_max_fill 2
core_0_l2c_set 1024
core_0_l2c_way 8
core_0_l2c_rq_size 32
core_0_l2c_wq_size 32
core_0_l2c_pq_size 16
core_0_l2c_mshr_size 32
core_0_l2c_hit_latency 5
core_0_l2c_fill_latency 5
core_0_l2c_max_tag_check 1
core_0_l2c_max_fill 1
llc_set 2048
llc_way 16
llc_rq_size 32
llc_wq_size 32
llc_pq_size 32
llc_mshr_size 64
llc_hit_latency 10
llc_fill_latency 10
llc_max_tag_check 1
llc_max_fill 1
dram_channels 1
dram_ranks 1
dram_bankgroups 8
dram_banks 4
dram_rows 65536
dram_columns 1024
dram_channel_width 8
dram_rq_size 64
dram_wq_size 64
dram_size 17179869184
core_0_itlb_prefetcher no
core_0_dtlb_prefetcher no
core_0_stlb_prefetcher no
core_0_l1i_prefetcher next_line
core_0_l1d_prefetcher vberti
core_0_l2c_prefetcher ip_stride
llc_prefetcher no
llc_replacement drrip

Core_0_instructions 100000000
Core_0_cycles 495053223
Core_0_IPC 0.201998
Core_0_branch_prediction_accuracy 91.224
Core_0_branch_MPKI 11.6324
Core_0_average_ROB_occupancy_at_mispredict 69.778

Core_0_ITLB_total_access 1468612
Core_0_ITLB_total_hit 1468612
Core_0_ITLB_total_miss 0
Core_0_ITLB_total_MPKI 0
Core_0_ITLB_total_miss_rate 0
Core_0_ITLB_demand_access 1468612
Core_0_ITLB_demand_hit 1468612
Core_0_ITLB_demand_miss 0
Core_0_ITLB_demand_MPKI 0
Core_0_ITLB_demand_miss_rate 0
Core_0_ITLB_load_access 1468612
Core_0_ITLB_load_hit 1468612
Core_0_ITLB_load_miss 0
Core_0_ITLB_load_MPKI 0
Core_0_ITLB_load_miss_rate 0
Core_0_ITLB_rfo_access 0
Core_0_ITLB_rfo_hit 0
Core_0_ITLB_rfo_miss 0
Core_0_ITLB_rfo_MPKI 0
Core_0_ITLB_rfo_miss_rate 0
Core_0_ITLB_prefetch_access 0
Core_0_ITLB_prefetch_hit 0
Core_0_ITLB_prefetch_miss 0
Core_0_ITLB_prefetch_MPKI 0
Core_0_ITLB_prefetch_miss_rate 0
Core_0_ITLB_writeback_access 0
Core_0_ITLB_writeback_hit 0
Core_0_ITLB_writeback_miss 0
Core_0_ITLB_writeback_MPKI 0
Core_0_ITLB_writeback_miss_rate 0
Core_0_ITLB_prefetch_requested 0
Core_0_ITLB_prefetch_issued 0
Core_0_ITLB_prefetch_useful 0
Core_0_ITLB_prefetch_useless 0
Core_0_ITLB_prefetch_late 0
Core_0_ITLB_prefetch_fill 0
Core_0_ITLB_prefetch_too_early 0
Core_0_ITLB_prefetch_too_early_among_fill 0
Core_0_ITLB_prefetch_too_early_among_useless 0
Core_0_ITLB_prefetch_pollution_evict 0
Core_0_ITLB_prefetch_pollution_demand 0
Core_0_ITLB_prefetch_pollution_among_prefetch_fill 0
Core_0_ITLB_prefetch_accuracy 0
Core_0_ITLB_prefetch_coverage 0

Core_0_DTLB_total_access 44250648
Core_0_DTLB_total_hit 39559991
Core_0_DTLB_total_miss 4690657
Core_0_DTLB_total_MPKI 46.9066
Core_0_DTLB_total_miss_rate 0.106002
Core_0_DTLB_demand_access 44250648
Core_0_DTLB_demand_hit 39559991
Core_0_DTLB_demand_miss 4690657
Core_0_DTLB_demand_MPKI 46.9066
Core_0_DTLB_demand_miss_rate 0.106002
Core_0_DTLB_load_access 44250648
Core_0_DTLB_load_hit 39559991
Core_0_DTLB_load_miss 4690657
Core_0_DTLB_load_MPKI 46.9066
Core_0_DTLB_load_miss_rate 0.106002
Core_0_DTLB_rfo_access 0
Core_0_DTLB_rfo_hit 0
Core_0_DTLB_rfo_miss 0
Core_0_DTLB_rfo_MPKI 0
Core_0_DTLB_rfo_miss_rate 0
Core_0_DTLB_prefetch_access 0
Core_0_DTLB_prefetch_hit 0
Core_0_DTLB_prefetch_miss 0
Core_0_DTLB_prefetch_MPKI 0
Core_0_DTLB_prefetch_miss_rate 0
Core_0_DTLB_writeback_access 0
Core_0_DTLB_writeback_hit 0
Core_0_DTLB_writeback_miss 0
Core_0_DTLB_writeback_MPKI 0
Core_0_DTLB_writeback_miss_rate 0
Core_0_DTLB_prefetch_requested 0
Core_0_DTLB_prefetch_issued 0
Core_0_DTLB_prefetch_useful 0
Core_0_DTLB_prefetch_useless 0
Core_0_DTLB_prefetch_late 0
Core_0_DTLB_prefetch_fill 0
Core_0_DTLB_prefetch_too_early 0
Core_0_DTLB_prefetch_too_early_among_fill 0
Core_0_DTLB_prefetch_too_early_among_useless 0
Core_0_DTLB_prefetch_pollution_evict 0
Core_0_DTLB_prefetch_pollution_demand 0
Core_0_DTLB_prefetch_pollution_among_prefetch_fill 0
Core_0_DTLB_prefetch_accuracy 0
Core_0_DTLB_prefetch_coverage 0

Core_0_STLB_total_access 4330225
Core_0_STLB_total_hit 57043
Core_0_STLB_total_miss 4273182
Core_0_STLB_total_MPKI 42.7318
Core_0_STLB_total_miss_rate 0.986827
Core_0_STLB_demand_access 4330225
Core_0_STLB_demand_hit 57043
Core_0_STLB_demand_miss 4273182
Core_0_STLB_demand_MPKI 42.7318
Core_0_STLB_demand_miss_rate 0.986827
Core_0_STLB_load_access 4330225
Core_0_STLB_load_hit 57043
Core_0_STLB_load_miss 4273182
Core_0_STLB_load_MPKI 42.7318
Core_0_STLB_load_miss_rate 0.986827
Core_0_STLB_rfo_access 0
Core_0_STLB_rfo_hit 0
Core_0_STLB_rfo_miss 0
Core_0_STLB_rfo_MPKI 0
Core_0_STLB_rfo_miss_rate 0
Core_0_STLB_prefetch_access 0
Core_0_STLB_prefetch_hit 0
Core_0_STLB_prefetch_miss 0
Core_0_STLB_prefetch_MPKI 0
Core_0_STLB_prefetch_miss_rate 0
Core_0_STLB_writeback_access 0
Core_0_STLB_writeback_hit 0
Core_0_STLB_writeback_miss 0
Core_0_STLB_writeback_MPKI 0
Core_0_STLB_writeback_miss_rate 0
Core_0_STLB_prefetch_requested 0
Core_0_STLB_prefetch_issued 0
Core_0_STLB_prefetch_useful 0
Core_0_STLB_prefetch_useless 0
Core_0_STLB_prefetch_late 0
Core_0_STLB_prefetch_fill 0
Core_0_STLB_prefetch_too_early 0
Core_0_STLB_prefetch_too_early_among_fill 0
Core_0_STLB_prefetch_too_early_among_useless 0
Core_0_STLB_prefetch_pollution_evict 0
Core_0_STLB_prefetch_pollution_demand 0
Core_0_STLB_prefetch_pollution_among_prefetch_fill 0
Core_0_STLB_prefetch_accuracy 0
Core_0_STLB_prefetch_coverage 0

Core_0_L1I_total_access 1593154
Core_0_L1I_total_hit 1593154
Core_0_L1I_total_miss 0
Core_0_L1I_total_MPKI 0
Core_0_L1I_total_miss_rate 0
Core_0_L1I_demand_access 1593154
Core_0_L1I_demand_hit 1593154
Core_0_L1I_demand_miss 0
Core_0_L1I_demand_MPKI 0
Core_0_L1I_demand_miss_rate 0
Core_0_L1I_load_access 1593154
Core_0_L1I_load_hit 1593154
Core_0_L1I_load_miss 0
Core_0_L1I_load_MPKI 0
Core_0_L1I_load_miss_rate 0
Core_0_L1I_rfo_access 0
Core_0_L1I_rfo_hit 0
Core_0_L1I_rfo_miss 0
Core_0_L1I_rfo_MPKI 0
Core_0_L1I_rfo_miss_rate 0
Core_0_L1I_prefetch_access 0
Core_0_L1I_prefetch_hit 0
Core_0_L1I_prefetch_miss 0
Core_0_L1I_prefetch_MPKI 0
Core_0_L1I_prefetch_miss_rate 0
Core_0_L1I_writeback_access 0
Core_0_L1I_writeback_hit 0
Core_0_L1I_writeback_miss 0
Core_0_L1I_writeback_MPKI 0
Core_0_L1I_writeback_miss_rate 0
Core_0_L1I_prefetch_requested 0
Core_0_L1I_prefetch_issued 0
Core_0_L1I_prefetch_useful 0
Core_0_L1I_prefetch_useless 0
Core_0_L1I_prefetch_late 0
Core_0_L1I_prefetch_fill 0
Core_0_L1I_prefetch_too_early 0
Core_0_L1I_prefetch_too_early_among_fill 0
Core_0_L1I_prefetch_too_early_among_useless 0
Core_0_L1I_prefetch_pollution_evict 0
Core_0_L1I_prefetch_pollution_demand 0
Core_0_L1I_prefetch_pollution_among_prefetch_fill 0
Core_0_L1I_prefetch_accuracy 0
Core_0_L1I_prefetch_coverage 0

Core_0_L1D_total_access 46458361
Core_0_L1D_total_hit 37705732
Core_0_L1D_total_miss 8752629
Core_0_L1D_total_MPKI 87.5263
Core_0_L1D_total_miss_rate 0.188397
Core_0_L1D_demand_access 30616340
Core_0_L1D_demand_hit 24793784
Core_0_L1D_demand_miss 5822556
Core_0_L1D_demand_MPKI 58.2256
Core_0_L1D_demand_miss_rate 0.190178
Core_0_L1D_load_access 30616340
Core_0_L1D_load_hit 24793784
Core_0_L1D_load_miss 5822556
Core_0_L1D_load_MPKI 58.2256
Core_0_L1D_load_miss_rate 0.190178
Core_0_L1D_rfo_access 0
Core_0_L1D_rfo_hit 0
Core_0_L1D_rfo_miss 0
Core_0_L1D_rfo_MPKI 0
Core_0_L1D_rfo_miss_rate 0
Core_0_L1D_prefetch_access 9976632
Core_0_L1D_prefetch_hit 7060425
Core_0_L1D_prefetch_miss 2916207
Core_0_L1D_prefetch_MPKI 29.1621
Core_0_L1D_prefetch_miss_rate 0.292304
Core_0_L1D_writeback_access 5865389
Core_0_L1D_writeback_hit 5851523
Core_0_L1D_writeback_miss 13866
Core_0_L1D_writeback_MPKI 0.13866
Core_0_L1D_writeback_miss_rate 0.00236404
Core_0_L1D_prefetch_requested 22578540
Core_0_L1D_prefetch_issued 12273308
Core_0_L1D_prefetch_useful 252257
Core_0_L1D_prefetch_useless 23543
Core_0_L1D_prefetch_late 787
Core_0_L1D_prefetch_fill 275009
Core_0_L1D_prefetch_too_early 1183
Core_0_L1D_prefetch_too_early_among_fill 0.00430168
Core_0_L1D_prefetch_too_early_among_useless 0.0502485
Core_0_L1D_prefetch_pollution_evict 9037
Core_0_L1D_prefetch_pollution_demand 8978
Core_0_L1D_cross_page_pf_translation_only_requested 4051452
Core_0_L1D_cross_page_pf_translation_only_issued 2296678
Core_0_L1D_cross_page_pf_translation_only_dropped 2296678
Core_0_L1D_prefetch_pollution_among_prefetch_fill 0.0328607
Core_0_L1D_prefetch_accuracy 0.0205533
Core_0_L1D_prefetch_coverage 0.0415251

Core_0_L2C_total_access 11996421
Core_0_L2C_total_hit 5022981
Core_0_L2C_total_miss 6973440
Core_0_L2C_total_MPKI 69.7344
Core_0_L2C_total_miss_rate 0.581293
Core_0_L2C_demand_access 5733628
Core_0_L2C_demand_hit 283688
Core_0_L2C_demand_miss 5449940
Core_0_L2C_demand_MPKI 54.4994
Core_0_L2C_demand_miss_rate 0.950522
Core_0_L2C_load_access 5726515
Core_0_L2C_load_hit 277636
Core_0_L2C_load_miss 5448879
Core_0_L2C_load_MPKI 54.4888
Core_0_L2C_load_miss_rate 0.951517
Core_0_L2C_rfo_access 7113
Core_0_L2C_rfo_hit 6052
Core_0_L2C_rfo_miss 1061
Core_0_L2C_rfo_MPKI 0.01061
Core_0_L2C_rfo_miss_rate 0.149164
Core_0_L2C_prefetch_access 3749940
Core_0_L2C_prefetch_hit 2226957
Core_0_L2C_prefetch_miss 1522983
Core_0_L2C_prefetch_MPKI 15.2298
Core_0_L2C_prefetch_miss_rate 0.406135
Core_0_L2C_writeback_access 2512853
Core_0_L2C_writeback_hit 2512336
Core_0_L2C_writeback_miss 517
Core_0_L2C_writeback_MPKI 0.00517
Core_0_L2C_writeback_miss_rate 0.000205742
Core_0_L2C_prefetch_requested 862747
Core_0_L2C_prefetch_issued 862290
Core_0_L2C_prefetch_useful 139598
Core_0_L2C_prefetch_useless 158713
Core_0_L2C_prefetch_late 30074
Core_0_L2C_prefetch_fill 1101869
Core_0_L2C_prefetch_too_early 1194
Core_0_L2C_prefetch_too_early_among_fill 0.00108361
Core_0_L2C_prefetch_too_early_among_useless 0.00752301
Core_0_L2C_prefetch_pollution_evict 44752
Core_0_L2C_prefetch_pollution_demand 44735
Core_0_L2C_prefetch_pollution_among_prefetch_fill 0.0406146
Core_0_L2C_prefetch_accuracy 0.161892
Core_0_L2C_prefetch_coverage 0.0249749

Core_0_LLC_total_access 9095262
Core_0_LLC_total_hit 2055410
Core_0_LLC_total_miss 7039852
Core_0_LLC_total_MPKI 70.3985
Core_0_LLC_total_miss_rate 0.774013
Core_0_LLC_demand_access 5394661
Core_0_LLC_demand_hit 402325
Core_0_LLC_demand_miss 4992336
Core_0_LLC_demand_MPKI 49.9234
Core_0_LLC_demand_miss_rate 0.925422
Core_0_LLC_load_access 5393600
Core_0_LLC_load_hit 401942
Core_0_LLC_load_miss 4991658
Core_0_LLC_load_MPKI 49.9166
Core_0_LLC_load_miss_rate 0.925478
Core_0_LLC_rfo_access 1061
Core_0_LLC_rfo_hit 383
Core_0_LLC_rfo_miss 678
Core_0_LLC_rfo_MPKI 0.00678
Core_0_LLC_rfo_miss_rate 0.63902
Core_0_LLC_prefetch_access 1199483
Core_0_LLC_prefetch_hit 14248
Core_0_LLC_prefetch_miss 1185235
Core_0_LLC_prefetch_MPKI 11.8523
Core_0_LLC_prefetch_miss_rate 0.988122
Core_0_LLC_writeback_access 2501118
Core_0_LLC_writeback_hit 1638837
Core_0_LLC_writeback_miss 862281
Core_0_LLC_writeback_MPKI 8.62281
Core_0_LLC_writeback_miss_rate 0.344758
Core_0_LLC_prefetch_requested 0
Core_0_LLC_prefetch_issued 0
Core_0_LLC_prefetch_useful 0
Core_0_LLC_prefetch_useless 0
Core_0_LLC_prefetch_late 0
Core_0_LLC_prefetch_fill 1173602
Core_0_LLC_prefetch_too_early 0
Core_0_LLC_prefetch_too_early_among_fill 0
Core_0_LLC_prefetch_too_early_among_useless 0
Core_0_LLC_prefetch_pollution_evict 89519
Core_0_LLC_prefetch_pollution_demand 89519
Core_0_LLC_prefetch_pollution_among_prefetch_fill 0.0762771
Core_0_LLC_prefetch_accuracy 0
Core_0_LLC_prefetch_coverage 0

[DRAM Statistics]
Channel_0_RQ_row_buffer_hit 150106
Channel_0_RQ_row_buffer_miss 6559557
Channel_0_WQ_row_buffer_hit 596690
Channel_0_WQ_row_buffer_miss 1817176
Channel_0_WQ_full 0
Channel_0_dbus_congested 26393378
DRAM_total_RQ_row_buffer_hit 150106
DRAM_total_RQ_row_buffer_miss 6559557
DRAM_total_WQ_row_buffer_hit 596690
DRAM_total_WQ_row_buffer_miss 1817176
DRAM_total_WQ_full 0
DRAM_total_dbus_congested 26393378
DRAM_avg_congested_cycle 6.35588

====== DRAM_RQ_TRAFFIC ========
DRAM_RQ_READ_TRAFFIC_BREAKDOWN:
data_demand_read.count = 4990009
data_demand_read.share = 74.37%

inst_demand_read.count = 0
inst_demand_read.share = 0.00%

cache_inst_prefetch.count = 0
cache_inst_prefetch.share = 0.00%

cache_data_prefetch.count = 1175929
cache_data_prefetch.share = 17.52%

stlb_data_demand.count = 538896
stlb_data_demand.share = 8.03%

stlb_inst_demand.count = 0
stlb_inst_demand.share = 0.00%

stlb_l1i_pref.count = 0
stlb_l1i_pref.share = 0.00%

stlb_l1d_pref.count = 5257
stlb_l1d_pref.share = 0.08%

DRAM_RQ_READ_TRAFFIC_SUMMARY:
cache_demand.count = 4990009
cache_demand.share = 74.37%

cache_prefetch.count = 1175929
cache_prefetch.share = 17.52%

stlb_demand.count = 538896
stlb_demand.share = 8.03%

stlb_prefetch.count = 5257
stlb_prefetch.share = 0.08%

DRAM_RQ_READ_TRAFFIC_DEBUG:
total_classified_read.count = 6710091
unclassified_read.count = 0
total_read_with_other.count = 6710091

classified_plus_unclassified_check.count = 6710091
dram_rq_read_total_observed.count = 6710091
dram_rq_read_total_observed.per_1K_instructions = 67.1009

STLB_MISS_PTW_DRAM_TOUCH_BREAKDOWN:
stlb_miss_total.count = 4273181

stlb_miss_touch_dram.count = 546069
stlb_miss_touch_dram.share = 12.78%

stlb_miss_no_dram_touch.count = 3727112
stlb_miss_no_dram_touch.share = 87.22%

STLB_MISS_PTW_DRAM_TOUCH_DEBUG:
stlb_miss_touch_plus_no_touch.count = 4273181
stlb_miss_total_check.count = 4273181

======STLB miss causes ========
Core_0_STLB_miss_cause_breakdown
Core_0_STLB_cause_Demand_Data_miss 4231375
Core_0_STLB_cause_Demand_Data_miss_rate 0.977172
Core_0_STLB_cause_Demand_Instruction_miss 0
Core_0_STLB_cause_Demand_Instruction_miss_rate 0
Core_0_STLB_cause_L1D_Prefetch_miss 41807
Core_0_STLB_cause_L1D_Prefetch_miss_rate 0.00965469
Core_0_STLB_cause_L1D_Prefetch_Same_Page_miss 1
Core_0_STLB_cause_L1D_Prefetch_Same_Page_miss_rate 2.30935e-07
Core_0_STLB_cause_L1D_Prefetch_Cross_Page_miss 41806
Core_0_STLB_cause_L1D_Prefetch_Cross_Page_miss_rate 0.00965446
Core_0_STLB_cause_L1I_Prefetch_miss 0
Core_0_STLB_cause_L1I_Prefetch_miss_rate 0
Core_0_STLB_cause_Other_miss 0
Core_0_STLB_cause_Other_miss_rate 0
Core_0_STLB_Demand_miss 4231375
Core_0_STLB_Demand_miss_rate 0.977172
Core_0_STLB_L1D_Prefetch_miss 41807
Core_0_STLB_L1D_Prefetch_miss_rate 0.00965469
Core_0_STLB_Other_miss 0
Core_0_STLB_Other_miss_rate 0

========== vBerti-TLB Cross-page Flow Stats ==========

Core_0_vBerti_Requested 22578540
Core_0_vBerti_Cross_page_prefetch_in_Requested 4051452
Core_0_vBerti_Same_page_prefetch_in_Requested 18527088
Core_0_vBerti_Cross_page_prefetch_of_Requested 0.179438
Core_0_vBerti_Issued 12273308
Core_0_vBerti_InPQ_Same_page_prefetch 9976630
Core_0_vBerti_InPQ_Cross_page_prefetch 2296678
Core_0_vBerti_PQ_Drop_Rate 0.456417
Core_0_vBerti_InPQ_Cross_page_prefetch_of_Requested 0.10172
Core_0_vBerti_Cross_page_PQ_Drop_rate 0.433122
Core_0_vBerti_Cross_page_prefetch_of_Issued 0.187128
Core_0_CP_PF_PQFULL_drop 1754774
Core_0_CP_PF_PQFULL_TLB_rescue_enqueued 0
Core_0_CP_PF_PQFULL_TLB_rescue_issued 0
Core_0_CP_PF_PQFULL_TLB_rescue_translated 0

========= DTLB_vBerti Prefetch Stats =========
Core_0_DTLB_demand_access 35470255
Core_0_DTLB_demand_hit 30884569
Core_0_DTLB_demand_miss 4585686
Core_0_DTLB_demand_mshr_merge 303623
Core_0_DTLB_demand_fill 4283003
Core_0_DTLB_demand_miss_rate 0.129283
Core_0_DTLB_demand_mpki 45.8569
Core_0_DTLB_vberti_prefetch_access 8780393
Core_0_DTLB_vberti_prefetch_hit 8675422
Core_0_DTLB_vberti_prefetch_miss 104971
Core_0_DTLB_vberti_prefetch_mshr_merge 56808
Core_0_DTLB_vberti_prefetch_fill 47224
Core_0_DTLB_vberti_prefetch_miss_rate 0.0119552
Core_0_DTLB_vberti_prefetch_mpki 1.04971

=== DTLB_vBerti Same/Cross-page Prefetch Stats ===
Core_0_DTLB_vberti_same_page_prefetch 6781790
Core_0_DTLB_vberti_same_page_prefetch_hit 6781645
Core_0_DTLB_vberti_same_page_prefetch_miss 145
Core_0_DTLB_vberti_same_page_prefetch_mshr_merge 47
Core_0_DTLB_vberti_same_page_prefetch_fill 91
Core_0_DTLB_vberti_same_page_prefetch_miss_rate 2.13808e-05
Core_0_DTLB_vberti_same_page_prefetch_mpki 0.00145
Core_0_DTLB_vberti_cross_page_prefetch 1998603
Core_0_DTLB_vberti_cross_page_prefetch_hit 1893777
Core_0_DTLB_vberti_cross_page_prefetch_miss 104826
Core_0_DTLB_vberti_cross_page_prefetch_mshr_merge 56761
Core_0_DTLB_vberti_cross_page_prefetch_fill 47133
Core_0_DTLB_vberti_cross_page_prefetch_miss_rate 0.0524496
Core_0_DTLB_vberti_cross_page_prefetch_mpki 1.04826
Core_0_DTLB_same_page_prefetch_miss_rate 2.13808e-05
Core_0_DTLB_same_page_prefetch_mpki 0.00145
Core_0_DTLB_cross_page_prefetch_miss_rate 0.0524496
Core_0_DTLB_cross_page_prefetch_mpki 1.04826
Core_0_DTLB_cross_page_prefetch_issued 1998603
Core_0_DTLB_cross_page_prefetch_lookups 1998603
Core_0_DTLB_cross_page_prefetch_useful 40300
Core_0_DTLB_cross_page_prefetch_useless 7765
Core_0_DTLB_cross_page_prefetch_late 932
Core_0_DTLB_cross_page_prefetch_too_early 362
Core_0_DTLB_cross_page_prefetch_too_early_among_fill 0.00768039
Core_0_DTLB_cross_page_prefetch_too_early_among_useless 0.0466194
Core_0_DTLB_cross_page_prefetch_pollution_evict 3672
Core_0_DTLB_cross_page_prefetch_pollution_demand 3547
Core_0_DTLB_cross_page_prefetch_pollution_among_prefetch_fill 0.0779072
Core_0_DTLB_cross_page_prefetch_accuracy 0.0201641
Core_0_DTLB_cross_page_prefetch_coverage 0.00871166

========= STLB_vBerti Prefetch Stats =========
Core_0_STLB_demand_access 4282062
Core_0_STLB_demand_hit 50687
Core_0_STLB_demand_miss 4231375
Core_0_STLB_demand_mshr_merge 0
Core_0_STLB_demand_fill 4231377
Core_0_STLB_demand_miss_rate 0.988163
Core_0_STLB_demand_mpki 42.3137
Core_0_STLB_vberti_prefetch_access 48163
Core_0_STLB_vberti_prefetch_hit 6356
Core_0_STLB_vberti_prefetch_miss 41807
Core_0_STLB_vberti_prefetch_mshr_merge 0
Core_0_STLB_vberti_prefetch_fill 41807
Core_0_STLB_vberti_prefetch_miss_rate 0.868031
Core_0_STLB_vberti_prefetch_mpki 0.41807

=== STLB_vBerti Same/Cross-page Prefetch Stats ===
Core_0_STLB_vberti_same_page_prefetch 98
Core_0_STLB_vberti_same_page_prefetch_hit 97
Core_0_STLB_vberti_same_page_prefetch_miss 1
Core_0_STLB_vberti_same_page_prefetch_mshr_merge 0
Core_0_STLB_vberti_same_page_prefetch_fill 1
Core_0_STLB_vberti_same_page_prefetch_miss_rate 0.0102041
Core_0_STLB_vberti_same_page_prefetch_mpki 1e-05
Core_0_STLB_vberti_cross_page_prefetch 48065
Core_0_STLB_vberti_cross_page_prefetch_hit 6259
Core_0_STLB_vberti_cross_page_prefetch_miss 41806
Core_0_STLB_vberti_cross_page_prefetch_mshr_merge 0
Core_0_STLB_vberti_cross_page_prefetch_fill 41806
Core_0_STLB_vberti_cross_page_prefetch_miss_rate 0.869781
Core_0_STLB_vberti_cross_page_prefetch_mpki 0.41806
Core_0_STLB_same_page_prefetch_miss_rate 0.0102041
Core_0_STLB_same_page_prefetch_mpki 1e-05
Core_0_STLB_cross_page_prefetch_miss_rate 0.869781
Core_0_STLB_cross_page_prefetch_mpki 0.41806
Core_0_STLB_cross_page_prefetch_issued 48065
Core_0_STLB_cross_page_prefetch_lookups 48065
Core_0_STLB_cross_page_prefetch_useful 1294
Core_0_STLB_cross_page_prefetch_useless 40512
Core_0_STLB_cross_page_prefetch_late 0
Core_0_STLB_cross_page_prefetch_too_early 1385
Core_0_STLB_cross_page_prefetch_too_early_among_fill 0.0331292
Core_0_STLB_cross_page_prefetch_too_early_among_useless 0.0341874
Core_0_STLB_cross_page_prefetch_pollution_evict 5230
Core_0_STLB_cross_page_prefetch_pollution_demand 4734
Core_0_STLB_cross_page_prefetch_pollution_among_prefetch_fill 0.125102
Core_0_STLB_cross_page_prefetch_accuracy 0.0269219
Core_0_STLB_cross_page_prefetch_coverage 0.000305717

========= STLB Cross-page Prefetch Buffer Stats =========
Core_0_STLB_raw_demand_miss 4231375
Core_0_CP_PB_insert 0
Core_0_CP_PB_demand_hit 0
Core_0_STLB_PB_demand_miss 4231375
Core_0_CP_PB_coverage 0
Core_0_STLB_raw_demand_mpki 42.3137
Core_0_STLB_PB_demand_mpki 42.3137
Core_0_CP_PB_demand_hit_mpki 0

Core_0_TLB_demand_miss_rate 0.119294
Core_0_TLB_demand_mpki 42.3137
Core_0_TLB_same_page_prefetch_miss_rate 1.47454e-07
Core_0_TLB_same_page_prefetch_mpki 1e-05
Core_0_TLB_cross_page_prefetch_miss_rate 0.0209176
Core_0_TLB_cross_page_prefetch_mpki 0.41806
Core_0_TLB_cross_page_prefetch_issued 1998603
Core_0_TLB_cross_page_prefetch_lookups 1998603
Core_0_TLB_cross_page_prefetch_useful 40034
Core_0_TLB_cross_page_prefetch_useless 6730
Core_0_TLB_cross_page_prefetch_late 932
Core_0_TLB_cross_page_prefetch_too_early 371
Core_0_TLB_cross_page_prefetch_too_early_among_fill 0.0041714
Core_0_TLB_cross_page_prefetch_too_early_among_useless 0.0551263
Core_0_TLB_cross_page_prefetch_accuracy 0.020031
Core_0_TLB_cross_page_prefetch_coverage 0.00937255
====== vBerti internal metric ========
Core_0_vBerti_end_to_end_issued 9976630
Core_0_vBerti_end_to_end_useful 353554
Core_0_vBerti_end_to_end_late 25729
Core_0_vBerti_end_to_end_accuracy 0.0354382
Core_0_vBerti_end_to_end_timely_accuracy 0.0328593
BERTI TO_L1: 13517728 TO_L2: 5009360 TO_L2_BC_MSHR: 6983
BERTI AVG_LAT: 247.027 NUM_TRACK_LATENCY: 5986769 NUM_CANT_TRACK_LATENCY: 0
BERTI CROSS_PAGE 4051452 NO_CROSS_PAGE: 18527088
BERTI FOUND_BERTI: 20820223 NO_FOUND_BERTI: 15695480
BERTI AVERAGE_ISSUED: 2.19055
