[VMEM] WARNING: physical memory size is smaller than virtual memory size.

*** ChampSim Multicore Out-of-Order Simulator ***
Warmup Instructions: 50000000
Simulation Instructions: 100000000
Number of CPUs: 1
Page size: 4096
Core 0: /data2/zcq/champsim_traces_gap/bfs.twitter-163B.champsimtrace.xz
VBerti Prefetcher
BERTI HASH ENTANGLING
BERTI IP MASK ffff
Off-chip DRAM Size: 16 GiB Channels: 1 Width: 64-bit Data Rate: 3205 MT/s
Warmup halting CPU 0 at instruction 50000002 cycle 19552971 for remainder of phase
Warmup finished CPU 0 instructions: 50000002 cycles: 19552971 cumulative IPC: 2.557 (Simulation time: 00 hr 03 min 58 sec)
Warmup complete CPU 0 instructions: 50000002 cycles: 19552971 cumulative IPC: 2.557 (Simulation time: 00 hr 03 min 58 sec)
Simulation finished CPU 0 instructions: 100000003 cycles: 317152192 cumulative IPC: 0.3153 (Simulation time: 00 hr 25 min 15 sec)
Simulation complete CPU 0 instructions: 100000003 cycles: 317152192 cumulative IPC: 0.3153 (Simulation time: 00 hr 25 min 15 sec)

ChampSim completed all CPUs

=== Simulation ===
CPU 0 runs /data2/zcq/champsim_traces_gap/bfs.twitter-163B.champsimtrace.xz

Region of Interest Statistics

CPU 0 cumulative IPC: 0.3153 instructions: 100000003 cycles: 317152192
CPU 0 Branch Prediction Accuracy: 86.16% MPKI: 29.69 Average ROB Occupancy at Mispredict: 17.11
Branch type MPKI
BRANCH_DIRECT_JUMP: 0
BRANCH_INDIRECT: 0
BRANCH_CONDITIONAL: 29.69
BRANCH_DIRECT_CALL: 0
BRANCH_INDIRECT_CALL: 0
BRANCH_RETURN: 0

cpu0->cpu0_STLB TOTAL        ACCESS:     558750 HIT:     248855 MISS:     309895 MSHR_MERGE:          0
cpu0->cpu0_STLB LOAD         ACCESS:     558750 HIT:     248855 MISS:     309895 MSHR_MERGE:          0
cpu0->cpu0_STLB RFO          ACCESS:          0 HIT:          0 MISS:          0 MSHR_MERGE:          0
cpu0->cpu0_STLB PREFETCH     ACCESS:          0 HIT:          0 MISS:          0 MSHR_MERGE:          0
cpu0->cpu0_STLB WRITE        ACCESS:          0 HIT:          0 MISS:          0 MSHR_MERGE:          0
cpu0->cpu0_STLB TRANSLATION  ACCESS:          0 HIT:          0 MISS:          0 MSHR_MERGE:          0
cpu0->cpu0_STLB PREFETCH REQUESTED:          0 ISSUED:          0 USEFUL:          0 USELESS:          0 LATE:          0 TOO_EARLY:          0
cpu0->cpu0_STLB AVERAGE MISS LATENCY: 175.4 cycles
cpu0->cpu0_L2C TOTAL        ACCESS:    5228468 HIT:    1750168 MISS:    3478300 MSHR_MERGE:    1001628
cpu0->cpu0_L2C LOAD         ACCESS:     745546 HIT:      56141 MISS:     689405 MSHR_MERGE:        220
cpu0->cpu0_L2C RFO          ACCESS:          0 HIT:          0 MISS:          0 MSHR_MERGE:          0
cpu0->cpu0_L2C PREFETCH     ACCESS:    4151259 HIT:    1428773 MISS:    2722486 MSHR_MERGE:    1001408
cpu0->cpu0_L2C WRITE        ACCESS:     193398 HIT:     193301 MISS:         97 MSHR_MERGE:          0
cpu0->cpu0_L2C TRANSLATION  ACCESS:     138265 HIT:      71953 MISS:      66312 MSHR_MERGE:          0
cpu0->cpu0_L2C PREFETCH REQUESTED:    1959607 ISSUED:    1959607 USEFUL:     761388 USELESS:     244437 LATE:         74 TOO_EARLY:         37
cpu0->cpu0_L2C AVERAGE MISS LATENCY: 193.1 cycles
cpu0->cpu0_L1I TOTAL        ACCESS:         97 HIT:         97 MISS:          0 MSHR_MERGE:          0
cpu0->cpu0_L1I LOAD         ACCESS:         97 HIT:         97 MISS:          0 MSHR_MERGE:          0
cpu0->cpu0_L1I RFO          ACCESS:          0 HIT:          0 MISS:          0 MSHR_MERGE:          0
cpu0->cpu0_L1I PREFETCH     ACCESS:          0 HIT:          0 MISS:          0 MSHR_MERGE:          0
cpu0->cpu0_L1I WRITE        ACCESS:          0 HIT:          0 MISS:          0 MSHR_MERGE:          0
cpu0->cpu0_L1I TRANSLATION  ACCESS:          0 HIT:          0 MISS:          0 MSHR_MERGE:          0
cpu0->cpu0_L1I PREFETCH REQUESTED:          0 ISSUED:          0 USEFUL:          0 USELESS:          0 LATE:          0 TOO_EARLY:          0
cpu0->cpu0_L1I AVERAGE MISS LATENCY: - cycles
cpu0->cpu0_L1D TOTAL        ACCESS:   55547754 HIT:   52445574 MISS:    3102180 MSHR_MERGE:      25978
cpu0->cpu0_L1D LOAD         ACCESS:   16016242 HIT:   15244861 MISS:     771381 MSHR_MERGE:      25835
cpu0->cpu0_L1D RFO          ACCESS:          0 HIT:          0 MISS:          0 MSHR_MERGE:          0
cpu0->cpu0_L1D PREFETCH     ACCESS:   38252308 HIT:   36059843 MISS:    2192465 MSHR_MERGE:         74
cpu0->cpu0_L1D WRITE        ACCESS:     658862 HIT:     658862 MISS:          0 MSHR_MERGE:          0
cpu0->cpu0_L1D TRANSLATION  ACCESS:     620342 HIT:     482008 MISS:     138334 MSHR_MERGE:         69
cpu0->cpu0_L1D PREFETCH REQUESTED:  164650612 ISSUED:   40883918 USEFUL:    1614908 USELESS:      78497 LATE:       4318 TOO_EARLY:          0
cpu0->cpu0_L1D AVERAGE MISS LATENCY: 173.7 cycles
cpu0->cpu0_ITLB TOTAL        ACCESS:         96 HIT:         96 MISS:          0 MSHR_MERGE:          0
cpu0->cpu0_ITLB LOAD         ACCESS:         96 HIT:         96 MISS:          0 MSHR_MERGE:          0
cpu0->cpu0_ITLB RFO          ACCESS:          0 HIT:          0 MISS:          0 MSHR_MERGE:          0
cpu0->cpu0_ITLB PREFETCH     ACCESS:          0 HIT:          0 MISS:          0 MSHR_MERGE:          0
cpu0->cpu0_ITLB WRITE        ACCESS:          0 HIT:          0 MISS:          0 MSHR_MERGE:          0
cpu0->cpu0_ITLB TRANSLATION  ACCESS:          0 HIT:          0 MISS:          0 MSHR_MERGE:          0
cpu0->cpu0_ITLB PREFETCH REQUESTED:          0 ISSUED:          0 USEFUL:          0 USELESS:          0 LATE:          0 TOO_EARLY:          0
cpu0->cpu0_ITLB AVERAGE MISS LATENCY: - cycles
cpu0->cpu0_DTLB TOTAL        ACCESS:   42764177 HIT:   42138881 MISS:     625296 MSHR_MERGE:      66546
cpu0->cpu0_DTLB LOAD         ACCESS:   42764177 HIT:   42138881 MISS:     625296 MSHR_MERGE:      66546
cpu0->cpu0_DTLB RFO          ACCESS:          0 HIT:          0 MISS:          0 MSHR_MERGE:          0
cpu0->cpu0_DTLB PREFETCH     ACCESS:          0 HIT:          0 MISS:          0 MSHR_MERGE:          0
cpu0->cpu0_DTLB WRITE        ACCESS:          0 HIT:          0 MISS:          0 MSHR_MERGE:          0
cpu0->cpu0_DTLB TRANSLATION  ACCESS:          0 HIT:          0 MISS:          0 MSHR_MERGE:          0
cpu0->cpu0_DTLB PREFETCH REQUESTED:          0 ISSUED:          0 USEFUL:          0 USELESS:          0 LATE:          0 TOO_EARLY:          0
cpu0->cpu0_DTLB AVERAGE MISS LATENCY: 102.9 cycles
cpu0->LLC TOTAL        ACCESS:    2670053 HIT:     262440 MISS:    2407613 MSHR_MERGE:       4851
cpu0->LLC LOAD         ACCESS:     689185 HIT:      58589 MISS:     630596 MSHR_MERGE:          3
cpu0->LLC RFO          ACCESS:          0 HIT:          0 MISS:          0 MSHR_MERGE:          0
cpu0->LLC PREFETCH     ACCESS:    1721076 HIT:       8417 MISS:    1712659 MSHR_MERGE:       4848
cpu0->LLC WRITE        ACCESS:     193480 HIT:     170140 MISS:      23340 MSHR_MERGE:          0
cpu0->LLC TRANSLATION  ACCESS:      66312 HIT:      25294 MISS:      41018 MSHR_MERGE:          0
cpu0->LLC PREFETCH REQUESTED:          0 ISSUED:          0 USEFUL:          0 USELESS:          0 LATE:          0 TOO_EARLY:          0
cpu0->LLC AVERAGE MISS LATENCY: 193 cycles

DRAM Statistics

Channel 0 RQ ROW_BUFFER_HIT:      63696
  ROW_BUFFER_MISS:    2315724
  AVG DBUS CONGESTED CYCLE: 11.88
Channel 0 WQ ROW_BUFFER_HIT:      63071
  ROW_BUFFER_MISS:     131061
  FULL:          0
Channel 0 REFRESHES ISSUED:      26429

[ROI Statistics]
[System Configuration]
num_cpus 1
cpu_freq 4000
fetch_width 6
decode_width 6
dispatch_width 6
execute_width 6
lq_width 2
sq_width 2
retire_width 6
scheduler_size 128
branch_mispredict_penalty 15
rob_size 352
lq_size 128
sq_size 72
ifetch_buffer_size 64
decode_buffer_size 32
dispatch_buffer_size 32
register_file_size 288
decode_latency 1
dispatch_latency 1
schedule_latency 1
execute_latency 1
page_size 4096
block_size 64
core_0_itlb_set 16
core_0_itlb_way 4
core_0_itlb_rq_size 16
core_0_itlb_wq_size 16
core_0_itlb_pq_size 0
core_0_itlb_mshr_size 8
core_0_itlb_hit_latency 1
core_0_itlb_fill_latency 1
core_0_itlb_max_tag_check 2
core_0_itlb_max_fill 2
core_0_dtlb_set 16
core_0_dtlb_way 4
core_0_dtlb_rq_size 16
core_0_dtlb_wq_size 16
core_0_dtlb_pq_size 0
core_0_dtlb_mshr_size 8
core_0_dtlb_hit_latency 1
core_0_dtlb_fill_latency 1
core_0_dtlb_max_tag_check 2
core_0_dtlb_max_fill 2
core_0_stlb_set 128
core_0_stlb_way 12
core_0_stlb_rq_size 32
core_0_stlb_wq_size 32
core_0_stlb_pq_size 0
core_0_stlb_mshr_size 16
core_0_stlb_hit_latency 4
core_0_stlb_fill_latency 4
core_0_stlb_max_tag_check 1
core_0_stlb_max_fill 1
core_0_l1i_set 64
core_0_l1i_way 8
core_0_l1i_rq_size 64
core_0_l1i_wq_size 64
core_0_l1i_pq_size 32
core_0_l1i_mshr_size 8
core_0_l1i_hit_latency 2
core_0_l1i_fill_latency 2
core_0_l1i_max_tag_check 2
core_0_l1i_max_fill 2
core_0_l1d_set 64
core_0_l1d_way 12
core_0_l1d_rq_size 64
core_0_l1d_wq_size 64
core_0_l1d_pq_size 8
core_0_l1d_mshr_size 16
core_0_l1d_hit_latency 2
core_0_l1d_fill_latency 3
core_0_l1d_max_tag_check 2
core_0_l1d_max_fill 2
core_0_l2c_set 1024
core_0_l2c_way 8
core_0_l2c_rq_size 32
core_0_l2c_wq_size 32
core_0_l2c_pq_size 16
core_0_l2c_mshr_size 32
core_0_l2c_hit_latency 5
core_0_l2c_fill_latency 5
core_0_l2c_max_tag_check 1
core_0_l2c_max_fill 1
llc_set 2048
llc_way 16
llc_rq_size 32
llc_wq_size 32
llc_pq_size 32
llc_mshr_size 64
llc_hit_latency 10
llc_fill_latency 10
llc_max_tag_check 1
llc_max_fill 1
dram_channels 1
dram_ranks 1
dram_bankgroups 8
dram_banks 4
dram_rows 65536
dram_columns 1024
dram_channel_width 8
dram_rq_size 64
dram_wq_size 64
dram_size 17179869184
core_0_itlb_prefetcher no
core_0_dtlb_prefetcher no
core_0_stlb_prefetcher no
core_0_l1i_prefetcher next_line
core_0_l1d_prefetcher vberti
core_0_l2c_prefetcher ip_stride
llc_prefetcher no
llc_replacement drrip

Core_0_instructions 100000003
Core_0_cycles 317152192
Core_0_IPC 0.315306
Core_0_branch_prediction_accuracy 86.1572
Core_0_branch_MPKI 29.6932
Core_0_average_ROB_occupancy_at_mispredict 17.1136

Core_0_ITLB_total_access 96
Core_0_ITLB_total_hit 96
Core_0_ITLB_total_miss 0
Core_0_ITLB_total_MPKI 0
Core_0_ITLB_total_miss_rate 0
Core_0_ITLB_demand_access 96
Core_0_ITLB_demand_hit 96
Core_0_ITLB_demand_miss 0
Core_0_ITLB_demand_MPKI 0
Core_0_ITLB_demand_miss_rate 0
Core_0_ITLB_load_access 96
Core_0_ITLB_load_hit 96
Core_0_ITLB_load_miss 0
Core_0_ITLB_load_MPKI 0
Core_0_ITLB_load_miss_rate 0
Core_0_ITLB_rfo_access 0
Core_0_ITLB_rfo_hit 0
Core_0_ITLB_rfo_miss 0
Core_0_ITLB_rfo_MPKI 0
Core_0_ITLB_rfo_miss_rate 0
Core_0_ITLB_prefetch_access 0
Core_0_ITLB_prefetch_hit 0
Core_0_ITLB_prefetch_miss 0
Core_0_ITLB_prefetch_MPKI 0
Core_0_ITLB_prefetch_miss_rate 0
Core_0_ITLB_writeback_access 0
Core_0_ITLB_writeback_hit 0
Core_0_ITLB_writeback_miss 0
Core_0_ITLB_writeback_MPKI 0
Core_0_ITLB_writeback_miss_rate 0
Core_0_ITLB_prefetch_requested 0
Core_0_ITLB_prefetch_issued 0
Core_0_ITLB_prefetch_useful 0
Core_0_ITLB_prefetch_useless 0
Core_0_ITLB_prefetch_late 0
Core_0_ITLB_prefetch_fill 0
Core_0_ITLB_prefetch_too_early 0
Core_0_ITLB_prefetch_too_early_among_fill 0
Core_0_ITLB_prefetch_too_early_among_useless 0
Core_0_ITLB_prefetch_pollution_evict 0
Core_0_ITLB_prefetch_pollution_demand 0
Core_0_ITLB_prefetch_pollution_among_prefetch_fill 0
Core_0_ITLB_prefetch_accuracy 0
Core_0_ITLB_prefetch_coverage 0

Core_0_DTLB_total_access 42764177
Core_0_DTLB_total_hit 42138881
Core_0_DTLB_total_miss 625296
Core_0_DTLB_total_MPKI 6.25296
Core_0_DTLB_total_miss_rate 0.014622
Core_0_DTLB_demand_access 42764177
Core_0_DTLB_demand_hit 42138881
Core_0_DTLB_demand_miss 625296
Core_0_DTLB_demand_MPKI 6.25296
Core_0_DTLB_demand_miss_rate 0.014622
Core_0_DTLB_load_access 42764177
Core_0_DTLB_load_hit 42138881
Core_0_DTLB_load_miss 625296
Core_0_DTLB_load_MPKI 6.25296
Core_0_DTLB_load_miss_rate 0.014622
Core_0_DTLB_rfo_access 0
Core_0_DTLB_rfo_hit 0
Core_0_DTLB_rfo_miss 0
Core_0_DTLB_rfo_MPKI 0
Core_0_DTLB_rfo_miss_rate 0
Core_0_DTLB_prefetch_access 0
Core_0_DTLB_prefetch_hit 0
Core_0_DTLB_prefetch_miss 0
Core_0_DTLB_prefetch_MPKI 0
Core_0_DTLB_prefetch_miss_rate 0
Core_0_DTLB_writeback_access 0
Core_0_DTLB_writeback_hit 0
Core_0_DTLB_writeback_miss 0
Core_0_DTLB_writeback_MPKI 0
Core_0_DTLB_writeback_miss_rate 0
Core_0_DTLB_prefetch_requested 0
Core_0_DTLB_prefetch_issued 0
Core_0_DTLB_prefetch_useful 0
Core_0_DTLB_prefetch_useless 0
Core_0_DTLB_prefetch_late 0
Core_0_DTLB_prefetch_fill 0
Core_0_DTLB_prefetch_too_early 0
Core_0_DTLB_prefetch_too_early_among_fill 0
Core_0_DTLB_prefetch_too_early_among_useless 0
Core_0_DTLB_prefetch_pollution_evict 0
Core_0_DTLB_prefetch_pollution_demand 0
Core_0_DTLB_prefetch_pollution_among_prefetch_fill 0
Core_0_DTLB_prefetch_accuracy 0
Core_0_DTLB_prefetch_coverage 0

Core_0_STLB_total_access 558750
Core_0_STLB_total_hit 248855
Core_0_STLB_total_miss 309895
Core_0_STLB_total_MPKI 3.09895
Core_0_STLB_total_miss_rate 0.554622
Core_0_STLB_demand_access 558750
Core_0_STLB_demand_hit 248855
Core_0_STLB_demand_miss 309895
Core_0_STLB_demand_MPKI 3.09895
Core_0_STLB_demand_miss_rate 0.554622
Core_0_STLB_load_access 558750
Core_0_STLB_load_hit 248855
Core_0_STLB_load_miss 309895
Core_0_STLB_load_MPKI 3.09895
Core_0_STLB_load_miss_rate 0.554622
Core_0_STLB_rfo_access 0
Core_0_STLB_rfo_hit 0
Core_0_STLB_rfo_miss 0
Core_0_STLB_rfo_MPKI 0
Core_0_STLB_rfo_miss_rate 0
Core_0_STLB_prefetch_access 0
Core_0_STLB_prefetch_hit 0
Core_0_STLB_prefetch_miss 0
Core_0_STLB_prefetch_MPKI 0
Core_0_STLB_prefetch_miss_rate 0
Core_0_STLB_writeback_access 0
Core_0_STLB_writeback_hit 0
Core_0_STLB_writeback_miss 0
Core_0_STLB_writeback_MPKI 0
Core_0_STLB_writeback_miss_rate 0
Core_0_STLB_prefetch_requested 0
Core_0_STLB_prefetch_issued 0
Core_0_STLB_prefetch_useful 0
Core_0_STLB_prefetch_useless 0
Core_0_STLB_prefetch_late 0
Core_0_STLB_prefetch_fill 0
Core_0_STLB_prefetch_too_early 0
Core_0_STLB_prefetch_too_early_among_fill 0
Core_0_STLB_prefetch_too_early_among_useless 0
Core_0_STLB_prefetch_pollution_evict 0
Core_0_STLB_prefetch_pollution_demand 0
Core_0_STLB_prefetch_pollution_among_prefetch_fill 0
Core_0_STLB_prefetch_accuracy 0
Core_0_STLB_prefetch_coverage 0

Core_0_L1I_total_access 97
Core_0_L1I_total_hit 97
Core_0_L1I_total_miss 0
Core_0_L1I_total_MPKI 0
Core_0_L1I_total_miss_rate 0
Core_0_L1I_demand_access 97
Core_0_L1I_demand_hit 97
Core_0_L1I_demand_miss 0
Core_0_L1I_demand_MPKI 0
Core_0_L1I_demand_miss_rate 0
Core_0_L1I_load_access 97
Core_0_L1I_load_hit 97
Core_0_L1I_load_miss 0
Core_0_L1I_load_MPKI 0
Core_0_L1I_load_miss_rate 0
Core_0_L1I_rfo_access 0
Core_0_L1I_rfo_hit 0
Core_0_L1I_rfo_miss 0
Core_0_L1I_rfo_MPKI 0
Core_0_L1I_rfo_miss_rate 0
Core_0_L1I_prefetch_access 0
Core_0_L1I_prefetch_hit 0
Core_0_L1I_prefetch_miss 0
Core_0_L1I_prefetch_MPKI 0
Core_0_L1I_prefetch_miss_rate 0
Core_0_L1I_writeback_access 0
Core_0_L1I_writeback_hit 0
Core_0_L1I_writeback_miss 0
Core_0_L1I_writeback_MPKI 0
Core_0_L1I_writeback_miss_rate 0
Core_0_L1I_prefetch_requested 0
Core_0_L1I_prefetch_issued 0
Core_0_L1I_prefetch_useful 0
Core_0_L1I_prefetch_useless 0
Core_0_L1I_prefetch_late 0
Core_0_L1I_prefetch_fill 0
Core_0_L1I_prefetch_too_early 0
Core_0_L1I_prefetch_too_early_among_fill 0
Core_0_L1I_prefetch_too_early_among_useless 0
Core_0_L1I_prefetch_pollution_evict 0
Core_0_L1I_prefetch_pollution_demand 0
Core_0_L1I_prefetch_pollution_among_prefetch_fill 0
Core_0_L1I_prefetch_accuracy 0
Core_0_L1I_prefetch_coverage 0

Core_0_L1D_total_access 54927412
Core_0_L1D_total_hit 51963566
Core_0_L1D_total_miss 2963846
Core_0_L1D_total_MPKI 29.6385
Core_0_L1D_total_miss_rate 0.0539593
Core_0_L1D_demand_access 16016242
Core_0_L1D_demand_hit 15244861
Core_0_L1D_demand_miss 771381
Core_0_L1D_demand_MPKI 7.71381
Core_0_L1D_demand_miss_rate 0.0481624
Core_0_L1D_load_access 16016242
Core_0_L1D_load_hit 15244861
Core_0_L1D_load_miss 771381
Core_0_L1D_load_MPKI 7.71381
Core_0_L1D_load_miss_rate 0.0481624
Core_0_L1D_rfo_access 0
Core_0_L1D_rfo_hit 0
Core_0_L1D_rfo_miss 0
Core_0_L1D_rfo_MPKI 0
Core_0_L1D_rfo_miss_rate 0
Core_0_L1D_prefetch_access 38252308
Core_0_L1D_prefetch_hit 36059843
Core_0_L1D_prefetch_miss 2192465
Core_0_L1D_prefetch_MPKI 21.9246
Core_0_L1D_prefetch_miss_rate 0.0573159
Core_0_L1D_writeback_access 658862
Core_0_L1D_writeback_hit 658862
Core_0_L1D_writeback_miss 0
Core_0_L1D_writeback_MPKI 0
Core_0_L1D_writeback_miss_rate 0
Core_0_L1D_prefetch_requested 164650612
Core_0_L1D_prefetch_issued 40883918
Core_0_L1D_prefetch_useful 1614908
Core_0_L1D_prefetch_useless 78497
Core_0_L1D_prefetch_late 4318
Core_0_L1D_prefetch_fill 1689081
Core_0_L1D_prefetch_too_early 0
Core_0_L1D_prefetch_too_early_among_fill 0
Core_0_L1D_prefetch_too_early_among_useless 0
Core_0_L1D_prefetch_pollution_evict 11439
Core_0_L1D_prefetch_pollution_demand 11439
Core_0_L1D_cross_page_pf_translation_only_requested 20782358
Core_0_L1D_cross_page_pf_translation_only_issued 2631613
Core_0_L1D_cross_page_pf_translation_only_dropped 2631613
Core_0_L1D_prefetch_pollution_among_prefetch_fill 0.00677232
Core_0_L1D_prefetch_accuracy 0.0394998
Core_0_L1D_prefetch_coverage 0.676745

Core_0_L2C_total_access 5090203
Core_0_L2C_total_hit 1678215
Core_0_L2C_total_miss 3411988
Core_0_L2C_total_MPKI 34.1199
Core_0_L2C_total_miss_rate 0.670305
Core_0_L2C_demand_access 745546
Core_0_L2C_demand_hit 56141
Core_0_L2C_demand_miss 689405
Core_0_L2C_demand_MPKI 6.89405
Core_0_L2C_demand_miss_rate 0.924698
Core_0_L2C_load_access 745546
Core_0_L2C_load_hit 56141
Core_0_L2C_load_miss 689405
Core_0_L2C_load_MPKI 6.89405
Core_0_L2C_load_miss_rate 0.924698
Core_0_L2C_rfo_access 0
Core_0_L2C_rfo_hit 0
Core_0_L2C_rfo_miss 0
Core_0_L2C_rfo_MPKI 0
Core_0_L2C_rfo_miss_rate 0
Core_0_L2C_prefetch_access 4151259
Core_0_L2C_prefetch_hit 1428773
Core_0_L2C_prefetch_miss 2722486
Core_0_L2C_prefetch_MPKI 27.2249
Core_0_L2C_prefetch_miss_rate 0.655822
Core_0_L2C_writeback_access 193398
Core_0_L2C_writeback_hit 193301
Core_0_L2C_writeback_miss 97
Core_0_L2C_writeback_MPKI 0.00097
Core_0_L2C_writeback_miss_rate 0.000501556
Core_0_L2C_prefetch_requested 1959607
Core_0_L2C_prefetch_issued 1959607
Core_0_L2C_prefetch_useful 761388
Core_0_L2C_prefetch_useless 244437
Core_0_L2C_prefetch_late 74
Core_0_L2C_prefetch_fill 1707580
Core_0_L2C_prefetch_too_early 37
Core_0_L2C_prefetch_too_early_among_fill 2.16681e-05
Core_0_L2C_prefetch_too_early_among_useless 0.000151368
Core_0_L2C_prefetch_pollution_evict 20359
Core_0_L2C_prefetch_pollution_demand 20353
Core_0_L2C_prefetch_pollution_among_prefetch_fill 0.0119227
Core_0_L2C_prefetch_accuracy 0.388541
Core_0_L2C_prefetch_coverage 0.524808

Core_0_LLC_total_access 2603741
Core_0_LLC_total_hit 237146
Core_0_LLC_total_miss 2366595
Core_0_LLC_total_MPKI 23.6659
Core_0_LLC_total_miss_rate 0.908921
Core_0_LLC_demand_access 689185
Core_0_LLC_demand_hit 58589
Core_0_LLC_demand_miss 630596
Core_0_LLC_demand_MPKI 6.30596
Core_0_LLC_demand_miss_rate 0.914988
Core_0_LLC_load_access 689185
Core_0_LLC_load_hit 58589
Core_0_LLC_load_miss 630596
Core_0_LLC_load_MPKI 6.30596
Core_0_LLC_load_miss_rate 0.914988
Core_0_LLC_rfo_access 0
Core_0_LLC_rfo_hit 0
Core_0_LLC_rfo_miss 0
Core_0_LLC_rfo_MPKI 0
Core_0_LLC_rfo_miss_rate 0
Core_0_LLC_prefetch_access 1721076
Core_0_LLC_prefetch_hit 8417
Core_0_LLC_prefetch_miss 1712659
Core_0_LLC_prefetch_MPKI 17.1266
Core_0_LLC_prefetch_miss_rate 0.995109
Core_0_LLC_writeback_access 193480
Core_0_LLC_writeback_hit 170140
Core_0_LLC_writeback_miss 23340
Core_0_LLC_writeback_MPKI 0.2334
Core_0_LLC_writeback_miss_rate 0.120633
Core_0_LLC_prefetch_requested 0
Core_0_LLC_prefetch_issued 0
Core_0_LLC_prefetch_useful 0
Core_0_LLC_prefetch_useless 0
Core_0_LLC_prefetch_late 0
Core_0_LLC_prefetch_fill 1707806
Core_0_LLC_prefetch_too_early 0
Core_0_LLC_prefetch_too_early_among_fill 0
Core_0_LLC_prefetch_too_early_among_useless 0
Core_0_LLC_prefetch_pollution_evict 24295
Core_0_LLC_prefetch_pollution_demand 24295
Core_0_LLC_prefetch_pollution_among_prefetch_fill 0.0142259
Core_0_LLC_prefetch_accuracy 0
Core_0_LLC_prefetch_coverage 0

[DRAM Statistics]
Channel_0_RQ_row_buffer_hit 63696
Channel_0_RQ_row_buffer_miss 2315724
Channel_0_WQ_row_buffer_hit 63071
Channel_0_WQ_row_buffer_miss 131061
Channel_0_WQ_full 0
Channel_0_dbus_congested 5224492
DRAM_total_RQ_row_buffer_hit 63696
DRAM_total_RQ_row_buffer_miss 2315724
DRAM_total_WQ_row_buffer_hit 63071
DRAM_total_WQ_row_buffer_miss 131061
DRAM_total_WQ_full 0
DRAM_total_dbus_congested 5224492
DRAM_avg_congested_cycle 11.8799

====== DRAM_RQ_TRAFFIC ========
DRAM_RQ_READ_TRAFFIC_BREAKDOWN:
data_demand_read.count = 630593
data_demand_read.share = 26.50%

inst_demand_read.count = 0
inst_demand_read.share = 0.00%

cache_inst_prefetch.count = 0
cache_inst_prefetch.share = 0.00%

cache_data_prefetch.count = 1707811
cache_data_prefetch.share = 71.77%

stlb_data_demand.count = 37527
stlb_data_demand.share = 1.58%

stlb_inst_demand.count = 0
stlb_inst_demand.share = 0.00%

stlb_l1i_pref.count = 0
stlb_l1i_pref.share = 0.00%

stlb_l1d_pref.count = 3491
stlb_l1d_pref.share = 0.15%

DRAM_RQ_READ_TRAFFIC_SUMMARY:
cache_demand.count = 630593
cache_demand.share = 26.50%

cache_prefetch.count = 1707811
cache_prefetch.share = 71.77%

stlb_demand.count = 37527
stlb_demand.share = 1.58%

stlb_prefetch.count = 3491
stlb_prefetch.share = 0.15%

DRAM_RQ_READ_TRAFFIC_DEBUG:
total_classified_read.count = 2379422
unclassified_read.count = 0
total_read_with_other.count = 2379422

classified_plus_unclassified_check.count = 2379422
dram_rq_read_total_observed.count = 2379422
dram_rq_read_total_observed.per_1K_instructions = 23.7942

STLB_MISS_PTW_DRAM_TOUCH_BREAKDOWN:
stlb_miss_total.count = 309895

stlb_miss_touch_dram.count = 40883
stlb_miss_touch_dram.share = 13.19%

stlb_miss_no_dram_touch.count = 269012
stlb_miss_no_dram_touch.share = 86.81%

STLB_MISS_PTW_DRAM_TOUCH_DEBUG:
stlb_miss_touch_plus_no_touch.count = 309895
stlb_miss_total_check.count = 309895

======STLB miss causes ========
Core_0_STLB_miss_cause_breakdown
Core_0_STLB_cause_Demand_Data_miss 282655
Core_0_STLB_cause_Demand_Data_miss_rate 0.50587
Core_0_STLB_cause_Demand_Instruction_miss 0
Core_0_STLB_cause_Demand_Instruction_miss_rate 0
Core_0_STLB_cause_L1D_Prefetch_miss 27240
Core_0_STLB_cause_L1D_Prefetch_miss_rate 0.0487517
Core_0_STLB_cause_L1D_Prefetch_Same_Page_miss 0
Core_0_STLB_cause_L1D_Prefetch_Same_Page_miss_rate 0
Core_0_STLB_cause_L1D_Prefetch_Cross_Page_miss 27240
Core_0_STLB_cause_L1D_Prefetch_Cross_Page_miss_rate 0.0487517
Core_0_STLB_cause_L1I_Prefetch_miss 0
Core_0_STLB_cause_L1I_Prefetch_miss_rate 0
Core_0_STLB_cause_Other_miss 0
Core_0_STLB_cause_Other_miss_rate 0
Core_0_STLB_Demand_miss 282655
Core_0_STLB_Demand_miss_rate 0.50587
Core_0_STLB_L1D_Prefetch_miss 27240
Core_0_STLB_L1D_Prefetch_miss_rate 0.0487517
Core_0_STLB_Other_miss 0
Core_0_STLB_Other_miss_rate 0

========== vBerti-TLB Cross-page Flow Stats ==========

Core_0_vBerti_Requested 164650612
Core_0_vBerti_Cross_page_prefetch_in_Requested 20782358
Core_0_vBerti_Same_page_prefetch_in_Requested 143868254
Core_0_vBerti_Cross_page_prefetch_of_Requested 0.126221
Core_0_vBerti_Issued 40883918
Core_0_vBerti_InPQ_Same_page_prefetch 38252305
Core_0_vBerti_InPQ_Cross_page_prefetch 2631613
Core_0_vBerti_PQ_Drop_Rate 0.751693
Core_0_vBerti_InPQ_Cross_page_prefetch_of_Requested 0.015983
Core_0_vBerti_Cross_page_PQ_Drop_rate 0.873373
Core_0_vBerti_Cross_page_prefetch_of_Issued 0.0643679
Core_0_CP_PF_PQFULL_drop 18150745
Core_0_CP_PF_PQFULL_TLB_rescue_enqueued 0
Core_0_CP_PF_PQFULL_TLB_rescue_issued 0
Core_0_CP_PF_PQFULL_TLB_rescue_translated 0

========= DTLB_vBerti Prefetch Stats =========
Core_0_DTLB_demand_access 16609639
Core_0_DTLB_demand_hit 16072128
Core_0_DTLB_demand_miss 537511
Core_0_DTLB_demand_mshr_merge 6068
Core_0_DTLB_demand_fill 531560
Core_0_DTLB_demand_miss_rate 0.0323614
Core_0_DTLB_demand_mpki 5.37511
Core_0_DTLB_vberti_prefetch_access 26154538
Core_0_DTLB_vberti_prefetch_hit 26066753
Core_0_DTLB_vberti_prefetch_miss 87785
Core_0_DTLB_vberti_prefetch_mshr_merge 60478
Core_0_DTLB_vberti_prefetch_fill 27190
Core_0_DTLB_vberti_prefetch_miss_rate 0.0033564
Core_0_DTLB_vberti_prefetch_mpki 0.87785

=== DTLB_vBerti Same/Cross-page Prefetch Stats ===
Core_0_DTLB_vberti_same_page_prefetch 24554822
Core_0_DTLB_vberti_same_page_prefetch_hit 24554822
Core_0_DTLB_vberti_same_page_prefetch_miss 0
Core_0_DTLB_vberti_same_page_prefetch_mshr_merge 0
Core_0_DTLB_vberti_same_page_prefetch_fill 0
Core_0_DTLB_vberti_same_page_prefetch_miss_rate 0
Core_0_DTLB_vberti_same_page_prefetch_mpki 0
Core_0_DTLB_vberti_cross_page_prefetch 1599716
Core_0_DTLB_vberti_cross_page_prefetch_hit 1511931
Core_0_DTLB_vberti_cross_page_prefetch_miss 87785
Core_0_DTLB_vberti_cross_page_prefetch_mshr_merge 60478
Core_0_DTLB_vberti_cross_page_prefetch_fill 27190
Core_0_DTLB_vberti_cross_page_prefetch_miss_rate 0.0548754
Core_0_DTLB_vberti_cross_page_prefetch_mpki 0.87785
Core_0_DTLB_same_page_prefetch_miss_rate 0
Core_0_DTLB_same_page_prefetch_mpki 0
Core_0_DTLB_cross_page_prefetch_miss_rate 0.0548754
Core_0_DTLB_cross_page_prefetch_mpki 0.87785
Core_0_DTLB_cross_page_prefetch_issued 1599716
Core_0_DTLB_cross_page_prefetch_lookups 1599716
Core_0_DTLB_cross_page_prefetch_useful 27229
Core_0_DTLB_cross_page_prefetch_useless 78
Core_0_DTLB_cross_page_prefetch_late 117
Core_0_DTLB_cross_page_prefetch_too_early 16
Core_0_DTLB_cross_page_prefetch_too_early_among_fill 0.000588452
Core_0_DTLB_cross_page_prefetch_too_early_among_useless 0.205128
Core_0_DTLB_cross_page_prefetch_pollution_evict 10508
Core_0_DTLB_cross_page_prefetch_pollution_demand 10505
Core_0_DTLB_cross_page_prefetch_pollution_among_prefetch_fill 0.386466
Core_0_DTLB_cross_page_prefetch_accuracy 0.0170211
Core_0_DTLB_cross_page_prefetch_coverage 0.0482151

========= STLB_vBerti Prefetch Stats =========
Core_0_STLB_demand_access 531443
Core_0_STLB_demand_hit 248788
Core_0_STLB_demand_miss 282655
Core_0_STLB_demand_mshr_merge 0
Core_0_STLB_demand_fill 282655
Core_0_STLB_demand_miss_rate 0.531863
Core_0_STLB_demand_mpki 2.82655
Core_0_STLB_vberti_prefetch_access 27307
Core_0_STLB_vberti_prefetch_hit 67
Core_0_STLB_vberti_prefetch_miss 27240
Core_0_STLB_vberti_prefetch_mshr_merge 0
Core_0_STLB_vberti_prefetch_fill 27240
Core_0_STLB_vberti_prefetch_miss_rate 0.997546
Core_0_STLB_vberti_prefetch_mpki 0.2724

=== STLB_vBerti Same/Cross-page Prefetch Stats ===
Core_0_STLB_vberti_same_page_prefetch 0
Core_0_STLB_vberti_same_page_prefetch_hit 0
Core_0_STLB_vberti_same_page_prefetch_miss 0
Core_0_STLB_vberti_same_page_prefetch_mshr_merge 0
Core_0_STLB_vberti_same_page_prefetch_fill 0
Core_0_STLB_vberti_same_page_prefetch_miss_rate 0
Core_0_STLB_vberti_same_page_prefetch_mpki 0
Core_0_STLB_vberti_cross_page_prefetch 27307
Core_0_STLB_vberti_cross_page_prefetch_hit 67
Core_0_STLB_vberti_cross_page_prefetch_miss 27240
Core_0_STLB_vberti_cross_page_prefetch_mshr_merge 0
Core_0_STLB_vberti_cross_page_prefetch_fill 27240
Core_0_STLB_vberti_cross_page_prefetch_miss_rate 0.997546
Core_0_STLB_vberti_cross_page_prefetch_mpki 0.2724
Core_0_STLB_same_page_prefetch_miss_rate 0
Core_0_STLB_same_page_prefetch_mpki 0
Core_0_STLB_cross_page_prefetch_miss_rate 0.997546
Core_0_STLB_cross_page_prefetch_mpki 0.2724
Core_0_STLB_cross_page_prefetch_issued 27307
Core_0_STLB_cross_page_prefetch_lookups 27307
Core_0_STLB_cross_page_prefetch_useful 92
Core_0_STLB_cross_page_prefetch_useless 27148
Core_0_STLB_cross_page_prefetch_late 0
Core_0_STLB_cross_page_prefetch_too_early 15
Core_0_STLB_cross_page_prefetch_too_early_among_fill 0.000550661
Core_0_STLB_cross_page_prefetch_too_early_among_useless 0.000552527
Core_0_STLB_cross_page_prefetch_pollution_evict 10020
Core_0_STLB_cross_page_prefetch_pollution_demand 10017
Core_0_STLB_cross_page_prefetch_pollution_among_prefetch_fill 0.367841
Core_0_STLB_cross_page_prefetch_accuracy 0.0033691
Core_0_STLB_cross_page_prefetch_coverage 0.000325379

========= STLB Cross-page Prefetch Buffer Stats =========
Core_0_STLB_raw_demand_miss 282655
Core_0_CP_PB_insert 0
Core_0_CP_PB_demand_hit 0
Core_0_STLB_PB_demand_miss 282655
Core_0_CP_PB_coverage 0
Core_0_STLB_raw_demand_mpki 2.82655
Core_0_STLB_PB_demand_mpki 2.82655
Core_0_CP_PB_demand_hit_mpki 0

Core_0_TLB_demand_miss_rate 0.0170175
Core_0_TLB_demand_mpki 2.82655
Core_0_TLB_same_page_prefetch_miss_rate 0
Core_0_TLB_same_page_prefetch_mpki 0
Core_0_TLB_cross_page_prefetch_miss_rate 0.017028
Core_0_TLB_cross_page_prefetch_mpki 0.2724
Core_0_TLB_cross_page_prefetch_issued 1599716
Core_0_TLB_cross_page_prefetch_lookups 1599716
Core_0_TLB_cross_page_prefetch_useful 27229
Core_0_TLB_cross_page_prefetch_useless 78
Core_0_TLB_cross_page_prefetch_late 117
Core_0_TLB_cross_page_prefetch_too_early 16
Core_0_TLB_cross_page_prefetch_too_early_among_fill 0.000293956
Core_0_TLB_cross_page_prefetch_too_early_among_useless 0.205128
Core_0_TLB_cross_page_prefetch_accuracy 0.0170211
Core_0_TLB_cross_page_prefetch_coverage 0.0878684
====== vBerti internal metric ========
Core_0_vBerti_end_to_end_issued 38252305
Core_0_vBerti_end_to_end_useful 622774
Core_0_vBerti_end_to_end_late 4309
Core_0_vBerti_end_to_end_accuracy 0.0162807
Core_0_vBerti_end_to_end_timely_accuracy 0.016168
BERTI TO_L1: 128349985 TO_L2: 15518269 TO_L2_BC_MSHR: 168947
BERTI AVG_LAT: 145.697 NUM_TRACK_LATENCY: 2433528 NUM_CANT_TRACK_LATENCY: 0
BERTI CROSS_PAGE 20782358 NO_CROSS_PAGE: 143868254
BERTI FOUND_BERTI: 12979883 NO_FOUND_BERTI: 3699656
BERTI AVERAGE_ISSUED: 3.66298
