[VMEM] WARNING: physical memory size is smaller than virtual memory size.

*** ChampSim Multicore Out-of-Order Simulator ***
Warmup Instructions: 50000000
Simulation Instructions: 100000000
Number of CPUs: 1
Page size: 4096
Core 0: /data2/zcq/champsim_traces_gap/bfs.urand-60B.champsimtrace.xz
VBerti Prefetcher
BERTI HASH ENTANGLING
BERTI IP MASK ffff
Off-chip DRAM Size: 16 GiB Channels: 1 Width: 64-bit Data Rate: 3205 MT/s
Warmup halting CPU 0 at instruction 50000001 cycle 16267672 for remainder of phase
Warmup finished CPU 0 instructions: 50000001 cycles: 16267672 cumulative IPC: 3.074 (Simulation time: 00 hr 04 min 06 sec)
Warmup complete CPU 0 instructions: 50000001 cycles: 16267672 cumulative IPC: 3.074 (Simulation time: 00 hr 04 min 06 sec)
Simulation finished CPU 0 instructions: 100000000 cycles: 556096239 cumulative IPC: 0.1798 (Simulation time: 00 hr 41 min 51 sec)
Simulation complete CPU 0 instructions: 100000000 cycles: 556096239 cumulative IPC: 0.1798 (Simulation time: 00 hr 41 min 51 sec)

ChampSim completed all CPUs

=== Simulation ===
CPU 0 runs /data2/zcq/champsim_traces_gap/bfs.urand-60B.champsimtrace.xz

Region of Interest Statistics

CPU 0 cumulative IPC: 0.1798 instructions: 100000000 cycles: 556096239
CPU 0 Branch Prediction Accuracy: 86.37% MPKI: 24.23 Average ROB Occupancy at Mispredict: 20
Branch type MPKI
BRANCH_DIRECT_JUMP: 0
BRANCH_INDIRECT: 0
BRANCH_CONDITIONAL: 24.23
BRANCH_DIRECT_CALL: 0
BRANCH_INDIRECT_CALL: 0
BRANCH_RETURN: 0

cpu0->cpu0_STLB TOTAL        ACCESS:    6164859 HIT:    5522433 MISS:     642426 MSHR_MERGE:          0
cpu0->cpu0_STLB LOAD         ACCESS:    6164859 HIT:    5522433 MISS:     642426 MSHR_MERGE:          0
cpu0->cpu0_STLB RFO          ACCESS:          0 HIT:          0 MISS:          0 MSHR_MERGE:          0
cpu0->cpu0_STLB PREFETCH     ACCESS:          0 HIT:          0 MISS:          0 MSHR_MERGE:          0
cpu0->cpu0_STLB WRITE        ACCESS:          0 HIT:          0 MISS:          0 MSHR_MERGE:          0
cpu0->cpu0_STLB TRANSLATION  ACCESS:          0 HIT:          0 MISS:          0 MSHR_MERGE:          0
cpu0->cpu0_STLB PREFETCH REQUESTED:          0 ISSUED:          0 USEFUL:          0 USELESS:          0 LATE:          0 TOO_EARLY:          0
cpu0->cpu0_STLB AVERAGE MISS LATENCY: 61.46 cycles
cpu0->cpu0_L2C TOTAL        ACCESS:   20617075 HIT:    9221990 MISS:   11395085 MSHR_MERGE:     779871
cpu0->cpu0_L2C LOAD         ACCESS:    8219232 HIT:    1690359 MISS:    6528873 MSHR_MERGE:      52243
cpu0->cpu0_L2C RFO          ACCESS:          0 HIT:          0 MISS:          0 MSHR_MERGE:          0
cpu0->cpu0_L2C PREFETCH     ACCESS:   11745194 HIT:    7049722 MISS:    4695472 MSHR_MERGE:     727628
cpu0->cpu0_L2C WRITE        ACCESS:     158403 HIT:     158312 MISS:         91 MSHR_MERGE:          0
cpu0->cpu0_L2C TRANSLATION  ACCESS:     494246 HIT:     323597 MISS:     170649 MSHR_MERGE:          0
cpu0->cpu0_L2C PREFETCH REQUESTED:    1972719 ISSUED:    1972719 USEFUL:     357611 USELESS:     148664 LATE:      10502 TOO_EARLY:          8
cpu0->cpu0_L2C AVERAGE MISS LATENCY: 141.1 cycles
cpu0->cpu0_L1I TOTAL        ACCESS:          4 HIT:          4 MISS:          0 MSHR_MERGE:          0
cpu0->cpu0_L1I LOAD         ACCESS:          4 HIT:          4 MISS:          0 MSHR_MERGE:          0
cpu0->cpu0_L1I RFO          ACCESS:          0 HIT:          0 MISS:          0 MSHR_MERGE:          0
cpu0->cpu0_L1I PREFETCH     ACCESS:          0 HIT:          0 MISS:          0 MSHR_MERGE:          0
cpu0->cpu0_L1I WRITE        ACCESS:          0 HIT:          0 MISS:          0 MSHR_MERGE:          0
cpu0->cpu0_L1I TRANSLATION  ACCESS:          0 HIT:          0 MISS:          0 MSHR_MERGE:          0
cpu0->cpu0_L1I PREFETCH REQUESTED:          0 ISSUED:          0 USEFUL:          0 USELESS:          0 LATE:          0 TOO_EARLY:          0
cpu0->cpu0_L1I AVERAGE MISS LATENCY: - cycles
cpu0->cpu0_L1D TOTAL        ACCESS:   64327751 HIT:   41651389 MISS:   22676362 MSHR_MERGE:    3679681
cpu0->cpu0_L1D LOAD         ACCESS:   25886215 HIT:   13994231 MISS:   11891984 MSHR_MERGE:    3672752
cpu0->cpu0_L1D RFO          ACCESS:          0 HIT:          0 MISS:          0 MSHR_MERGE:          0
cpu0->cpu0_L1D PREFETCH     ACCESS:   31912058 HIT:   21625660 MISS:   10286398 MSHR_MERGE:       3195
cpu0->cpu0_L1D WRITE        ACCESS:    5249775 HIT:    5249775 MISS:          0 MSHR_MERGE:          0
cpu0->cpu0_L1D TRANSLATION  ACCESS:    1279703 HIT:     781723 MISS:     497980 MSHR_MERGE:       3734
cpu0->cpu0_L1D PREFETCH REQUESTED:   68989535 ISSUED:   36713544 USEFUL:     694956 USELESS:     287829 LATE:       9206 TOO_EARLY:       4417
cpu0->cpu0_L1D AVERAGE MISS LATENCY: 117.3 cycles
cpu0->cpu0_ITLB TOTAL        ACCESS:          3 HIT:          3 MISS:          0 MSHR_MERGE:          0
cpu0->cpu0_ITLB LOAD         ACCESS:          3 HIT:          3 MISS:          0 MSHR_MERGE:          0
cpu0->cpu0_ITLB RFO          ACCESS:          0 HIT:          0 MISS:          0 MSHR_MERGE:          0
cpu0->cpu0_ITLB PREFETCH     ACCESS:          0 HIT:          0 MISS:          0 MSHR_MERGE:          0
cpu0->cpu0_ITLB WRITE        ACCESS:          0 HIT:          0 MISS:          0 MSHR_MERGE:          0
cpu0->cpu0_ITLB TRANSLATION  ACCESS:          0 HIT:          0 MISS:          0 MSHR_MERGE:          0
cpu0->cpu0_ITLB PREFETCH REQUESTED:          0 ISSUED:          0 USEFUL:          0 USELESS:          0 LATE:          0 TOO_EARLY:          0
cpu0->cpu0_ITLB AVERAGE MISS LATENCY: - cycles
cpu0->cpu0_DTLB TOTAL        ACCESS:   54024171 HIT:   47729900 MISS:    6294271 MSHR_MERGE:     129412
cpu0->cpu0_DTLB LOAD         ACCESS:   54024171 HIT:   47729900 MISS:    6294271 MSHR_MERGE:     129412
cpu0->cpu0_DTLB RFO          ACCESS:          0 HIT:          0 MISS:          0 MSHR_MERGE:          0
cpu0->cpu0_DTLB PREFETCH     ACCESS:          0 HIT:          0 MISS:          0 MSHR_MERGE:          0
cpu0->cpu0_DTLB WRITE        ACCESS:          0 HIT:          0 MISS:          0 MSHR_MERGE:          0
cpu0->cpu0_DTLB TRANSLATION  ACCESS:          0 HIT:          0 MISS:          0 MSHR_MERGE:          0
cpu0->cpu0_DTLB PREFETCH REQUESTED:          0 ISSUED:          0 USEFUL:          0 USELESS:          0 LATE:          0 TOO_EARLY:          0
cpu0->cpu0_DTLB AVERAGE MISS LATENCY: 11.62 cycles
cpu0->LLC TOTAL        ACCESS:   10771476 HIT:    2981167 MISS:    7790309 MSHR_MERGE:         93
cpu0->LLC LOAD         ACCESS:    6476630 HIT:    2797530 MISS:    3679100 MSHR_MERGE:          0
cpu0->LLC RFO          ACCESS:          0 HIT:          0 MISS:          0 MSHR_MERGE:          0
cpu0->LLC PREFETCH     ACCESS:    3967844 HIT:       2240 MISS:    3965604 MSHR_MERGE:         93
cpu0->LLC WRITE        ACCESS:     156353 HIT:      28505 MISS:     127848 MSHR_MERGE:          0
cpu0->LLC TRANSLATION  ACCESS:     170649 HIT:     152892 MISS:      17757 MSHR_MERGE:          0
cpu0->LLC PREFETCH REQUESTED:          0 ISSUED:          0 USEFUL:          0 USELESS:          0 LATE:          0 TOO_EARLY:          0
cpu0->LLC AVERAGE MISS LATENCY: 218.9 cycles

DRAM Statistics

Channel 0 RQ ROW_BUFFER_HIT:     757770
  ROW_BUFFER_MISS:    6904598
  AVG DBUS CONGESTED CYCLE: 14
Channel 0 WQ ROW_BUFFER_HIT:      44079
  ROW_BUFFER_MISS:     112067
  FULL:          0
Channel 0 REFRESHES ISSUED:      46341

[ROI Statistics]
[System Configuration]
num_cpus 1
cpu_freq 4000
fetch_width 6
decode_width 6
dispatch_width 6
execute_width 6
lq_width 2
sq_width 2
retire_width 6
scheduler_size 128
branch_mispredict_penalty 15
rob_size 352
lq_size 128
sq_size 72
ifetch_buffer_size 64
decode_buffer_size 32
dispatch_buffer_size 32
register_file_size 288
decode_latency 1
dispatch_latency 1
schedule_latency 1
execute_latency 1
page_size 4096
block_size 64
core_0_itlb_set 16
core_0_itlb_way 4
core_0_itlb_rq_size 16
core_0_itlb_wq_size 16
core_0_itlb_pq_size 0
core_0_itlb_mshr_size 8
core_0_itlb_hit_latency 1
core_0_itlb_fill_latency 1
core_0_itlb_max_tag_check 2
core_0_itlb_max_fill 2
core_0_dtlb_set 16
core_0_dtlb_way 4
core_0_dtlb_rq_size 16
core_0_dtlb_wq_size 16
core_0_dtlb_pq_size 0
core_0_dtlb_mshr_size 8
core_0_dtlb_hit_latency 1
core_0_dtlb_fill_latency 1
core_0_dtlb_max_tag_check 2
core_0_dtlb_max_fill 2
core_0_stlb_set 128
core_0_stlb_way 12
core_0_stlb_rq_size 32
core_0_stlb_wq_size 32
core_0_stlb_pq_size 0
core_0_stlb_mshr_size 16
core_0_stlb_hit_latency 4
core_0_stlb_fill_latency 4
core_0_stlb_max_tag_check 1
core_0_stlb_max_fill 1
core_0_l1i_set 64
core_0_l1i_way 8
core_0_l1i_rq_size 64
core_0_l1i_wq_size 64
core_0_l1i_pq_size 32
core_0_l1i_mshr_size 8
core_0_l1i_hit_latency 2
core_0_l1i_fill_latency 2
core_0_l1i_max_tag_check 2
core_0_l1i_max_fill 2
core_0_l1d_set 64
core_0_l1d_way 12
core_0_l1d_rq_size 64
core_0_l1d_wq_size 64
core_0_l1d_pq_size 8
core_0_l1d_mshr_size 16
core_0_l1d_hit_latency 2
core_0_l1d_fill_latency 3
core_0_l1d_max_tag_check 2
core_0_l1d_max_fill 2
core_0_l2c_set 1024
core_0_l2c_way 8
core_0_l2c_rq_size 32
core_0_l2c_wq_size 32
core_0_l2c_pq_size 16
core_0_l2c_mshr_size 32
core_0_l2c_hit_latency 5
core_0_l2c_fill_latency 5
core_0_l2c_max_tag_check 1
core_0_l2c_max_fill 1
llc_set 2048
llc_way 16
llc_rq_size 32
llc_wq_size 32
llc_pq_size 32
llc_mshr_size 64
llc_hit_latency 10
llc_fill_latency 10
llc_max_tag_check 1
llc_max_fill 1
dram_channels 1
dram_ranks 1
dram_bankgroups 8
dram_banks 4
dram_rows 65536
dram_columns 1024
dram_channel_width 8
dram_rq_size 64
dram_wq_size 64
dram_size 17179869184
core_0_itlb_prefetcher no
core_0_dtlb_prefetcher no
core_0_stlb_prefetcher no
core_0_l1i_prefetcher next_line
core_0_l1d_prefetcher vberti
core_0_l2c_prefetcher ip_stride
llc_prefetcher no
llc_replacement drrip

Core_0_instructions 100000000
Core_0_cycles 556096239
Core_0_IPC 0.179825
Core_0_branch_prediction_accuracy 86.3661
Core_0_branch_MPKI 24.2341
Core_0_average_ROB_occupancy_at_mispredict 20.0042

Core_0_ITLB_total_access 3
Core_0_ITLB_total_hit 3
Core_0_ITLB_total_miss 0
Core_0_ITLB_total_MPKI 0
Core_0_ITLB_total_miss_rate 0
Core_0_ITLB_demand_access 3
Core_0_ITLB_demand_hit 3
Core_0_ITLB_demand_miss 0
Core_0_ITLB_demand_MPKI 0
Core_0_ITLB_demand_miss_rate 0
Core_0_ITLB_load_access 3
Core_0_ITLB_load_hit 3
Core_0_ITLB_load_miss 0
Core_0_ITLB_load_MPKI 0
Core_0_ITLB_load_miss_rate 0
Core_0_ITLB_rfo_access 0
Core_0_ITLB_rfo_hit 0
Core_0_ITLB_rfo_miss 0
Core_0_ITLB_rfo_MPKI 0
Core_0_ITLB_rfo_miss_rate 0
Core_0_ITLB_prefetch_access 0
Core_0_ITLB_prefetch_hit 0
Core_0_ITLB_prefetch_miss 0
Core_0_ITLB_prefetch_MPKI 0
Core_0_ITLB_prefetch_miss_rate 0
Core_0_ITLB_writeback_access 0
Core_0_ITLB_writeback_hit 0
Core_0_ITLB_writeback_miss 0
Core_0_ITLB_writeback_MPKI 0
Core_0_ITLB_writeback_miss_rate 0
Core_0_ITLB_prefetch_requested 0
Core_0_ITLB_prefetch_issued 0
Core_0_ITLB_prefetch_useful 0
Core_0_ITLB_prefetch_useless 0
Core_0_ITLB_prefetch_late 0
Core_0_ITLB_prefetch_fill 0
Core_0_ITLB_prefetch_too_early 0
Core_0_ITLB_prefetch_too_early_among_fill 0
Core_0_ITLB_prefetch_too_early_among_useless 0
Core_0_ITLB_prefetch_pollution_evict 0
Core_0_ITLB_prefetch_pollution_demand 0
Core_0_ITLB_prefetch_pollution_among_prefetch_fill 0
Core_0_ITLB_prefetch_accuracy 0
Core_0_ITLB_prefetch_coverage 0

Core_0_DTLB_total_access 54024171
Core_0_DTLB_total_hit 47729900
Core_0_DTLB_total_miss 6294271
Core_0_DTLB_total_MPKI 62.9427
Core_0_DTLB_total_miss_rate 0.116508
Core_0_DTLB_demand_access 54024171
Core_0_DTLB_demand_hit 47729900
Core_0_DTLB_demand_miss 6294271
Core_0_DTLB_demand_MPKI 62.9427
Core_0_DTLB_demand_miss_rate 0.116508
Core_0_DTLB_load_access 54024171
Core_0_DTLB_load_hit 47729900
Core_0_DTLB_load_miss 6294271
Core_0_DTLB_load_MPKI 62.9427
Core_0_DTLB_load_miss_rate 0.116508
Core_0_DTLB_rfo_access 0
Core_0_DTLB_rfo_hit 0
Core_0_DTLB_rfo_miss 0
Core_0_DTLB_rfo_MPKI 0
Core_0_DTLB_rfo_miss_rate 0
Core_0_DTLB_prefetch_access 0
Core_0_DTLB_prefetch_hit 0
Core_0_DTLB_prefetch_miss 0
Core_0_DTLB_prefetch_MPKI 0
Core_0_DTLB_prefetch_miss_rate 0
Core_0_DTLB_writeback_access 0
Core_0_DTLB_writeback_hit 0
Core_0_DTLB_writeback_miss 0
Core_0_DTLB_writeback_MPKI 0
Core_0_DTLB_writeback_miss_rate 0
Core_0_DTLB_prefetch_requested 0
Core_0_DTLB_prefetch_issued 0
Core_0_DTLB_prefetch_useful 0
Core_0_DTLB_prefetch_useless 0
Core_0_DTLB_prefetch_late 0
Core_0_DTLB_prefetch_fill 0
Core_0_DTLB_prefetch_too_early 0
Core_0_DTLB_prefetch_too_early_among_fill 0
Core_0_DTLB_prefetch_too_early_among_useless 0
Core_0_DTLB_prefetch_pollution_evict 0
Core_0_DTLB_prefetch_pollution_demand 0
Core_0_DTLB_prefetch_pollution_among_prefetch_fill 0
Core_0_DTLB_prefetch_accuracy 0
Core_0_DTLB_prefetch_coverage 0

Core_0_STLB_total_access 6164859
Core_0_STLB_total_hit 5522433
Core_0_STLB_total_miss 642426
Core_0_STLB_total_MPKI 6.42426
Core_0_STLB_total_miss_rate 0.104208
Core_0_STLB_demand_access 6164859
Core_0_STLB_demand_hit 5522433
Core_0_STLB_demand_miss 642426
Core_0_STLB_demand_MPKI 6.42426
Core_0_STLB_demand_miss_rate 0.104208
Core_0_STLB_load_access 6164859
Core_0_STLB_load_hit 5522433
Core_0_STLB_load_miss 642426
Core_0_STLB_load_MPKI 6.42426
Core_0_STLB_load_miss_rate 0.104208
Core_0_STLB_rfo_access 0
Core_0_STLB_rfo_hit 0
Core_0_STLB_rfo_miss 0
Core_0_STLB_rfo_MPKI 0
Core_0_STLB_rfo_miss_rate 0
Core_0_STLB_prefetch_access 0
Core_0_STLB_prefetch_hit 0
Core_0_STLB_prefetch_miss 0
Core_0_STLB_prefetch_MPKI 0
Core_0_STLB_prefetch_miss_rate 0
Core_0_STLB_writeback_access 0
Core_0_STLB_writeback_hit 0
Core_0_STLB_writeback_miss 0
Core_0_STLB_writeback_MPKI 0
Core_0_STLB_writeback_miss_rate 0
Core_0_STLB_prefetch_requested 0
Core_0_STLB_prefetch_issued 0
Core_0_STLB_prefetch_useful 0
Core_0_STLB_prefetch_useless 0
Core_0_STLB_prefetch_late 0
Core_0_STLB_prefetch_fill 0
Core_0_STLB_prefetch_too_early 0
Core_0_STLB_prefetch_too_early_among_fill 0
Core_0_STLB_prefetch_too_early_among_useless 0
Core_0_STLB_prefetch_pollution_evict 0
Core_0_STLB_prefetch_pollution_demand 0
Core_0_STLB_prefetch_pollution_among_prefetch_fill 0
Core_0_STLB_prefetch_accuracy 0
Core_0_STLB_prefetch_coverage 0

Core_0_L1I_total_access 4
Core_0_L1I_total_hit 4
Core_0_L1I_total_miss 0
Core_0_L1I_total_MPKI 0
Core_0_L1I_total_miss_rate 0
Core_0_L1I_demand_access 4
Core_0_L1I_demand_hit 4
Core_0_L1I_demand_miss 0
Core_0_L1I_demand_MPKI 0
Core_0_L1I_demand_miss_rate 0
Core_0_L1I_load_access 4
Core_0_L1I_load_hit 4
Core_0_L1I_load_miss 0
Core_0_L1I_load_MPKI 0
Core_0_L1I_load_miss_rate 0
Core_0_L1I_rfo_access 0
Core_0_L1I_rfo_hit 0
Core_0_L1I_rfo_miss 0
Core_0_L1I_rfo_MPKI 0
Core_0_L1I_rfo_miss_rate 0
Core_0_L1I_prefetch_access 0
Core_0_L1I_prefetch_hit 0
Core_0_L1I_prefetch_miss 0
Core_0_L1I_prefetch_MPKI 0
Core_0_L1I_prefetch_miss_rate 0
Core_0_L1I_writeback_access 0
Core_0_L1I_writeback_hit 0
Core_0_L1I_writeback_miss 0
Core_0_L1I_writeback_MPKI 0
Core_0_L1I_writeback_miss_rate 0
Core_0_L1I_prefetch_requested 0
Core_0_L1I_prefetch_issued 0
Core_0_L1I_prefetch_useful 0
Core_0_L1I_prefetch_useless 0
Core_0_L1I_prefetch_late 0
Core_0_L1I_prefetch_fill 0
Core_0_L1I_prefetch_too_early 0
Core_0_L1I_prefetch_too_early_among_fill 0
Core_0_L1I_prefetch_too_early_among_useless 0
Core_0_L1I_prefetch_pollution_evict 0
Core_0_L1I_prefetch_pollution_demand 0
Core_0_L1I_prefetch_pollution_among_prefetch_fill 0
Core_0_L1I_prefetch_accuracy 0
Core_0_L1I_prefetch_coverage 0

Core_0_L1D_total_access 63048048
Core_0_L1D_total_hit 40869666
Core_0_L1D_total_miss 22178382
Core_0_L1D_total_MPKI 221.784
Core_0_L1D_total_miss_rate 0.35177
Core_0_L1D_demand_access 25886215
Core_0_L1D_demand_hit 13994231
Core_0_L1D_demand_miss 11891984
Core_0_L1D_demand_MPKI 118.92
Core_0_L1D_demand_miss_rate 0.459394
Core_0_L1D_load_access 25886215
Core_0_L1D_load_hit 13994231
Core_0_L1D_load_miss 11891984
Core_0_L1D_load_MPKI 118.92
Core_0_L1D_load_miss_rate 0.459394
Core_0_L1D_rfo_access 0
Core_0_L1D_rfo_hit 0
Core_0_L1D_rfo_miss 0
Core_0_L1D_rfo_MPKI 0
Core_0_L1D_rfo_miss_rate 0
Core_0_L1D_prefetch_access 31912058
Core_0_L1D_prefetch_hit 21625660
Core_0_L1D_prefetch_miss 10286398
Core_0_L1D_prefetch_MPKI 102.864
Core_0_L1D_prefetch_miss_rate 0.322336
Core_0_L1D_writeback_access 5249775
Core_0_L1D_writeback_hit 5249775
Core_0_L1D_writeback_miss 0
Core_0_L1D_writeback_MPKI 0
Core_0_L1D_writeback_miss_rate 0
Core_0_L1D_prefetch_requested 68989535
Core_0_L1D_prefetch_issued 36713544
Core_0_L1D_prefetch_useful 694956
Core_0_L1D_prefetch_useless 287829
Core_0_L1D_prefetch_late 9206
Core_0_L1D_prefetch_fill 973607
Core_0_L1D_prefetch_too_early 4417
Core_0_L1D_prefetch_too_early_among_fill 0.00453674
Core_0_L1D_prefetch_too_early_among_useless 0.0153459
Core_0_L1D_prefetch_pollution_evict 53781
Core_0_L1D_prefetch_pollution_demand 53324
Core_0_L1D_cross_page_pf_translation_only_requested 12090560
Core_0_L1D_cross_page_pf_translation_only_issued 4801492
Core_0_L1D_cross_page_pf_translation_only_dropped 4801492
Core_0_L1D_prefetch_pollution_among_prefetch_fill 0.0552389
Core_0_L1D_prefetch_accuracy 0.0189291
Core_0_L1D_prefetch_coverage 0.0552125

Core_0_L2C_total_access 20122829
Core_0_L2C_total_hit 8898393
Core_0_L2C_total_miss 11224436
Core_0_L2C_total_MPKI 112.244
Core_0_L2C_total_miss_rate 0.557796
Core_0_L2C_demand_access 8219232
Core_0_L2C_demand_hit 1690359
Core_0_L2C_demand_miss 6528873
Core_0_L2C_demand_MPKI 65.2887
Core_0_L2C_demand_miss_rate 0.794341
Core_0_L2C_load_access 8219232
Core_0_L2C_load_hit 1690359
Core_0_L2C_load_miss 6528873
Core_0_L2C_load_MPKI 65.2887
Core_0_L2C_load_miss_rate 0.794341
Core_0_L2C_rfo_access 0
Core_0_L2C_rfo_hit 0
Core_0_L2C_rfo_miss 0
Core_0_L2C_rfo_MPKI 0
Core_0_L2C_rfo_miss_rate 0
Core_0_L2C_prefetch_access 11745194
Core_0_L2C_prefetch_hit 7049722
Core_0_L2C_prefetch_miss 4695472
Core_0_L2C_prefetch_MPKI 46.9547
Core_0_L2C_prefetch_miss_rate 0.399778
Core_0_L2C_writeback_access 158403
Core_0_L2C_writeback_hit 158312
Core_0_L2C_writeback_miss 91
Core_0_L2C_writeback_MPKI 0.00091
Core_0_L2C_writeback_miss_rate 0.000574484
Core_0_L2C_prefetch_requested 1972719
Core_0_L2C_prefetch_issued 1972719
Core_0_L2C_prefetch_useful 357611
Core_0_L2C_prefetch_useless 148664
Core_0_L2C_prefetch_late 10502
Core_0_L2C_prefetch_fill 3914540
Core_0_L2C_prefetch_too_early 8
Core_0_L2C_prefetch_too_early_among_fill 2.04366e-06
Core_0_L2C_prefetch_too_early_among_useless 5.38126e-05
Core_0_L2C_prefetch_pollution_evict 407418
Core_0_L2C_prefetch_pollution_demand 407418
Core_0_L2C_prefetch_pollution_among_prefetch_fill 0.104078
Core_0_L2C_prefetch_accuracy 0.181278
Core_0_L2C_prefetch_coverage 0.0519294

Core_0_LLC_total_access 10600827
Core_0_LLC_total_hit 2828275
Core_0_LLC_total_miss 7772552
Core_0_LLC_total_MPKI 77.7255
Core_0_LLC_total_miss_rate 0.733202
Core_0_LLC_demand_access 6476630
Core_0_LLC_demand_hit 2797530
Core_0_LLC_demand_miss 3679100
Core_0_LLC_demand_MPKI 36.791
Core_0_LLC_demand_miss_rate 0.568058
Core_0_LLC_load_access 6476630
Core_0_LLC_load_hit 2797530
Core_0_LLC_load_miss 3679100
Core_0_LLC_load_MPKI 36.791
Core_0_LLC_load_miss_rate 0.568058
Core_0_LLC_rfo_access 0
Core_0_LLC_rfo_hit 0
Core_0_LLC_rfo_miss 0
Core_0_LLC_rfo_MPKI 0
Core_0_LLC_rfo_miss_rate 0
Core_0_LLC_prefetch_access 3967844
Core_0_LLC_prefetch_hit 2240
Core_0_LLC_prefetch_miss 3965604
Core_0_LLC_prefetch_MPKI 39.656
Core_0_LLC_prefetch_miss_rate 0.999435
Core_0_LLC_writeback_access 156353
Core_0_LLC_writeback_hit 28505
Core_0_LLC_writeback_miss 127848
Core_0_LLC_writeback_MPKI 1.27848
Core_0_LLC_writeback_miss_rate 0.817688
Core_0_LLC_prefetch_requested 0
Core_0_LLC_prefetch_issued 0
Core_0_LLC_prefetch_useful 0
Core_0_LLC_prefetch_useless 0
Core_0_LLC_prefetch_late 0
Core_0_LLC_prefetch_fill 3965511
Core_0_LLC_prefetch_too_early 0
Core_0_LLC_prefetch_too_early_among_fill 0
Core_0_LLC_prefetch_too_early_among_useless 0
Core_0_LLC_prefetch_pollution_evict 572913
Core_0_LLC_prefetch_pollution_demand 572913
Core_0_LLC_prefetch_pollution_among_prefetch_fill 0.144474
Core_0_LLC_prefetch_accuracy 0
Core_0_LLC_prefetch_coverage 0

[DRAM Statistics]
Channel_0_RQ_row_buffer_hit 757770
Channel_0_RQ_row_buffer_miss 6904598
Channel_0_WQ_row_buffer_hit 44079
Channel_0_WQ_row_buffer_miss 112067
Channel_0_WQ_full 0
Channel_0_dbus_congested 20251516
DRAM_total_RQ_row_buffer_hit 757770
DRAM_total_RQ_row_buffer_miss 6904598
DRAM_total_WQ_row_buffer_hit 44079
DRAM_total_WQ_row_buffer_miss 112067
DRAM_total_WQ_full 0
DRAM_total_dbus_congested 20251516
DRAM_avg_congested_cycle 13.9979

====== DRAM_RQ_TRAFFIC ========
DRAM_RQ_READ_TRAFFIC_BREAKDOWN:
data_demand_read.count = 3679101
data_demand_read.share = 48.02%

inst_demand_read.count = 0
inst_demand_read.share = 0.00%

cache_inst_prefetch.count = 0
cache_inst_prefetch.share = 0.00%

cache_data_prefetch.count = 3965511
cache_data_prefetch.share = 51.75%

stlb_data_demand.count = 7071
stlb_data_demand.share = 0.09%

stlb_inst_demand.count = 0
stlb_inst_demand.share = 0.00%

stlb_l1i_pref.count = 0
stlb_l1i_pref.share = 0.00%

stlb_l1d_pref.count = 10686
stlb_l1d_pref.share = 0.14%

DRAM_RQ_READ_TRAFFIC_SUMMARY:
cache_demand.count = 3679101
cache_demand.share = 48.02%

cache_prefetch.count = 3965511
cache_prefetch.share = 51.75%

stlb_demand.count = 7071
stlb_demand.share = 0.09%

stlb_prefetch.count = 10686
stlb_prefetch.share = 0.14%

DRAM_RQ_READ_TRAFFIC_DEBUG:
total_classified_read.count = 7662369
unclassified_read.count = 0
total_read_with_other.count = 7662369

classified_plus_unclassified_check.count = 7662369
dram_rq_read_total_observed.count = 7662369
dram_rq_read_total_observed.per_1K_instructions = 76.6237

STLB_MISS_PTW_DRAM_TOUCH_BREAKDOWN:
stlb_miss_total.count = 642426

stlb_miss_touch_dram.count = 17648
stlb_miss_touch_dram.share = 2.75%

stlb_miss_no_dram_touch.count = 624778
stlb_miss_no_dram_touch.share = 97.25%

STLB_MISS_PTW_DRAM_TOUCH_DEBUG:
stlb_miss_touch_plus_no_touch.count = 642426
stlb_miss_total_check.count = 642426

======STLB miss causes ========
Core_0_STLB_miss_cause_breakdown
Core_0_STLB_cause_Demand_Data_miss 559500
Core_0_STLB_cause_Demand_Data_miss_rate 0.0907563
Core_0_STLB_cause_Demand_Instruction_miss 0
Core_0_STLB_cause_Demand_Instruction_miss_rate 0
Core_0_STLB_cause_L1D_Prefetch_miss 82926
Core_0_STLB_cause_L1D_Prefetch_miss_rate 0.0134514
Core_0_STLB_cause_L1D_Prefetch_Same_Page_miss 2
Core_0_STLB_cause_L1D_Prefetch_Same_Page_miss_rate 3.24419e-07
Core_0_STLB_cause_L1D_Prefetch_Cross_Page_miss 82924
Core_0_STLB_cause_L1D_Prefetch_Cross_Page_miss_rate 0.0134511
Core_0_STLB_cause_L1I_Prefetch_miss 0
Core_0_STLB_cause_L1I_Prefetch_miss_rate 0
Core_0_STLB_cause_Other_miss 0
Core_0_STLB_cause_Other_miss_rate 0
Core_0_STLB_Demand_miss 559500
Core_0_STLB_Demand_miss_rate 0.0907563
Core_0_STLB_L1D_Prefetch_miss 82926
Core_0_STLB_L1D_Prefetch_miss_rate 0.0134514
Core_0_STLB_Other_miss 0
Core_0_STLB_Other_miss_rate 0

========== vBerti-TLB Cross-page Flow Stats ==========

Core_0_vBerti_Requested 68989535
Core_0_vBerti_Cross_page_prefetch_in_Requested 12090560
Core_0_vBerti_Same_page_prefetch_in_Requested 56898975
Core_0_vBerti_Cross_page_prefetch_of_Requested 0.175252
Core_0_vBerti_Issued 36713544
Core_0_vBerti_InPQ_Same_page_prefetch 31912052
Core_0_vBerti_InPQ_Cross_page_prefetch 4801492
Core_0_vBerti_PQ_Drop_Rate 0.467839
Core_0_vBerti_InPQ_Cross_page_prefetch_of_Requested 0.0695974
Core_0_vBerti_Cross_page_PQ_Drop_rate 0.602873
Core_0_vBerti_Cross_page_prefetch_of_Issued 0.130783
Core_0_CP_PF_PQFULL_drop 7289068
Core_0_CP_PF_PQFULL_TLB_rescue_enqueued 0
Core_0_CP_PF_PQFULL_TLB_rescue_issued 0
Core_0_CP_PF_PQFULL_TLB_rescue_translated 0

========= DTLB_vBerti Prefetch Stats =========
Core_0_DTLB_demand_access 30461663
Core_0_DTLB_demand_hit 24350757
Core_0_DTLB_demand_miss 6110906
Core_0_DTLB_demand_mshr_merge 32792
Core_0_DTLB_demand_fill 6078228
Core_0_DTLB_demand_miss_rate 0.20061
Core_0_DTLB_demand_mpki 61.1091
Core_0_DTLB_vberti_prefetch_access 23562508
Core_0_DTLB_vberti_prefetch_hit 23379143
Core_0_DTLB_vberti_prefetch_miss 183365
Core_0_DTLB_vberti_prefetch_mshr_merge 96620
Core_0_DTLB_vberti_prefetch_fill 86631
Core_0_DTLB_vberti_prefetch_miss_rate 0.00778207
Core_0_DTLB_vberti_prefetch_mpki 1.83365

=== DTLB_vBerti Same/Cross-page Prefetch Stats ===
Core_0_DTLB_vberti_same_page_prefetch 20329187
Core_0_DTLB_vberti_same_page_prefetch_hit 20329125
Core_0_DTLB_vberti_same_page_prefetch_miss 62
Core_0_DTLB_vberti_same_page_prefetch_mshr_merge 33
Core_0_DTLB_vberti_same_page_prefetch_fill 28
Core_0_DTLB_vberti_same_page_prefetch_miss_rate 3.0498e-06
Core_0_DTLB_vberti_same_page_prefetch_mpki 0.00062
Core_0_DTLB_vberti_cross_page_prefetch 3233321
Core_0_DTLB_vberti_cross_page_prefetch_hit 3050018
Core_0_DTLB_vberti_cross_page_prefetch_miss 183303
Core_0_DTLB_vberti_cross_page_prefetch_mshr_merge 96587
Core_0_DTLB_vberti_cross_page_prefetch_fill 86603
Core_0_DTLB_vberti_cross_page_prefetch_miss_rate 0.0566919
Core_0_DTLB_vberti_cross_page_prefetch_mpki 1.83303
Core_0_DTLB_same_page_prefetch_miss_rate 3.0498e-06
Core_0_DTLB_same_page_prefetch_mpki 0.00062
Core_0_DTLB_cross_page_prefetch_miss_rate 0.0566919
Core_0_DTLB_cross_page_prefetch_mpki 1.83303
Core_0_DTLB_cross_page_prefetch_issued 3233321
Core_0_DTLB_cross_page_prefetch_lookups 3233321
Core_0_DTLB_cross_page_prefetch_useful 82637
Core_0_DTLB_cross_page_prefetch_useless 4079
Core_0_DTLB_cross_page_prefetch_late 113
Core_0_DTLB_cross_page_prefetch_too_early 1111
Core_0_DTLB_cross_page_prefetch_too_early_among_fill 0.0128287
Core_0_DTLB_cross_page_prefetch_too_early_among_useless 0.272371
Core_0_DTLB_cross_page_prefetch_pollution_evict 77262
Core_0_DTLB_cross_page_prefetch_pollution_demand 77091
Core_0_DTLB_cross_page_prefetch_pollution_among_prefetch_fill 0.89214
Core_0_DTLB_cross_page_prefetch_accuracy 0.0255579
Core_0_DTLB_cross_page_prefetch_coverage 0.0133424

========= STLB_vBerti Prefetch Stats =========
Core_0_STLB_demand_access 6078114
Core_0_STLB_demand_hit 5518614
Core_0_STLB_demand_miss 559500
Core_0_STLB_demand_mshr_merge 0
Core_0_STLB_demand_fill 559500
Core_0_STLB_demand_miss_rate 0.0920516
Core_0_STLB_demand_mpki 5.595
Core_0_STLB_vberti_prefetch_access 86745
Core_0_STLB_vberti_prefetch_hit 3819
Core_0_STLB_vberti_prefetch_miss 82926
Core_0_STLB_vberti_prefetch_mshr_merge 0
Core_0_STLB_vberti_prefetch_fill 82926
Core_0_STLB_vberti_prefetch_miss_rate 0.955974
Core_0_STLB_vberti_prefetch_mpki 0.82926

=== STLB_vBerti Same/Cross-page Prefetch Stats ===
Core_0_STLB_vberti_same_page_prefetch 29
Core_0_STLB_vberti_same_page_prefetch_hit 27
Core_0_STLB_vberti_same_page_prefetch_miss 2
Core_0_STLB_vberti_same_page_prefetch_mshr_merge 0
Core_0_STLB_vberti_same_page_prefetch_fill 2
Core_0_STLB_vberti_same_page_prefetch_miss_rate 0.0689655
Core_0_STLB_vberti_same_page_prefetch_mpki 2e-05
Core_0_STLB_vberti_cross_page_prefetch 86716
Core_0_STLB_vberti_cross_page_prefetch_hit 3792
Core_0_STLB_vberti_cross_page_prefetch_miss 82924
Core_0_STLB_vberti_cross_page_prefetch_mshr_merge 0
Core_0_STLB_vberti_cross_page_prefetch_fill 82924
Core_0_STLB_vberti_cross_page_prefetch_miss_rate 0.956271
Core_0_STLB_vberti_cross_page_prefetch_mpki 0.82924
Core_0_STLB_same_page_prefetch_miss_rate 0.0689655
Core_0_STLB_same_page_prefetch_mpki 2e-05
Core_0_STLB_cross_page_prefetch_miss_rate 0.956271
Core_0_STLB_cross_page_prefetch_mpki 0.82924
Core_0_STLB_cross_page_prefetch_issued 86716
Core_0_STLB_cross_page_prefetch_lookups 86716
Core_0_STLB_cross_page_prefetch_useful 5063
Core_0_STLB_cross_page_prefetch_useless 77861
Core_0_STLB_cross_page_prefetch_late 0
Core_0_STLB_cross_page_prefetch_too_early 137
Core_0_STLB_cross_page_prefetch_too_early_among_fill 0.00165212
Core_0_STLB_cross_page_prefetch_too_early_among_useless 0.00175955
Core_0_STLB_cross_page_prefetch_pollution_evict 73924
Core_0_STLB_cross_page_prefetch_pollution_demand 73900
Core_0_STLB_cross_page_prefetch_pollution_among_prefetch_fill 0.891467
Core_0_STLB_cross_page_prefetch_accuracy 0.058386
Core_0_STLB_cross_page_prefetch_coverage 0.008968

========= STLB Cross-page Prefetch Buffer Stats =========
Core_0_STLB_raw_demand_miss 559500
Core_0_CP_PB_insert 0
Core_0_CP_PB_demand_hit 0
Core_0_STLB_PB_demand_miss 559500
Core_0_CP_PB_coverage 0
Core_0_STLB_raw_demand_mpki 5.595
Core_0_STLB_PB_demand_mpki 5.595
Core_0_CP_PB_demand_hit_mpki 0

Core_0_TLB_demand_miss_rate 0.0183673
Core_0_TLB_demand_mpki 5.595
Core_0_TLB_same_page_prefetch_miss_rate 9.83807e-08
Core_0_TLB_same_page_prefetch_mpki 2e-05
Core_0_TLB_cross_page_prefetch_miss_rate 0.0256467
Core_0_TLB_cross_page_prefetch_mpki 0.82924
Core_0_TLB_cross_page_prefetch_issued 3233321
Core_0_TLB_cross_page_prefetch_lookups 3233321
Core_0_TLB_cross_page_prefetch_useful 82617
Core_0_TLB_cross_page_prefetch_useless 4079
Core_0_TLB_cross_page_prefetch_late 113
Core_0_TLB_cross_page_prefetch_too_early 1091
Core_0_TLB_cross_page_prefetch_too_early_among_fill 0.00643555
Core_0_TLB_cross_page_prefetch_too_early_among_useless 0.267468
Core_0_TLB_cross_page_prefetch_accuracy 0.0255517
Core_0_TLB_cross_page_prefetch_coverage 0.128663
====== vBerti internal metric ========
Core_0_vBerti_end_to_end_issued 31912052
Core_0_vBerti_end_to_end_useful 1658239
Core_0_vBerti_end_to_end_late 49913
Core_0_vBerti_end_to_end_accuracy 0.0519628
Core_0_vBerti_end_to_end_timely_accuracy 0.0503987
BERTI TO_L1: 19290333 TO_L2: 37608642 TO_L2_BC_MSHR: 391
BERTI AVG_LAT: 129.918 NUM_TRACK_LATENCY: 9183462 NUM_CANT_TRACK_LATENCY: 0
BERTI CROSS_PAGE 12090560 NO_CROSS_PAGE: 56898975
BERTI FOUND_BERTI: 21547485 NO_FOUND_BERTI: 10514337
BERTI AVERAGE_ISSUED: 3.11323
