[VMEM] WARNING: physical memory size is smaller than virtual memory size.

*** ChampSim Multicore Out-of-Order Simulator ***
Warmup Instructions: 50000000
Simulation Instructions: 100000000
Number of CPUs: 1
Page size: 4096
Core 0: /data2/zcq/champsim_traces_gap/bfs.road-112B.champsimtrace.xz
VBerti Prefetcher
BERTI HASH ENTANGLING
BERTI IP MASK ffff
Off-chip DRAM Size: 16 GiB Channels: 1 Width: 64-bit Data Rate: 3205 MT/s
Warmup halting CPU 0 at instruction 50000004 cycle 16848307 for remainder of phase
Warmup finished CPU 0 instructions: 50000004 cycles: 16848307 cumulative IPC: 2.968 (Simulation time: 00 hr 03 min 34 sec)
Warmup complete CPU 0 instructions: 50000004 cycles: 16848307 cumulative IPC: 2.968 (Simulation time: 00 hr 03 min 34 sec)
Simulation finished CPU 0 instructions: 100000000 cycles: 525002666 cumulative IPC: 0.1905 (Simulation time: 00 hr 41 min 17 sec)
Simulation complete CPU 0 instructions: 100000000 cycles: 525002666 cumulative IPC: 0.1905 (Simulation time: 00 hr 41 min 17 sec)

ChampSim completed all CPUs

=== Simulation ===
CPU 0 runs /data2/zcq/champsim_traces_gap/bfs.road-112B.champsimtrace.xz

Region of Interest Statistics

CPU 0 cumulative IPC: 0.1905 instructions: 100000000 cycles: 525002666
CPU 0 Branch Prediction Accuracy: 86.4% MPKI: 23.58 Average ROB Occupancy at Mispredict: 20.08
Branch type MPKI
BRANCH_DIRECT_JUMP: 0.00449
BRANCH_INDIRECT: 0.00898
BRANCH_CONDITIONAL: 23.54
BRANCH_DIRECT_CALL: 0
BRANCH_INDIRECT_CALL: 0.00449
BRANCH_RETURN: 0.01796

cpu0->cpu0_STLB TOTAL        ACCESS:    1302049 HIT:     511491 MISS:     790558 MSHR_MERGE:          0
cpu0->cpu0_STLB LOAD         ACCESS:    1302049 HIT:     511491 MISS:     790558 MSHR_MERGE:          0
cpu0->cpu0_STLB RFO          ACCESS:          0 HIT:          0 MISS:          0 MSHR_MERGE:          0
cpu0->cpu0_STLB PREFETCH     ACCESS:          0 HIT:          0 MISS:          0 MSHR_MERGE:          0
cpu0->cpu0_STLB WRITE        ACCESS:          0 HIT:          0 MISS:          0 MSHR_MERGE:          0
cpu0->cpu0_STLB TRANSLATION  ACCESS:          0 HIT:          0 MISS:          0 MSHR_MERGE:          0
cpu0->cpu0_STLB PREFETCH REQUESTED:          0 ISSUED:          0 USEFUL:          0 USELESS:          0 LATE:          0 TOO_EARLY:          0
cpu0->cpu0_STLB AVERAGE MISS LATENCY: 26.92 cycles
cpu0->cpu0_L2C TOTAL        ACCESS:    9840847 HIT:    4334875 MISS:    5505972 MSHR_MERGE:     125888
cpu0->cpu0_L2C LOAD         ACCESS:    4944559 HIT:     293222 MISS:    4651337 MSHR_MERGE:       1030
cpu0->cpu0_L2C RFO          ACCESS:      16651 HIT:       2120 MISS:      14531 MSHR_MERGE:          0
cpu0->cpu0_L2C PREFETCH     ACCESS:    2997230 HIT:    2457043 MISS:     540187 MSHR_MERGE:     124858
cpu0->cpu0_L2C WRITE        ACCESS:    1475168 HIT:    1475159 MISS:          9 MSHR_MERGE:          0
cpu0->cpu0_L2C TRANSLATION  ACCESS:     407239 HIT:     107331 MISS:     299908 MSHR_MERGE:          0
cpu0->cpu0_L2C PREFETCH REQUESTED:     742475 ISSUED:     734184 USEFUL:     136954 USELESS:      54127 LATE:        392 TOO_EARLY:      32789
cpu0->cpu0_L2C AVERAGE MISS LATENCY: 71.43 cycles
cpu0->cpu0_L1I TOTAL        ACCESS:    7240648 HIT:    7217754 MISS:      22894 MSHR_MERGE:       6684
cpu0->cpu0_L1I LOAD         ACCESS:    7240648 HIT:    7217754 MISS:      22894 MSHR_MERGE:       6684
cpu0->cpu0_L1I RFO          ACCESS:          0 HIT:          0 MISS:          0 MSHR_MERGE:          0
cpu0->cpu0_L1I PREFETCH     ACCESS:          0 HIT:          0 MISS:          0 MSHR_MERGE:          0
cpu0->cpu0_L1I WRITE        ACCESS:          0 HIT:          0 MISS:          0 MSHR_MERGE:          0
cpu0->cpu0_L1I TRANSLATION  ACCESS:          0 HIT:          0 MISS:          0 MSHR_MERGE:          0
cpu0->cpu0_L1I PREFETCH REQUESTED:          0 ISSUED:          0 USEFUL:          0 USELESS:          0 LATE:          0 TOO_EARLY:          0
cpu0->cpu0_L1I AVERAGE MISS LATENCY: 22.74 cycles
cpu0->cpu0_L1D TOTAL        ACCESS:   96421274 HIT:   87795901 MISS:    8625373 MSHR_MERGE:    1006166
cpu0->cpu0_L1D LOAD         ACCESS:   31500056 HIT:   25638635 MISS:    5861421 MSHR_MERGE:     933071
cpu0->cpu0_L1D RFO          ACCESS:          0 HIT:          0 MISS:          0 MSHR_MERGE:          0
cpu0->cpu0_L1D PREFETCH     ACCESS:   52569999 HIT:   50299833 MISS:    2270166 MSHR_MERGE:       3199
cpu0->cpu0_L1D WRITE        ACCESS:   10711534 HIT:   10627765 MISS:      83769 MSHR_MERGE:      67118
cpu0->cpu0_L1D TRANSLATION  ACCESS:    1639685 HIT:    1229668 MISS:     410017 MSHR_MERGE:       2778
cpu0->cpu0_L1D PREFETCH REQUESTED:  125845613 ISSUED:   55237202 USEFUL:     417136 USELESS:      10204 LATE:         49 TOO_EARLY:        941
cpu0->cpu0_L1D AVERAGE MISS LATENCY: 75.17 cycles
cpu0->cpu0_ITLB TOTAL        ACCESS:    7187853 HIT:    7184694 MISS:       3159 MSHR_MERGE:       1363
cpu0->cpu0_ITLB LOAD         ACCESS:    7187853 HIT:    7184694 MISS:       3159 MSHR_MERGE:       1363
cpu0->cpu0_ITLB RFO          ACCESS:          0 HIT:          0 MISS:          0 MSHR_MERGE:          0
cpu0->cpu0_ITLB PREFETCH     ACCESS:          0 HIT:          0 MISS:          0 MSHR_MERGE:          0
cpu0->cpu0_ITLB WRITE        ACCESS:          0 HIT:          0 MISS:          0 MSHR_MERGE:          0
cpu0->cpu0_ITLB TRANSLATION  ACCESS:          0 HIT:          0 MISS:          0 MSHR_MERGE:          0
cpu0->cpu0_ITLB PREFETCH REQUESTED:          0 ISSUED:          0 USEFUL:          0 USELESS:          0 LATE:          0 TOO_EARLY:          0
cpu0->cpu0_ITLB AVERAGE MISS LATENCY: 39.19 cycles
cpu0->cpu0_DTLB TOTAL        ACCESS:   76793390 HIT:   75107718 MISS:    1685672 MSHR_MERGE:     385419
cpu0->cpu0_DTLB LOAD         ACCESS:   76793390 HIT:   75107718 MISS:    1685672 MSHR_MERGE:     385419
cpu0->cpu0_DTLB RFO          ACCESS:          0 HIT:          0 MISS:          0 MSHR_MERGE:          0
cpu0->cpu0_DTLB PREFETCH     ACCESS:          0 HIT:          0 MISS:          0 MSHR_MERGE:          0
cpu0->cpu0_DTLB WRITE        ACCESS:          0 HIT:          0 MISS:          0 MSHR_MERGE:          0
cpu0->cpu0_DTLB TRANSLATION  ACCESS:          0 HIT:          0 MISS:          0 MSHR_MERGE:          0
cpu0->cpu0_DTLB PREFETCH REQUESTED:          0 ISSUED:          0 USEFUL:          0 USELESS:          0 LATE:          0 TOO_EARLY:          0
cpu0->cpu0_DTLB AVERAGE MISS LATENCY: 21.93 cycles
cpu0->LLC TOTAL        ACCESS:    6749897 HIT:    4979132 MISS:    1770765 MSHR_MERGE:          5
cpu0->LLC LOAD         ACCESS:    4650307 HIT:    3122622 MISS:    1527685 MSHR_MERGE:          0
cpu0->LLC RFO          ACCESS:      14531 HIT:      12673 MISS:       1858 MSHR_MERGE:          0
cpu0->LLC PREFETCH     ACCESS:     415329 HIT:     223602 MISS:     191727 MSHR_MERGE:          5
cpu0->LLC WRITE        ACCESS:    1369822 HIT:    1332262 MISS:      37560 MSHR_MERGE:          0
cpu0->LLC TRANSLATION  ACCESS:     299908 HIT:     287973 MISS:      11935 MSHR_MERGE:          0
cpu0->LLC PREFETCH REQUESTED:          0 ISSUED:          0 USEFUL:          0 USELESS:          0 LATE:          0 TOO_EARLY:          0
cpu0->LLC AVERAGE MISS LATENCY: 176.6 cycles

DRAM Statistics

Channel 0 RQ ROW_BUFFER_HIT:       7150
  ROW_BUFFER_MISS:    1725980
  AVG DBUS CONGESTED CYCLE: 21.02
Channel 0 WQ ROW_BUFFER_HIT:     107727
  ROW_BUFFER_MISS:     259950
  FULL:          0
Channel 0 REFRESHES ISSUED:      43750

[ROI Statistics]
[System Configuration]
num_cpus 1
cpu_freq 4000
fetch_width 6
decode_width 6
dispatch_width 6
execute_width 6
lq_width 2
sq_width 2
retire_width 6
scheduler_size 128
branch_mispredict_penalty 15
rob_size 352
lq_size 128
sq_size 72
ifetch_buffer_size 64
decode_buffer_size 32
dispatch_buffer_size 32
register_file_size 288
decode_latency 1
dispatch_latency 1
schedule_latency 1
execute_latency 1
page_size 4096
block_size 64
core_0_itlb_set 16
core_0_itlb_way 4
core_0_itlb_rq_size 16
core_0_itlb_wq_size 16
core_0_itlb_pq_size 0
core_0_itlb_mshr_size 8
core_0_itlb_hit_latency 1
core_0_itlb_fill_latency 1
core_0_itlb_max_tag_check 2
core_0_itlb_max_fill 2
core_0_dtlb_set 16
core_0_dtlb_way 4
core_0_dtlb_rq_size 16
core_0_dtlb_wq_size 16
core_0_dtlb_pq_size 0
core_0_dtlb_mshr_size 8
core_0_dtlb_hit_latency 1
core_0_dtlb_fill_latency 1
core_0_dtlb_max_tag_check 2
core_0_dtlb_max_fill 2
core_0_stlb_set 128
core_0_stlb_way 12
core_0_stlb_rq_size 32
core_0_stlb_wq_size 32
core_0_stlb_pq_size 0
core_0_stlb_mshr_size 16
core_0_stlb_hit_latency 4
core_0_stlb_fill_latency 4
core_0_stlb_max_tag_check 1
core_0_stlb_max_fill 1
core_0_l1i_set 64
core_0_l1i_way 8
core_0_l1i_rq_size 64
core_0_l1i_wq_size 64
core_0_l1i_pq_size 32
core_0_l1i_mshr_size 8
core_0_l1i_hit_latency 2
core_0_l1i_fill_latency 2
core_0_l1i_max_tag_check 2
core_0_l1i_max_fill 2
core_0_l1d_set 64
core_0_l1d_way 12
core_0_l1d_rq_size 64
core_0_l1d_wq_size 64
core_0_l1d_pq_size 8
core_0_l1d_mshr_size 16
core_0_l1d_hit_latency 2
core_0_l1d_fill_latency 3
core_0_l1d_max_tag_check 2
core_0_l1d_max_fill 2
core_0_l2c_set 1024
core_0_l2c_way 8
core_0_l2c_rq_size 32
core_0_l2c_wq_size 32
core_0_l2c_pq_size 16
core_0_l2c_mshr_size 32
core_0_l2c_hit_latency 5
core_0_l2c_fill_latency 5
core_0_l2c_max_tag_check 1
core_0_l2c_max_fill 1
llc_set 2048
llc_way 16
llc_rq_size 32
llc_wq_size 32
llc_pq_size 32
llc_mshr_size 64
llc_hit_latency 10
llc_fill_latency 10
llc_max_tag_check 1
llc_max_fill 1
dram_channels 1
dram_ranks 1
dram_bankgroups 8
dram_banks 4
dram_rows 65536
dram_columns 1024
dram_channel_width 8
dram_rq_size 64
dram_wq_size 64
dram_size 17179869184
core_0_itlb_prefetcher no
core_0_dtlb_prefetcher no
core_0_stlb_prefetcher no
core_0_l1i_prefetcher next_line
core_0_l1d_prefetcher vberti
core_0_l2c_prefetcher ip_stride
llc_prefetcher no
llc_replacement drrip

Core_0_instructions 100000000
Core_0_cycles 525002666
Core_0_IPC 0.190475
Core_0_branch_prediction_accuracy 86.398
Core_0_branch_MPKI 23.5787
Core_0_average_ROB_occupancy_at_mispredict 20.0806

Core_0_ITLB_total_access 7187853
Core_0_ITLB_total_hit 7184694
Core_0_ITLB_total_miss 3159
Core_0_ITLB_total_MPKI 0.03159
Core_0_ITLB_total_miss_rate 0.000439491
Core_0_ITLB_demand_access 7187853
Core_0_ITLB_demand_hit 7184694
Core_0_ITLB_demand_miss 3159
Core_0_ITLB_demand_MPKI 0.03159
Core_0_ITLB_demand_miss_rate 0.000439491
Core_0_ITLB_load_access 7187853
Core_0_ITLB_load_hit 7184694
Core_0_ITLB_load_miss 3159
Core_0_ITLB_load_MPKI 0.03159
Core_0_ITLB_load_miss_rate 0.000439491
Core_0_ITLB_rfo_access 0
Core_0_ITLB_rfo_hit 0
Core_0_ITLB_rfo_miss 0
Core_0_ITLB_rfo_MPKI 0
Core_0_ITLB_rfo_miss_rate 0
Core_0_ITLB_prefetch_access 0
Core_0_ITLB_prefetch_hit 0
Core_0_ITLB_prefetch_miss 0
Core_0_ITLB_prefetch_MPKI 0
Core_0_ITLB_prefetch_miss_rate 0
Core_0_ITLB_writeback_access 0
Core_0_ITLB_writeback_hit 0
Core_0_ITLB_writeback_miss 0
Core_0_ITLB_writeback_MPKI 0
Core_0_ITLB_writeback_miss_rate 0
Core_0_ITLB_prefetch_requested 0
Core_0_ITLB_prefetch_issued 0
Core_0_ITLB_prefetch_useful 0
Core_0_ITLB_prefetch_useless 0
Core_0_ITLB_prefetch_late 0
Core_0_ITLB_prefetch_fill 0
Core_0_ITLB_prefetch_too_early 0
Core_0_ITLB_prefetch_too_early_among_fill 0
Core_0_ITLB_prefetch_too_early_among_useless 0
Core_0_ITLB_prefetch_pollution_evict 0
Core_0_ITLB_prefetch_pollution_demand 0
Core_0_ITLB_prefetch_pollution_among_prefetch_fill 0
Core_0_ITLB_prefetch_accuracy 0
Core_0_ITLB_prefetch_coverage 0

Core_0_DTLB_total_access 76793390
Core_0_DTLB_total_hit 75107718
Core_0_DTLB_total_miss 1685672
Core_0_DTLB_total_MPKI 16.8567
Core_0_DTLB_total_miss_rate 0.0219507
Core_0_DTLB_demand_access 76793390
Core_0_DTLB_demand_hit 75107718
Core_0_DTLB_demand_miss 1685672
Core_0_DTLB_demand_MPKI 16.8567
Core_0_DTLB_demand_miss_rate 0.0219507
Core_0_DTLB_load_access 76793390
Core_0_DTLB_load_hit 75107718
Core_0_DTLB_load_miss 1685672
Core_0_DTLB_load_MPKI 16.8567
Core_0_DTLB_load_miss_rate 0.0219507
Core_0_DTLB_rfo_access 0
Core_0_DTLB_rfo_hit 0
Core_0_DTLB_rfo_miss 0
Core_0_DTLB_rfo_MPKI 0
Core_0_DTLB_rfo_miss_rate 0
Core_0_DTLB_prefetch_access 0
Core_0_DTLB_prefetch_hit 0
Core_0_DTLB_prefetch_miss 0
Core_0_DTLB_prefetch_MPKI 0
Core_0_DTLB_prefetch_miss_rate 0
Core_0_DTLB_writeback_access 0
Core_0_DTLB_writeback_hit 0
Core_0_DTLB_writeback_miss 0
Core_0_DTLB_writeback_MPKI 0
Core_0_DTLB_writeback_miss_rate 0
Core_0_DTLB_prefetch_requested 0
Core_0_DTLB_prefetch_issued 0
Core_0_DTLB_prefetch_useful 0
Core_0_DTLB_prefetch_useless 0
Core_0_DTLB_prefetch_late 0
Core_0_DTLB_prefetch_fill 0
Core_0_DTLB_prefetch_too_early 0
Core_0_DTLB_prefetch_too_early_among_fill 0
Core_0_DTLB_prefetch_too_early_among_useless 0
Core_0_DTLB_prefetch_pollution_evict 0
Core_0_DTLB_prefetch_pollution_demand 0
Core_0_DTLB_prefetch_pollution_among_prefetch_fill 0
Core_0_DTLB_prefetch_accuracy 0
Core_0_DTLB_prefetch_coverage 0

Core_0_STLB_total_access 1302049
Core_0_STLB_total_hit 511491
Core_0_STLB_total_miss 790558
Core_0_STLB_total_MPKI 7.90558
Core_0_STLB_total_miss_rate 0.607165
Core_0_STLB_demand_access 1302049
Core_0_STLB_demand_hit 511491
Core_0_STLB_demand_miss 790558
Core_0_STLB_demand_MPKI 7.90558
Core_0_STLB_demand_miss_rate 0.607165
Core_0_STLB_load_access 1302049
Core_0_STLB_load_hit 511491
Core_0_STLB_load_miss 790558
Core_0_STLB_load_MPKI 7.90558
Core_0_STLB_load_miss_rate 0.607165
Core_0_STLB_rfo_access 0
Core_0_STLB_rfo_hit 0
Core_0_STLB_rfo_miss 0
Core_0_STLB_rfo_MPKI 0
Core_0_STLB_rfo_miss_rate 0
Core_0_STLB_prefetch_access 0
Core_0_STLB_prefetch_hit 0
Core_0_STLB_prefetch_miss 0
Core_0_STLB_prefetch_MPKI 0
Core_0_STLB_prefetch_miss_rate 0
Core_0_STLB_writeback_access 0
Core_0_STLB_writeback_hit 0
Core_0_STLB_writeback_miss 0
Core_0_STLB_writeback_MPKI 0
Core_0_STLB_writeback_miss_rate 0
Core_0_STLB_prefetch_requested 0
Core_0_STLB_prefetch_issued 0
Core_0_STLB_prefetch_useful 0
Core_0_STLB_prefetch_useless 0
Core_0_STLB_prefetch_late 0
Core_0_STLB_prefetch_fill 0
Core_0_STLB_prefetch_too_early 0
Core_0_STLB_prefetch_too_early_among_fill 0
Core_0_STLB_prefetch_too_early_among_useless 0
Core_0_STLB_prefetch_pollution_evict 0
Core_0_STLB_prefetch_pollution_demand 0
Core_0_STLB_prefetch_pollution_among_prefetch_fill 0
Core_0_STLB_prefetch_accuracy 0
Core_0_STLB_prefetch_coverage 0

Core_0_L1I_total_access 7240648
Core_0_L1I_total_hit 7217754
Core_0_L1I_total_miss 22894
Core_0_L1I_total_MPKI 0.22894
Core_0_L1I_total_miss_rate 0.00316187
Core_0_L1I_demand_access 7240648
Core_0_L1I_demand_hit 7217754
Core_0_L1I_demand_miss 22894
Core_0_L1I_demand_MPKI 0.22894
Core_0_L1I_demand_miss_rate 0.00316187
Core_0_L1I_load_access 7240648
Core_0_L1I_load_hit 7217754
Core_0_L1I_load_miss 22894
Core_0_L1I_load_MPKI 0.22894
Core_0_L1I_load_miss_rate 0.00316187
Core_0_L1I_rfo_access 0
Core_0_L1I_rfo_hit 0
Core_0_L1I_rfo_miss 0
Core_0_L1I_rfo_MPKI 0
Core_0_L1I_rfo_miss_rate 0
Core_0_L1I_prefetch_access 0
Core_0_L1I_prefetch_hit 0
Core_0_L1I_prefetch_miss 0
Core_0_L1I_prefetch_MPKI 0
Core_0_L1I_prefetch_miss_rate 0
Core_0_L1I_writeback_access 0
Core_0_L1I_writeback_hit 0
Core_0_L1I_writeback_miss 0
Core_0_L1I_writeback_MPKI 0
Core_0_L1I_writeback_miss_rate 0
Core_0_L1I_prefetch_requested 0
Core_0_L1I_prefetch_issued 0
Core_0_L1I_prefetch_useful 0
Core_0_L1I_prefetch_useless 0
Core_0_L1I_prefetch_late 0
Core_0_L1I_prefetch_fill 0
Core_0_L1I_prefetch_too_early 0
Core_0_L1I_prefetch_too_early_among_fill 0
Core_0_L1I_prefetch_too_early_among_useless 0
Core_0_L1I_prefetch_pollution_evict 0
Core_0_L1I_prefetch_pollution_demand 0
Core_0_L1I_prefetch_pollution_among_prefetch_fill 0
Core_0_L1I_prefetch_accuracy 0
Core_0_L1I_prefetch_coverage 0

Core_0_L1D_total_access 94781589
Core_0_L1D_total_hit 86566233
Core_0_L1D_total_miss 8215356
Core_0_L1D_total_MPKI 82.1536
Core_0_L1D_total_miss_rate 0.0866767
Core_0_L1D_demand_access 31500056
Core_0_L1D_demand_hit 25638635
Core_0_L1D_demand_miss 5861421
Core_0_L1D_demand_MPKI 58.6142
Core_0_L1D_demand_miss_rate 0.186077
Core_0_L1D_load_access 31500056
Core_0_L1D_load_hit 25638635
Core_0_L1D_load_miss 5861421
Core_0_L1D_load_MPKI 58.6142
Core_0_L1D_load_miss_rate 0.186077
Core_0_L1D_rfo_access 0
Core_0_L1D_rfo_hit 0
Core_0_L1D_rfo_miss 0
Core_0_L1D_rfo_MPKI 0
Core_0_L1D_rfo_miss_rate 0
Core_0_L1D_prefetch_access 52569999
Core_0_L1D_prefetch_hit 50299833
Core_0_L1D_prefetch_miss 2270166
Core_0_L1D_prefetch_MPKI 22.7017
Core_0_L1D_prefetch_miss_rate 0.0431837
Core_0_L1D_writeback_access 10711534
Core_0_L1D_writeback_hit 10627765
Core_0_L1D_writeback_miss 83769
Core_0_L1D_writeback_MPKI 0.83769
Core_0_L1D_writeback_miss_rate 0.00782045
Core_0_L1D_prefetch_requested 125845613
Core_0_L1D_prefetch_issued 55237202
Core_0_L1D_prefetch_useful 417136
Core_0_L1D_prefetch_useless 10204
Core_0_L1D_prefetch_late 49
Core_0_L1D_prefetch_fill 427301
Core_0_L1D_prefetch_too_early 941
Core_0_L1D_prefetch_too_early_among_fill 0.00220219
Core_0_L1D_prefetch_too_early_among_useless 0.0922187
Core_0_L1D_prefetch_pollution_evict 79018
Core_0_L1D_prefetch_pollution_demand 79013
Core_0_L1D_cross_page_pf_translation_only_requested 9274265
Core_0_L1D_cross_page_pf_translation_only_issued 2667211
Core_0_L1D_cross_page_pf_translation_only_dropped 2667211
Core_0_L1D_prefetch_pollution_among_prefetch_fill 0.184924
Core_0_L1D_prefetch_accuracy 0.00755172
Core_0_L1D_prefetch_coverage 0.0664382

Core_0_L2C_total_access 9433608
Core_0_L2C_total_hit 4227544
Core_0_L2C_total_miss 5206064
Core_0_L2C_total_MPKI 52.0606
Core_0_L2C_total_miss_rate 0.551864
Core_0_L2C_demand_access 4961210
Core_0_L2C_demand_hit 295342
Core_0_L2C_demand_miss 4665868
Core_0_L2C_demand_MPKI 46.6587
Core_0_L2C_demand_miss_rate 0.94047
Core_0_L2C_load_access 4944559
Core_0_L2C_load_hit 293222
Core_0_L2C_load_miss 4651337
Core_0_L2C_load_MPKI 46.5134
Core_0_L2C_load_miss_rate 0.940698
Core_0_L2C_rfo_access 16651
Core_0_L2C_rfo_hit 2120
Core_0_L2C_rfo_miss 14531
Core_0_L2C_rfo_MPKI 0.14531
Core_0_L2C_rfo_miss_rate 0.87268
Core_0_L2C_prefetch_access 2997230
Core_0_L2C_prefetch_hit 2457043
Core_0_L2C_prefetch_miss 540187
Core_0_L2C_prefetch_MPKI 5.40187
Core_0_L2C_prefetch_miss_rate 0.180229
Core_0_L2C_writeback_access 1475168
Core_0_L2C_writeback_hit 1475159
Core_0_L2C_writeback_miss 9
Core_0_L2C_writeback_MPKI 9e-05
Core_0_L2C_writeback_miss_rate 6.101e-06
Core_0_L2C_prefetch_requested 742475
Core_0_L2C_prefetch_issued 734184
Core_0_L2C_prefetch_useful 136954
Core_0_L2C_prefetch_useless 54127
Core_0_L2C_prefetch_late 392
Core_0_L2C_prefetch_fill 414224
Core_0_L2C_prefetch_too_early 32789
Core_0_L2C_prefetch_too_early_among_fill 0.0791577
Core_0_L2C_prefetch_too_early_among_useless 0.605779
Core_0_L2C_prefetch_pollution_evict 290710
Core_0_L2C_prefetch_pollution_demand 288698
Core_0_L2C_prefetch_pollution_among_prefetch_fill 0.701818
Core_0_L2C_prefetch_accuracy 0.186539
Core_0_L2C_prefetch_coverage 0.0285153

Core_0_LLC_total_access 6449989
Core_0_LLC_total_hit 4691159
Core_0_LLC_total_miss 1758830
Core_0_LLC_total_MPKI 17.5883
Core_0_LLC_total_miss_rate 0.272687
Core_0_LLC_demand_access 4664838
Core_0_LLC_demand_hit 3135295
Core_0_LLC_demand_miss 1529543
Core_0_LLC_demand_MPKI 15.2954
Core_0_LLC_demand_miss_rate 0.327888
Core_0_LLC_load_access 4650307
Core_0_LLC_load_hit 3122622
Core_0_LLC_load_miss 1527685
Core_0_LLC_load_MPKI 15.2768
Core_0_LLC_load_miss_rate 0.328513
Core_0_LLC_rfo_access 14531
Core_0_LLC_rfo_hit 12673
Core_0_LLC_rfo_miss 1858
Core_0_LLC_rfo_MPKI 0.01858
Core_0_LLC_rfo_miss_rate 0.127865
Core_0_LLC_prefetch_access 415329
Core_0_LLC_prefetch_hit 223602
Core_0_LLC_prefetch_miss 191727
Core_0_LLC_prefetch_MPKI 1.91727
Core_0_LLC_prefetch_miss_rate 0.461627
Core_0_LLC_writeback_access 1369822
Core_0_LLC_writeback_hit 1332262
Core_0_LLC_writeback_miss 37560
Core_0_LLC_writeback_MPKI 0.3756
Core_0_LLC_writeback_miss_rate 0.0274196
Core_0_LLC_prefetch_requested 0
Core_0_LLC_prefetch_issued 0
Core_0_LLC_prefetch_useful 0
Core_0_LLC_prefetch_useless 0
Core_0_LLC_prefetch_late 0
Core_0_LLC_prefetch_fill 191722
Core_0_LLC_prefetch_too_early 0
Core_0_LLC_prefetch_too_early_among_fill 0
Core_0_LLC_prefetch_too_early_among_useless 0
Core_0_LLC_prefetch_pollution_evict 96559
Core_0_LLC_prefetch_pollution_demand 96559
Core_0_LLC_prefetch_pollution_among_prefetch_fill 0.503641
Core_0_LLC_prefetch_accuracy 0
Core_0_LLC_prefetch_coverage 0

[DRAM Statistics]
Channel_0_RQ_row_buffer_hit 7150
Channel_0_RQ_row_buffer_miss 1725980
Channel_0_WQ_row_buffer_hit 107727
Channel_0_WQ_row_buffer_miss 259950
Channel_0_WQ_full 0
Channel_0_dbus_congested 5245053
DRAM_total_RQ_row_buffer_hit 7150
DRAM_total_RQ_row_buffer_miss 1725980
DRAM_total_WQ_row_buffer_hit 107727
DRAM_total_WQ_row_buffer_miss 259950
DRAM_total_WQ_full 0
DRAM_total_dbus_congested 5245053
DRAM_avg_congested_cycle 21.0165

====== DRAM_RQ_TRAFFIC ========
DRAM_RQ_READ_TRAFFIC_BREAKDOWN:
data_demand_read.count = 1529481
data_demand_read.share = 88.25%

inst_demand_read.count = 62
inst_demand_read.share = 0.00%

cache_inst_prefetch.count = 0
cache_inst_prefetch.share = 0.00%

cache_data_prefetch.count = 191722
cache_data_prefetch.share = 11.06%

stlb_data_demand.count = 11651
stlb_data_demand.share = 0.67%

stlb_inst_demand.count = 11
stlb_inst_demand.share = 0.00%

stlb_l1i_pref.count = 0
stlb_l1i_pref.share = 0.00%

stlb_l1d_pref.count = 273
stlb_l1d_pref.share = 0.02%

DRAM_RQ_READ_TRAFFIC_SUMMARY:
cache_demand.count = 1529543
cache_demand.share = 88.25%

cache_prefetch.count = 191722
cache_prefetch.share = 11.06%

stlb_demand.count = 11662
stlb_demand.share = 0.67%

stlb_prefetch.count = 273
stlb_prefetch.share = 0.02%

DRAM_RQ_READ_TRAFFIC_DEBUG:
total_classified_read.count = 1733200
unclassified_read.count = 0
total_read_with_other.count = 1733200

classified_plus_unclassified_check.count = 1733200
dram_rq_read_total_observed.count = 1733200
dram_rq_read_total_observed.per_1K_instructions = 17.332

STLB_MISS_PTW_DRAM_TOUCH_BREAKDOWN:
stlb_miss_total.count = 790558

stlb_miss_touch_dram.count = 11924
stlb_miss_touch_dram.share = 1.51%

stlb_miss_no_dram_touch.count = 778634
stlb_miss_no_dram_touch.share = 98.49%

STLB_MISS_PTW_DRAM_TOUCH_DEBUG:
stlb_miss_touch_plus_no_touch.count = 790558
stlb_miss_total_check.count = 790558

======STLB miss causes ========
Core_0_STLB_miss_cause_breakdown
Core_0_STLB_cause_Demand_Data_miss 783965
Core_0_STLB_cause_Demand_Data_miss_rate 0.602101
Core_0_STLB_cause_Demand_Instruction_miss 1613
Core_0_STLB_cause_Demand_Instruction_miss_rate 0.00123882
Core_0_STLB_cause_L1D_Prefetch_miss 4980
Core_0_STLB_cause_L1D_Prefetch_miss_rate 0.00382474
Core_0_STLB_cause_L1D_Prefetch_Same_Page_miss 0
Core_0_STLB_cause_L1D_Prefetch_Same_Page_miss_rate 0
Core_0_STLB_cause_L1D_Prefetch_Cross_Page_miss 4980
Core_0_STLB_cause_L1D_Prefetch_Cross_Page_miss_rate 0.00382474
Core_0_STLB_cause_L1I_Prefetch_miss 0
Core_0_STLB_cause_L1I_Prefetch_miss_rate 0
Core_0_STLB_cause_Other_miss 0
Core_0_STLB_cause_Other_miss_rate 0
Core_0_STLB_Demand_miss 785578
Core_0_STLB_Demand_miss_rate 0.60334
Core_0_STLB_L1D_Prefetch_miss 4980
Core_0_STLB_L1D_Prefetch_miss_rate 0.00382474
Core_0_STLB_Other_miss 0
Core_0_STLB_Other_miss_rate 0

========== vBerti-TLB Cross-page Flow Stats ==========

Core_0_vBerti_Requested 125845613
Core_0_vBerti_Cross_page_prefetch_in_Requested 9274265
Core_0_vBerti_Same_page_prefetch_in_Requested 116571348
Core_0_vBerti_Cross_page_prefetch_of_Requested 0.0736956
Core_0_vBerti_Issued 55237202
Core_0_vBerti_InPQ_Same_page_prefetch 52569991
Core_0_vBerti_InPQ_Cross_page_prefetch 2667211
Core_0_vBerti_PQ_Drop_Rate 0.561072
Core_0_vBerti_InPQ_Cross_page_prefetch_of_Requested 0.0211943
Core_0_vBerti_Cross_page_PQ_Drop_rate 0.712407
Core_0_vBerti_Cross_page_prefetch_of_Issued 0.0482865
Core_0_CP_PF_PQFULL_drop 6607054
Core_0_CP_PF_PQFULL_TLB_rescue_enqueued 0
Core_0_CP_PF_PQFULL_TLB_rescue_issued 0
Core_0_CP_PF_PQFULL_TLB_rescue_translated 0

========= DTLB_vBerti Prefetch Stats =========
Core_0_DTLB_demand_access 39863091
Core_0_DTLB_demand_hit 38196903
Core_0_DTLB_demand_miss 1666188
Core_0_DTLB_demand_mshr_merge 374798
Core_0_DTLB_demand_fill 1291393
Core_0_DTLB_demand_miss_rate 0.0417978
Core_0_DTLB_demand_mpki 16.6619
Core_0_DTLB_vberti_prefetch_access 36930299
Core_0_DTLB_vberti_prefetch_hit 36910815
Core_0_DTLB_vberti_prefetch_miss 19484
Core_0_DTLB_vberti_prefetch_mshr_merge 10621
Core_0_DTLB_vberti_prefetch_fill 8860
Core_0_DTLB_vberti_prefetch_miss_rate 0.000527588
Core_0_DTLB_vberti_prefetch_mpki 0.19484

=== DTLB_vBerti Same/Cross-page Prefetch Stats ===
Core_0_DTLB_vberti_same_page_prefetch 35178518
Core_0_DTLB_vberti_same_page_prefetch_hit 35178513
Core_0_DTLB_vberti_same_page_prefetch_miss 5
Core_0_DTLB_vberti_same_page_prefetch_mshr_merge 0
Core_0_DTLB_vberti_same_page_prefetch_fill 5
Core_0_DTLB_vberti_same_page_prefetch_miss_rate 1.42132e-07
Core_0_DTLB_vberti_same_page_prefetch_mpki 5e-05
Core_0_DTLB_vberti_cross_page_prefetch 1751781
Core_0_DTLB_vberti_cross_page_prefetch_hit 1732302
Core_0_DTLB_vberti_cross_page_prefetch_miss 19479
Core_0_DTLB_vberti_cross_page_prefetch_mshr_merge 10621
Core_0_DTLB_vberti_cross_page_prefetch_fill 8855
Core_0_DTLB_vberti_cross_page_prefetch_miss_rate 0.0111195
Core_0_DTLB_vberti_cross_page_prefetch_mpki 0.19479
Core_0_DTLB_same_page_prefetch_miss_rate 1.42132e-07
Core_0_DTLB_same_page_prefetch_mpki 5e-05
Core_0_DTLB_cross_page_prefetch_miss_rate 0.0111195
Core_0_DTLB_cross_page_prefetch_mpki 0.19479
Core_0_DTLB_cross_page_prefetch_issued 1751781
Core_0_DTLB_cross_page_prefetch_lookups 1751781
Core_0_DTLB_cross_page_prefetch_useful 7342
Core_0_DTLB_cross_page_prefetch_useless 1516
Core_0_DTLB_cross_page_prefetch_late 3
Core_0_DTLB_cross_page_prefetch_too_early 506
Core_0_DTLB_cross_page_prefetch_too_early_among_fill 0.0571429
Core_0_DTLB_cross_page_prefetch_too_early_among_useless 0.333773
Core_0_DTLB_cross_page_prefetch_pollution_evict 8472
Core_0_DTLB_cross_page_prefetch_pollution_demand 8459
Core_0_DTLB_cross_page_prefetch_pollution_among_prefetch_fill 0.956748
Core_0_DTLB_cross_page_prefetch_accuracy 0.00419116
Core_0_DTLB_cross_page_prefetch_coverage 0.00438713

========= STLB_vBerti Prefetch Stats =========
Core_0_STLB_demand_access 1293186
Core_0_STLB_demand_hit 507608
Core_0_STLB_demand_miss 785578
Core_0_STLB_demand_mshr_merge 0
Core_0_STLB_demand_fill 785578
Core_0_STLB_demand_miss_rate 0.607475
Core_0_STLB_demand_mpki 7.85578
Core_0_STLB_vberti_prefetch_access 8863
Core_0_STLB_vberti_prefetch_hit 3883
Core_0_STLB_vberti_prefetch_miss 4980
Core_0_STLB_vberti_prefetch_mshr_merge 0
Core_0_STLB_vberti_prefetch_fill 4980
Core_0_STLB_vberti_prefetch_miss_rate 0.561886
Core_0_STLB_vberti_prefetch_mpki 0.0498

=== STLB_vBerti Same/Cross-page Prefetch Stats ===
Core_0_STLB_vberti_same_page_prefetch 5
Core_0_STLB_vberti_same_page_prefetch_hit 5
Core_0_STLB_vberti_same_page_prefetch_miss 0
Core_0_STLB_vberti_same_page_prefetch_mshr_merge 0
Core_0_STLB_vberti_same_page_prefetch_fill 0
Core_0_STLB_vberti_same_page_prefetch_miss_rate 0
Core_0_STLB_vberti_same_page_prefetch_mpki 0
Core_0_STLB_vberti_cross_page_prefetch 8858
Core_0_STLB_vberti_cross_page_prefetch_hit 3878
Core_0_STLB_vberti_cross_page_prefetch_miss 4980
Core_0_STLB_vberti_cross_page_prefetch_mshr_merge 0
Core_0_STLB_vberti_cross_page_prefetch_fill 4980
Core_0_STLB_vberti_cross_page_prefetch_miss_rate 0.562204
Core_0_STLB_vberti_cross_page_prefetch_mpki 0.0498
Core_0_STLB_same_page_prefetch_miss_rate 0
Core_0_STLB_same_page_prefetch_mpki 0
Core_0_STLB_cross_page_prefetch_miss_rate 0.562204
Core_0_STLB_cross_page_prefetch_mpki 0.0498
Core_0_STLB_cross_page_prefetch_issued 8858
Core_0_STLB_cross_page_prefetch_lookups 8858
Core_0_STLB_cross_page_prefetch_useful 820
Core_0_STLB_cross_page_prefetch_useless 4160
Core_0_STLB_cross_page_prefetch_late 0
Core_0_STLB_cross_page_prefetch_too_early 619
Core_0_STLB_cross_page_prefetch_too_early_among_fill 0.124297
Core_0_STLB_cross_page_prefetch_too_early_among_useless 0.148798
Core_0_STLB_cross_page_prefetch_pollution_evict 4845
Core_0_STLB_cross_page_prefetch_pollution_demand 4841
Core_0_STLB_cross_page_prefetch_pollution_among_prefetch_fill 0.972892
Core_0_STLB_cross_page_prefetch_accuracy 0.0925717
Core_0_STLB_cross_page_prefetch_coverage 0.00104273

========= STLB Cross-page Prefetch Buffer Stats =========
Core_0_STLB_raw_demand_miss 783965
Core_0_CP_PB_insert 0
Core_0_CP_PB_demand_hit 0
Core_0_STLB_PB_demand_miss 783965
Core_0_CP_PB_coverage 0
Core_0_STLB_raw_demand_mpki 7.83965
Core_0_STLB_PB_demand_mpki 7.83965
Core_0_CP_PB_demand_hit_mpki 0

Core_0_TLB_demand_miss_rate 0.0197069
Core_0_TLB_demand_mpki 7.85578
Core_0_TLB_same_page_prefetch_miss_rate 0
Core_0_TLB_same_page_prefetch_mpki 0
Core_0_TLB_cross_page_prefetch_miss_rate 0.00284282
Core_0_TLB_cross_page_prefetch_mpki 0.0498
Core_0_TLB_cross_page_prefetch_issued 1751781
Core_0_TLB_cross_page_prefetch_lookups 1751781
Core_0_TLB_cross_page_prefetch_useful 2876
Core_0_TLB_cross_page_prefetch_useless 1240
Core_0_TLB_cross_page_prefetch_late 3
Core_0_TLB_cross_page_prefetch_too_early 469
Core_0_TLB_cross_page_prefetch_too_early_among_fill 0.0338995
Core_0_TLB_cross_page_prefetch_too_early_among_useless 0.378226
Core_0_TLB_cross_page_prefetch_accuracy 0.00164176
Core_0_TLB_cross_page_prefetch_coverage 0.00364764
====== vBerti internal metric ========
Core_0_vBerti_end_to_end_issued 52569991
Core_0_vBerti_end_to_end_useful 17472
Core_0_vBerti_end_to_end_late 630
Core_0_vBerti_end_to_end_accuracy 0.000332357
Core_0_vBerti_end_to_end_timely_accuracy 0.000320373
BERTI TO_L1: 106632008 TO_L2: 9939340 TO_L2_BC_MSHR: 317
BERTI AVG_LAT: 77.2451 NUM_TRACK_LATENCY: 5365988 NUM_CANT_TRACK_LATENCY: 0
BERTI CROSS_PAGE 9274265 NO_CROSS_PAGE: 116571348
BERTI FOUND_BERTI: 30727774 NO_FOUND_BERTI: 11483816
BERTI AVERAGE_ISSUED: 3.17003
