[VMEM] WARNING: physical memory size is smaller than virtual memory size.

*** ChampSim Multicore Out-of-Order Simulator ***
Warmup Instructions: 50000000
Simulation Instructions: 100000000
Number of CPUs: 1
Page size: 4096
Core 0: /data2/zcq/champsim_traces_gap/bfs.kron-128B.champsimtrace.xz
VBerti Prefetcher
BERTI HASH ENTANGLING
BERTI IP MASK ffff
Off-chip DRAM Size: 16 GiB Channels: 1 Width: 64-bit Data Rate: 3205 MT/s
Warmup halting CPU 0 at instruction 50000002 cycle 13485715 for remainder of phase
Warmup finished CPU 0 instructions: 50000002 cycles: 13485715 cumulative IPC: 3.708 (Simulation time: 00 hr 03 min 01 sec)
Warmup complete CPU 0 instructions: 50000002 cycles: 13485715 cumulative IPC: 3.708 (Simulation time: 00 hr 03 min 01 sec)
Simulation finished CPU 0 instructions: 100000002 cycles: 194583910 cumulative IPC: 0.5139 (Simulation time: 00 hr 17 min 48 sec)
Simulation complete CPU 0 instructions: 100000002 cycles: 194583910 cumulative IPC: 0.5139 (Simulation time: 00 hr 17 min 48 sec)

ChampSim completed all CPUs

=== Simulation ===
CPU 0 runs /data2/zcq/champsim_traces_gap/bfs.kron-128B.champsimtrace.xz

Region of Interest Statistics

CPU 0 cumulative IPC: 0.5139 instructions: 100000002 cycles: 194583910
CPU 0 Branch Prediction Accuracy: 81.52% MPKI: 39.95 Average ROB Occupancy at Mispredict: 10.13
Branch type MPKI
BRANCH_DIRECT_JUMP: 0
BRANCH_INDIRECT: 0
BRANCH_CONDITIONAL: 39.95
BRANCH_DIRECT_CALL: 0
BRANCH_INDIRECT_CALL: 0
BRANCH_RETURN: 0

cpu0->cpu0_STLB TOTAL        ACCESS:     117790 HIT:       8194 MISS:     109596 MSHR_MERGE:          0
cpu0->cpu0_STLB LOAD         ACCESS:     117790 HIT:       8194 MISS:     109596 MSHR_MERGE:          0
cpu0->cpu0_STLB RFO          ACCESS:          0 HIT:          0 MISS:          0 MSHR_MERGE:          0
cpu0->cpu0_STLB PREFETCH     ACCESS:          0 HIT:          0 MISS:          0 MSHR_MERGE:          0
cpu0->cpu0_STLB WRITE        ACCESS:          0 HIT:          0 MISS:          0 MSHR_MERGE:          0
cpu0->cpu0_STLB TRANSLATION  ACCESS:          0 HIT:          0 MISS:          0 MSHR_MERGE:          0
cpu0->cpu0_STLB PREFETCH REQUESTED:          0 ISSUED:          0 USEFUL:          0 USELESS:          0 LATE:          0 TOO_EARLY:          0
cpu0->cpu0_STLB AVERAGE MISS LATENCY: 194.9 cycles
cpu0->cpu0_L2C TOTAL        ACCESS:    4298151 HIT:    1359848 MISS:    2938303 MSHR_MERGE:    1151576
cpu0->cpu0_L2C LOAD         ACCESS:     133998 HIT:        483 MISS:     133515 MSHR_MERGE:         50
cpu0->cpu0_L2C RFO          ACCESS:          0 HIT:          0 MISS:          0 MSHR_MERGE:          0
cpu0->cpu0_L2C PREFETCH     ACCESS:    4034506 HIT:    1285179 MISS:    2749327 MSHR_MERGE:    1151526
cpu0->cpu0_L2C WRITE        ACCESS:      62251 HIT:      62235 MISS:         16 MSHR_MERGE:          0
cpu0->cpu0_L2C TRANSLATION  ACCESS:      67396 HIT:      11951 MISS:      55445 MSHR_MERGE:          0
cpu0->cpu0_L2C PREFETCH REQUESTED:    2003942 ISSUED:    2003942 USEFUL:     628482 USELESS:     374912 LATE:          4 TOO_EARLY:          0
cpu0->cpu0_L2C AVERAGE MISS LATENCY: 186.6 cycles
cpu0->cpu0_L1I TOTAL        ACCESS:          3 HIT:          3 MISS:          0 MSHR_MERGE:          0
cpu0->cpu0_L1I LOAD         ACCESS:          3 HIT:          3 MISS:          0 MSHR_MERGE:          0
cpu0->cpu0_L1I RFO          ACCESS:          0 HIT:          0 MISS:          0 MSHR_MERGE:          0
cpu0->cpu0_L1I PREFETCH     ACCESS:          0 HIT:          0 MISS:          0 MSHR_MERGE:          0
cpu0->cpu0_L1I WRITE        ACCESS:          0 HIT:          0 MISS:          0 MSHR_MERGE:          0
cpu0->cpu0_L1I TRANSLATION  ACCESS:          0 HIT:          0 MISS:          0 MSHR_MERGE:          0
cpu0->cpu0_L1I PREFETCH REQUESTED:          0 ISSUED:          0 USEFUL:          0 USELESS:          0 LATE:          0 TOO_EARLY:          0
cpu0->cpu0_L1I AVERAGE MISS LATENCY: - cycles
cpu0->cpu0_L1D TOTAL        ACCESS:   65669683 HIT:   63410990 MISS:    2258693 MSHR_MERGE:      25520
cpu0->cpu0_L1D LOAD         ACCESS:   17142565 HIT:   16983208 MISS:     159357 MSHR_MERGE:      25359
cpu0->cpu0_L1D RFO          ACCESS:          0 HIT:          0 MISS:          0 MSHR_MERGE:          0
cpu0->cpu0_L1D PREFETCH     ACCESS:   48128399 HIT:   46096459 MISS:    2031940 MSHR_MERGE:        161
cpu0->cpu0_L1D WRITE        ACCESS:     178930 HIT:     178930 MISS:          0 MSHR_MERGE:          0
cpu0->cpu0_L1D TRANSLATION  ACCESS:     219789 HIT:     152393 MISS:      67396 MSHR_MERGE:          0
cpu0->cpu0_L1D PREFETCH REQUESTED:  181355357 ISSUED:   51257080 USEFUL:    1571065 USELESS:       1932 LATE:       2146 TOO_EARLY:          3
cpu0->cpu0_L1D AVERAGE MISS LATENCY: 183.1 cycles
cpu0->cpu0_ITLB TOTAL        ACCESS:          2 HIT:          2 MISS:          0 MSHR_MERGE:          0
cpu0->cpu0_ITLB LOAD         ACCESS:          2 HIT:          2 MISS:          0 MSHR_MERGE:          0
cpu0->cpu0_ITLB RFO          ACCESS:          0 HIT:          0 MISS:          0 MSHR_MERGE:          0
cpu0->cpu0_ITLB PREFETCH     ACCESS:          0 HIT:          0 MISS:          0 MSHR_MERGE:          0
cpu0->cpu0_ITLB WRITE        ACCESS:          0 HIT:          0 MISS:          0 MSHR_MERGE:          0
cpu0->cpu0_ITLB TRANSLATION  ACCESS:          0 HIT:          0 MISS:          0 MSHR_MERGE:          0
cpu0->cpu0_ITLB PREFETCH REQUESTED:          0 ISSUED:          0 USEFUL:          0 USELESS:          0 LATE:          0 TOO_EARLY:          0
cpu0->cpu0_ITLB AVERAGE MISS LATENCY: - cycles
cpu0->cpu0_DTLB TOTAL        ACCESS:   45114470 HIT:   44918324 MISS:     196146 MSHR_MERGE:      78356
cpu0->cpu0_DTLB LOAD         ACCESS:   45114470 HIT:   44918324 MISS:     196146 MSHR_MERGE:      78356
cpu0->cpu0_DTLB RFO          ACCESS:          0 HIT:          0 MISS:          0 MSHR_MERGE:          0
cpu0->cpu0_DTLB PREFETCH     ACCESS:          0 HIT:          0 MISS:          0 MSHR_MERGE:          0
cpu0->cpu0_DTLB WRITE        ACCESS:          0 HIT:          0 MISS:          0 MSHR_MERGE:          0
cpu0->cpu0_DTLB TRANSLATION  ACCESS:          0 HIT:          0 MISS:          0 MSHR_MERGE:          0
cpu0->cpu0_DTLB PREFETCH REQUESTED:          0 ISSUED:          0 USEFUL:          0 USELESS:          0 LATE:          0 TOO_EARLY:          0
cpu0->cpu0_DTLB AVERAGE MISS LATENCY: 187.3 cycles
cpu0->LLC TOTAL        ACCESS:    1848932 HIT:      97694 MISS:    1751238 MSHR_MERGE:      11588
cpu0->LLC LOAD         ACCESS:     133465 HIT:        113 MISS:     133352 MSHR_MERGE:          0
cpu0->LLC RFO          ACCESS:          0 HIT:          0 MISS:          0 MSHR_MERGE:          0
cpu0->LLC PREFETCH     ACCESS:    1597801 HIT:      12634 MISS:    1585167 MSHR_MERGE:      11588
cpu0->LLC WRITE        ACCESS:      62221 HIT:      54733 MISS:       7488 MSHR_MERGE:          0
cpu0->LLC TRANSLATION  ACCESS:      55445 HIT:      30214 MISS:      25231 MSHR_MERGE:          0
cpu0->LLC PREFETCH REQUESTED:          0 ISSUED:          0 USEFUL:          0 USELESS:          0 LATE:          0 TOO_EARLY:          0
cpu0->LLC AVERAGE MISS LATENCY: 194.7 cycles

DRAM Statistics

Channel 0 RQ ROW_BUFFER_HIT:     138144
  ROW_BUFFER_MISS:    1594019
  AVG DBUS CONGESTED CYCLE: 6.827
Channel 0 WQ ROW_BUFFER_HIT:      11934
  ROW_BUFFER_MISS:      50798
  FULL:          0
Channel 0 REFRESHES ISSUED:      16216

[ROI Statistics]
[System Configuration]
num_cpus 1
cpu_freq 4000
fetch_width 6
decode_width 6
dispatch_width 6
execute_width 6
lq_width 2
sq_width 2
retire_width 6
scheduler_size 128
branch_mispredict_penalty 15
rob_size 352
lq_size 128
sq_size 72
ifetch_buffer_size 64
decode_buffer_size 32
dispatch_buffer_size 32
register_file_size 288
decode_latency 1
dispatch_latency 1
schedule_latency 1
execute_latency 1
page_size 4096
block_size 64
core_0_itlb_set 16
core_0_itlb_way 4
core_0_itlb_rq_size 16
core_0_itlb_wq_size 16
core_0_itlb_pq_size 0
core_0_itlb_mshr_size 8
core_0_itlb_hit_latency 1
core_0_itlb_fill_latency 1
core_0_itlb_max_tag_check 2
core_0_itlb_max_fill 2
core_0_dtlb_set 16
core_0_dtlb_way 4
core_0_dtlb_rq_size 16
core_0_dtlb_wq_size 16
core_0_dtlb_pq_size 0
core_0_dtlb_mshr_size 8
core_0_dtlb_hit_latency 1
core_0_dtlb_fill_latency 1
core_0_dtlb_max_tag_check 2
core_0_dtlb_max_fill 2
core_0_stlb_set 128
core_0_stlb_way 12
core_0_stlb_rq_size 32
core_0_stlb_wq_size 32
core_0_stlb_pq_size 0
core_0_stlb_mshr_size 16
core_0_stlb_hit_latency 4
core_0_stlb_fill_latency 4
core_0_stlb_max_tag_check 1
core_0_stlb_max_fill 1
core_0_l1i_set 64
core_0_l1i_way 8
core_0_l1i_rq_size 64
core_0_l1i_wq_size 64
core_0_l1i_pq_size 32
core_0_l1i_mshr_size 8
core_0_l1i_hit_latency 2
core_0_l1i_fill_latency 2
core_0_l1i_max_tag_check 2
core_0_l1i_max_fill 2
core_0_l1d_set 64
core_0_l1d_way 12
core_0_l1d_rq_size 64
core_0_l1d_wq_size 64
core_0_l1d_pq_size 8
core_0_l1d_mshr_size 16
core_0_l1d_hit_latency 2
core_0_l1d_fill_latency 3
core_0_l1d_max_tag_check 2
core_0_l1d_max_fill 2
core_0_l2c_set 1024
core_0_l2c_way 8
core_0_l2c_rq_size 32
core_0_l2c_wq_size 32
core_0_l2c_pq_size 16
core_0_l2c_mshr_size 32
core_0_l2c_hit_latency 5
core_0_l2c_fill_latency 5
core_0_l2c_max_tag_check 1
core_0_l2c_max_fill 1
llc_set 2048
llc_way 16
llc_rq_size 32
llc_wq_size 32
llc_pq_size 32
llc_mshr_size 64
llc_hit_latency 10
llc_fill_latency 10
llc_max_tag_check 1
llc_max_fill 1
dram_channels 1
dram_ranks 1
dram_bankgroups 8
dram_banks 4
dram_rows 65536
dram_columns 1024
dram_channel_width 8
dram_rq_size 64
dram_wq_size 64
dram_size 17179869184
core_0_itlb_prefetcher no
core_0_dtlb_prefetcher no
core_0_stlb_prefetcher no
core_0_l1i_prefetcher next_line
core_0_l1d_prefetcher vberti
core_0_l2c_prefetcher ip_stride
llc_prefetcher no
llc_replacement drrip

Core_0_instructions 100000002
Core_0_cycles 194583910
Core_0_IPC 0.513917
Core_0_branch_prediction_accuracy 81.5179
Core_0_branch_MPKI 39.9549
Core_0_average_ROB_occupancy_at_mispredict 10.1257

Core_0_ITLB_total_access 2
Core_0_ITLB_total_hit 2
Core_0_ITLB_total_miss 0
Core_0_ITLB_total_MPKI 0
Core_0_ITLB_total_miss_rate 0
Core_0_ITLB_demand_access 2
Core_0_ITLB_demand_hit 2
Core_0_ITLB_demand_miss 0
Core_0_ITLB_demand_MPKI 0
Core_0_ITLB_demand_miss_rate 0
Core_0_ITLB_load_access 2
Core_0_ITLB_load_hit 2
Core_0_ITLB_load_miss 0
Core_0_ITLB_load_MPKI 0
Core_0_ITLB_load_miss_rate 0
Core_0_ITLB_rfo_access 0
Core_0_ITLB_rfo_hit 0
Core_0_ITLB_rfo_miss 0
Core_0_ITLB_rfo_MPKI 0
Core_0_ITLB_rfo_miss_rate 0
Core_0_ITLB_prefetch_access 0
Core_0_ITLB_prefetch_hit 0
Core_0_ITLB_prefetch_miss 0
Core_0_ITLB_prefetch_MPKI 0
Core_0_ITLB_prefetch_miss_rate 0
Core_0_ITLB_writeback_access 0
Core_0_ITLB_writeback_hit 0
Core_0_ITLB_writeback_miss 0
Core_0_ITLB_writeback_MPKI 0
Core_0_ITLB_writeback_miss_rate 0
Core_0_ITLB_prefetch_requested 0
Core_0_ITLB_prefetch_issued 0
Core_0_ITLB_prefetch_useful 0
Core_0_ITLB_prefetch_useless 0
Core_0_ITLB_prefetch_late 0
Core_0_ITLB_prefetch_fill 0
Core_0_ITLB_prefetch_too_early 0
Core_0_ITLB_prefetch_too_early_among_fill 0
Core_0_ITLB_prefetch_too_early_among_useless 0
Core_0_ITLB_prefetch_pollution_evict 0
Core_0_ITLB_prefetch_pollution_demand 0
Core_0_ITLB_prefetch_pollution_among_prefetch_fill 0
Core_0_ITLB_prefetch_accuracy 0
Core_0_ITLB_prefetch_coverage 0

Core_0_DTLB_total_access 45114470
Core_0_DTLB_total_hit 44918324
Core_0_DTLB_total_miss 196146
Core_0_DTLB_total_MPKI 1.96146
Core_0_DTLB_total_miss_rate 0.00434774
Core_0_DTLB_demand_access 45114470
Core_0_DTLB_demand_hit 44918324
Core_0_DTLB_demand_miss 196146
Core_0_DTLB_demand_MPKI 1.96146
Core_0_DTLB_demand_miss_rate 0.00434774
Core_0_DTLB_load_access 45114470
Core_0_DTLB_load_hit 44918324
Core_0_DTLB_load_miss 196146
Core_0_DTLB_load_MPKI 1.96146
Core_0_DTLB_load_miss_rate 0.00434774
Core_0_DTLB_rfo_access 0
Core_0_DTLB_rfo_hit 0
Core_0_DTLB_rfo_miss 0
Core_0_DTLB_rfo_MPKI 0
Core_0_DTLB_rfo_miss_rate 0
Core_0_DTLB_prefetch_access 0
Core_0_DTLB_prefetch_hit 0
Core_0_DTLB_prefetch_miss 0
Core_0_DTLB_prefetch_MPKI 0
Core_0_DTLB_prefetch_miss_rate 0
Core_0_DTLB_writeback_access 0
Core_0_DTLB_writeback_hit 0
Core_0_DTLB_writeback_miss 0
Core_0_DTLB_writeback_MPKI 0
Core_0_DTLB_writeback_miss_rate 0
Core_0_DTLB_prefetch_requested 0
Core_0_DTLB_prefetch_issued 0
Core_0_DTLB_prefetch_useful 0
Core_0_DTLB_prefetch_useless 0
Core_0_DTLB_prefetch_late 0
Core_0_DTLB_prefetch_fill 0
Core_0_DTLB_prefetch_too_early 0
Core_0_DTLB_prefetch_too_early_among_fill 0
Core_0_DTLB_prefetch_too_early_among_useless 0
Core_0_DTLB_prefetch_pollution_evict 0
Core_0_DTLB_prefetch_pollution_demand 0
Core_0_DTLB_prefetch_pollution_among_prefetch_fill 0
Core_0_DTLB_prefetch_accuracy 0
Core_0_DTLB_prefetch_coverage 0

Core_0_STLB_total_access 117790
Core_0_STLB_total_hit 8194
Core_0_STLB_total_miss 109596
Core_0_STLB_total_MPKI 1.09596
Core_0_STLB_total_miss_rate 0.930436
Core_0_STLB_demand_access 117790
Core_0_STLB_demand_hit 8194
Core_0_STLB_demand_miss 109596
Core_0_STLB_demand_MPKI 1.09596
Core_0_STLB_demand_miss_rate 0.930436
Core_0_STLB_load_access 117790
Core_0_STLB_load_hit 8194
Core_0_STLB_load_miss 109596
Core_0_STLB_load_MPKI 1.09596
Core_0_STLB_load_miss_rate 0.930436
Core_0_STLB_rfo_access 0
Core_0_STLB_rfo_hit 0
Core_0_STLB_rfo_miss 0
Core_0_STLB_rfo_MPKI 0
Core_0_STLB_rfo_miss_rate 0
Core_0_STLB_prefetch_access 0
Core_0_STLB_prefetch_hit 0
Core_0_STLB_prefetch_miss 0
Core_0_STLB_prefetch_MPKI 0
Core_0_STLB_prefetch_miss_rate 0
Core_0_STLB_writeback_access 0
Core_0_STLB_writeback_hit 0
Core_0_STLB_writeback_miss 0
Core_0_STLB_writeback_MPKI 0
Core_0_STLB_writeback_miss_rate 0
Core_0_STLB_prefetch_requested 0
Core_0_STLB_prefetch_issued 0
Core_0_STLB_prefetch_useful 0
Core_0_STLB_prefetch_useless 0
Core_0_STLB_prefetch_late 0
Core_0_STLB_prefetch_fill 0
Core_0_STLB_prefetch_too_early 0
Core_0_STLB_prefetch_too_early_among_fill 0
Core_0_STLB_prefetch_too_early_among_useless 0
Core_0_STLB_prefetch_pollution_evict 0
Core_0_STLB_prefetch_pollution_demand 0
Core_0_STLB_prefetch_pollution_among_prefetch_fill 0
Core_0_STLB_prefetch_accuracy 0
Core_0_STLB_prefetch_coverage 0

Core_0_L1I_total_access 3
Core_0_L1I_total_hit 3
Core_0_L1I_total_miss 0
Core_0_L1I_total_MPKI 0
Core_0_L1I_total_miss_rate 0
Core_0_L1I_demand_access 3
Core_0_L1I_demand_hit 3
Core_0_L1I_demand_miss 0
Core_0_L1I_demand_MPKI 0
Core_0_L1I_demand_miss_rate 0
Core_0_L1I_load_access 3
Core_0_L1I_load_hit 3
Core_0_L1I_load_miss 0
Core_0_L1I_load_MPKI 0
Core_0_L1I_load_miss_rate 0
Core_0_L1I_rfo_access 0
Core_0_L1I_rfo_hit 0
Core_0_L1I_rfo_miss 0
Core_0_L1I_rfo_MPKI 0
Core_0_L1I_rfo_miss_rate 0
Core_0_L1I_prefetch_access 0
Core_0_L1I_prefetch_hit 0
Core_0_L1I_prefetch_miss 0
Core_0_L1I_prefetch_MPKI 0
Core_0_L1I_prefetch_miss_rate 0
Core_0_L1I_writeback_access 0
Core_0_L1I_writeback_hit 0
Core_0_L1I_writeback_miss 0
Core_0_L1I_writeback_MPKI 0
Core_0_L1I_writeback_miss_rate 0
Core_0_L1I_prefetch_requested 0
Core_0_L1I_prefetch_issued 0
Core_0_L1I_prefetch_useful 0
Core_0_L1I_prefetch_useless 0
Core_0_L1I_prefetch_late 0
Core_0_L1I_prefetch_fill 0
Core_0_L1I_prefetch_too_early 0
Core_0_L1I_prefetch_too_early_among_fill 0
Core_0_L1I_prefetch_too_early_among_useless 0
Core_0_L1I_prefetch_pollution_evict 0
Core_0_L1I_prefetch_pollution_demand 0
Core_0_L1I_prefetch_pollution_among_prefetch_fill 0
Core_0_L1I_prefetch_accuracy 0
Core_0_L1I_prefetch_coverage 0

Core_0_L1D_total_access 65449894
Core_0_L1D_total_hit 63258597
Core_0_L1D_total_miss 2191297
Core_0_L1D_total_MPKI 21.913
Core_0_L1D_total_miss_rate 0.0334805
Core_0_L1D_demand_access 17142565
Core_0_L1D_demand_hit 16983208
Core_0_L1D_demand_miss 159357
Core_0_L1D_demand_MPKI 1.59357
Core_0_L1D_demand_miss_rate 0.00929598
Core_0_L1D_load_access 17142565
Core_0_L1D_load_hit 16983208
Core_0_L1D_load_miss 159357
Core_0_L1D_load_MPKI 1.59357
Core_0_L1D_load_miss_rate 0.00929598
Core_0_L1D_rfo_access 0
Core_0_L1D_rfo_hit 0
Core_0_L1D_rfo_miss 0
Core_0_L1D_rfo_MPKI 0
Core_0_L1D_rfo_miss_rate 0
Core_0_L1D_prefetch_access 48128399
Core_0_L1D_prefetch_hit 46096459
Core_0_L1D_prefetch_miss 2031940
Core_0_L1D_prefetch_MPKI 20.3194
Core_0_L1D_prefetch_miss_rate 0.0422191
Core_0_L1D_writeback_access 178930
Core_0_L1D_writeback_hit 178930
Core_0_L1D_writeback_miss 0
Core_0_L1D_writeback_MPKI 0
Core_0_L1D_writeback_miss_rate 0
Core_0_L1D_prefetch_requested 181355357
Core_0_L1D_prefetch_issued 51257080
Core_0_L1D_prefetch_useful 1571065
Core_0_L1D_prefetch_useless 1932
Core_0_L1D_prefetch_late 2146
Core_0_L1D_prefetch_fill 1570858
Core_0_L1D_prefetch_too_early 3
Core_0_L1D_prefetch_too_early_among_fill 1.90978e-06
Core_0_L1D_prefetch_too_early_among_useless 0.0015528
Core_0_L1D_prefetch_pollution_evict 7
Core_0_L1D_prefetch_pollution_demand 4
Core_0_L1D_cross_page_pf_translation_only_requested 24390068
Core_0_L1D_cross_page_pf_translation_only_issued 3128685
Core_0_L1D_cross_page_pf_translation_only_dropped 3128685
Core_0_L1D_prefetch_pollution_among_prefetch_fill 4.45616e-06
Core_0_L1D_prefetch_accuracy 0.0306507
Core_0_L1D_prefetch_coverage 0.907909

Core_0_L2C_total_access 4230755
Core_0_L2C_total_hit 1347897
Core_0_L2C_total_miss 2882858
Core_0_L2C_total_MPKI 28.8286
Core_0_L2C_total_miss_rate 0.681405
Core_0_L2C_demand_access 133998
Core_0_L2C_demand_hit 483
Core_0_L2C_demand_miss 133515
Core_0_L2C_demand_MPKI 1.33515
Core_0_L2C_demand_miss_rate 0.996395
Core_0_L2C_load_access 133998
Core_0_L2C_load_hit 483
Core_0_L2C_load_miss 133515
Core_0_L2C_load_MPKI 1.33515
Core_0_L2C_load_miss_rate 0.996395
Core_0_L2C_rfo_access 0
Core_0_L2C_rfo_hit 0
Core_0_L2C_rfo_miss 0
Core_0_L2C_rfo_MPKI 0
Core_0_L2C_rfo_miss_rate 0
Core_0_L2C_prefetch_access 4034506
Core_0_L2C_prefetch_hit 1285179
Core_0_L2C_prefetch_miss 2749327
Core_0_L2C_prefetch_MPKI 27.4933
Core_0_L2C_prefetch_miss_rate 0.681453
Core_0_L2C_writeback_access 62251
Core_0_L2C_writeback_hit 62235
Core_0_L2C_writeback_miss 16
Core_0_L2C_writeback_MPKI 0.00016
Core_0_L2C_writeback_miss_rate 0.000257024
Core_0_L2C_prefetch_requested 2003942
Core_0_L2C_prefetch_issued 2003942
Core_0_L2C_prefetch_useful 628482
Core_0_L2C_prefetch_useless 374912
Core_0_L2C_prefetch_late 4
Core_0_L2C_prefetch_fill 1573515
Core_0_L2C_prefetch_too_early 0
Core_0_L2C_prefetch_too_early_among_fill 0
Core_0_L2C_prefetch_too_early_among_useless 0
Core_0_L2C_prefetch_pollution_evict 50
Core_0_L2C_prefetch_pollution_demand 50
Core_0_L2C_prefetch_pollution_among_prefetch_fill 3.1776e-05
Core_0_L2C_prefetch_accuracy 0.313623
Core_0_L2C_prefetch_coverage 0.824783

Core_0_LLC_total_access 1793487
Core_0_LLC_total_hit 67480
Core_0_LLC_total_miss 1726007
Core_0_LLC_total_MPKI 17.2601
Core_0_LLC_total_miss_rate 0.962375
Core_0_LLC_demand_access 133465
Core_0_LLC_demand_hit 113
Core_0_LLC_demand_miss 133352
Core_0_LLC_demand_MPKI 1.33352
Core_0_LLC_demand_miss_rate 0.999153
Core_0_LLC_load_access 133465
Core_0_LLC_load_hit 113
Core_0_LLC_load_miss 133352
Core_0_LLC_load_MPKI 1.33352
Core_0_LLC_load_miss_rate 0.999153
Core_0_LLC_rfo_access 0
Core_0_LLC_rfo_hit 0
Core_0_LLC_rfo_miss 0
Core_0_LLC_rfo_MPKI 0
Core_0_LLC_rfo_miss_rate 0
Core_0_LLC_prefetch_access 1597801
Core_0_LLC_prefetch_hit 12634
Core_0_LLC_prefetch_miss 1585167
Core_0_LLC_prefetch_MPKI 15.8517
Core_0_LLC_prefetch_miss_rate 0.992093
Core_0_LLC_writeback_access 62221
Core_0_LLC_writeback_hit 54733
Core_0_LLC_writeback_miss 7488
Core_0_LLC_writeback_MPKI 0.07488
Core_0_LLC_writeback_miss_rate 0.120345
Core_0_LLC_prefetch_requested 0
Core_0_LLC_prefetch_issued 0
Core_0_LLC_prefetch_useful 0
Core_0_LLC_prefetch_useless 0
Core_0_LLC_prefetch_late 0
Core_0_LLC_prefetch_fill 1573580
Core_0_LLC_prefetch_too_early 0
Core_0_LLC_prefetch_too_early_among_fill 0
Core_0_LLC_prefetch_too_early_among_useless 0
Core_0_LLC_prefetch_pollution_evict 164
Core_0_LLC_prefetch_pollution_demand 164
Core_0_LLC_prefetch_pollution_among_prefetch_fill 0.000104221
Core_0_LLC_prefetch_accuracy 0
Core_0_LLC_prefetch_coverage 0

[DRAM Statistics]
Channel_0_RQ_row_buffer_hit 138144
Channel_0_RQ_row_buffer_miss 1594019
Channel_0_WQ_row_buffer_hit 11934
Channel_0_WQ_row_buffer_miss 50798
Channel_0_WQ_full 0
Channel_0_dbus_congested 3099512
DRAM_total_RQ_row_buffer_hit 138144
DRAM_total_RQ_row_buffer_miss 1594019
DRAM_total_WQ_row_buffer_hit 11934
DRAM_total_WQ_row_buffer_miss 50798
DRAM_total_WQ_full 0
DRAM_total_dbus_congested 3099512
DRAM_avg_congested_cycle 6.82708

====== DRAM_RQ_TRAFFIC ========
DRAM_RQ_READ_TRAFFIC_BREAKDOWN:
data_demand_read.count = 133352
data_demand_read.share = 7.70%

inst_demand_read.count = 0
inst_demand_read.share = 0.00%

cache_inst_prefetch.count = 0
cache_inst_prefetch.share = 0.00%

cache_data_prefetch.count = 1573580
cache_data_prefetch.share = 90.84%

stlb_data_demand.count = 22043
stlb_data_demand.share = 1.27%

stlb_inst_demand.count = 0
stlb_inst_demand.share = 0.00%

stlb_l1i_pref.count = 0
stlb_l1i_pref.share = 0.00%

stlb_l1d_pref.count = 3188
stlb_l1d_pref.share = 0.18%

DRAM_RQ_READ_TRAFFIC_SUMMARY:
cache_demand.count = 133352
cache_demand.share = 7.70%

cache_prefetch.count = 1573580
cache_prefetch.share = 90.84%

stlb_demand.count = 22043
stlb_demand.share = 1.27%

stlb_prefetch.count = 3188
stlb_prefetch.share = 0.18%

DRAM_RQ_READ_TRAFFIC_DEBUG:
total_classified_read.count = 1732163
unclassified_read.count = 0
total_read_with_other.count = 1732163

classified_plus_unclassified_check.count = 1732163
dram_rq_read_total_observed.count = 1732163
dram_rq_read_total_observed.per_1K_instructions = 17.3216

STLB_MISS_PTW_DRAM_TOUCH_BREAKDOWN:
stlb_miss_total.count = 109596

stlb_miss_touch_dram.count = 25095
stlb_miss_touch_dram.share = 22.90%

stlb_miss_no_dram_touch.count = 84501
stlb_miss_no_dram_touch.share = 77.10%

STLB_MISS_PTW_DRAM_TOUCH_DEBUG:
stlb_miss_touch_plus_no_touch.count = 109596
stlb_miss_total_check.count = 109596

======STLB miss causes ========
Core_0_STLB_miss_cause_breakdown
Core_0_STLB_cause_Demand_Data_miss 84511
Core_0_STLB_cause_Demand_Data_miss_rate 0.717472
Core_0_STLB_cause_Demand_Instruction_miss 0
Core_0_STLB_cause_Demand_Instruction_miss_rate 0
Core_0_STLB_cause_L1D_Prefetch_miss 25085
Core_0_STLB_cause_L1D_Prefetch_miss_rate 0.212964
Core_0_STLB_cause_L1D_Prefetch_Same_Page_miss 0
Core_0_STLB_cause_L1D_Prefetch_Same_Page_miss_rate 0
Core_0_STLB_cause_L1D_Prefetch_Cross_Page_miss 25085
Core_0_STLB_cause_L1D_Prefetch_Cross_Page_miss_rate 0.212964
Core_0_STLB_cause_L1I_Prefetch_miss 0
Core_0_STLB_cause_L1I_Prefetch_miss_rate 0
Core_0_STLB_cause_Other_miss 0
Core_0_STLB_cause_Other_miss_rate 0
Core_0_STLB_Demand_miss 84511
Core_0_STLB_Demand_miss_rate 0.717472
Core_0_STLB_L1D_Prefetch_miss 25085
Core_0_STLB_L1D_Prefetch_miss_rate 0.212964
Core_0_STLB_Other_miss 0
Core_0_STLB_Other_miss_rate 0

========== vBerti-TLB Cross-page Flow Stats ==========

Core_0_vBerti_Requested 181355357
Core_0_vBerti_Cross_page_prefetch_in_Requested 24390068
Core_0_vBerti_Same_page_prefetch_in_Requested 156965289
Core_0_vBerti_Cross_page_prefetch_of_Requested 0.134488
Core_0_vBerti_Issued 51257080
Core_0_vBerti_InPQ_Same_page_prefetch 48128395
Core_0_vBerti_InPQ_Cross_page_prefetch 3128685
Core_0_vBerti_PQ_Drop_Rate 0.717367
Core_0_vBerti_InPQ_Cross_page_prefetch_of_Requested 0.0172517
Core_0_vBerti_Cross_page_PQ_Drop_rate 0.871723
Core_0_vBerti_Cross_page_prefetch_of_Issued 0.0610391
Core_0_CP_PF_PQFULL_drop 21261383
Core_0_CP_PF_PQFULL_TLB_rescue_enqueued 0
Core_0_CP_PF_PQFULL_TLB_rescue_issued 0
Core_0_CP_PF_PQFULL_TLB_rescue_translated 0

========= DTLB_vBerti Prefetch Stats =========
Core_0_DTLB_demand_access 16774515
Core_0_DTLB_demand_hit 16681554
Core_0_DTLB_demand_miss 92961
Core_0_DTLB_demand_mshr_merge 262
Core_0_DTLB_demand_fill 92727
Core_0_DTLB_demand_miss_rate 0.0055418
Core_0_DTLB_demand_mpki 0.92961
Core_0_DTLB_vberti_prefetch_access 28339955
Core_0_DTLB_vberti_prefetch_hit 28236770
Core_0_DTLB_vberti_prefetch_miss 103185
Core_0_DTLB_vberti_prefetch_mshr_merge 78094
Core_0_DTLB_vberti_prefetch_fill 25063
Core_0_DTLB_vberti_prefetch_miss_rate 0.00364097
Core_0_DTLB_vberti_prefetch_mpki 1.03185

=== DTLB_vBerti Same/Cross-page Prefetch Stats ===
Core_0_DTLB_vberti_same_page_prefetch 26533306
Core_0_DTLB_vberti_same_page_prefetch_hit 26533306
Core_0_DTLB_vberti_same_page_prefetch_miss 0
Core_0_DTLB_vberti_same_page_prefetch_mshr_merge 0
Core_0_DTLB_vberti_same_page_prefetch_fill 0
Core_0_DTLB_vberti_same_page_prefetch_miss_rate 0
Core_0_DTLB_vberti_same_page_prefetch_mpki 0
Core_0_DTLB_vberti_cross_page_prefetch 1806649
Core_0_DTLB_vberti_cross_page_prefetch_hit 1703464
Core_0_DTLB_vberti_cross_page_prefetch_miss 103185
Core_0_DTLB_vberti_cross_page_prefetch_mshr_merge 78094
Core_0_DTLB_vberti_cross_page_prefetch_fill 25063
Core_0_DTLB_vberti_cross_page_prefetch_miss_rate 0.057114
Core_0_DTLB_vberti_cross_page_prefetch_mpki 1.03185
Core_0_DTLB_same_page_prefetch_miss_rate 0
Core_0_DTLB_same_page_prefetch_mpki 0
Core_0_DTLB_cross_page_prefetch_miss_rate 0.057114
Core_0_DTLB_cross_page_prefetch_mpki 1.03185
Core_0_DTLB_cross_page_prefetch_issued 1806649
Core_0_DTLB_cross_page_prefetch_lookups 1806649
Core_0_DTLB_cross_page_prefetch_useful 25084
Core_0_DTLB_cross_page_prefetch_useless 7
Core_0_DTLB_cross_page_prefetch_late 28
Core_0_DTLB_cross_page_prefetch_too_early 0
Core_0_DTLB_cross_page_prefetch_too_early_among_fill 0
Core_0_DTLB_cross_page_prefetch_too_early_among_useless 0
Core_0_DTLB_cross_page_prefetch_pollution_evict 524
Core_0_DTLB_cross_page_prefetch_pollution_demand 523
Core_0_DTLB_cross_page_prefetch_pollution_among_prefetch_fill 0.0209073
Core_0_DTLB_cross_page_prefetch_accuracy 0.0138843
Core_0_DTLB_cross_page_prefetch_coverage 0.212495

========= STLB_vBerti Prefetch Stats =========
Core_0_STLB_demand_access 92699
Core_0_STLB_demand_hit 8188
Core_0_STLB_demand_miss 84511
Core_0_STLB_demand_mshr_merge 0
Core_0_STLB_demand_fill 84511
Core_0_STLB_demand_miss_rate 0.911671
Core_0_STLB_demand_mpki 0.84511
Core_0_STLB_vberti_prefetch_access 25091
Core_0_STLB_vberti_prefetch_hit 6
Core_0_STLB_vberti_prefetch_miss 25085
Core_0_STLB_vberti_prefetch_mshr_merge 0
Core_0_STLB_vberti_prefetch_fill 25085
Core_0_STLB_vberti_prefetch_miss_rate 0.999761
Core_0_STLB_vberti_prefetch_mpki 0.25085

=== STLB_vBerti Same/Cross-page Prefetch Stats ===
Core_0_STLB_vberti_same_page_prefetch 0
Core_0_STLB_vberti_same_page_prefetch_hit 0
Core_0_STLB_vberti_same_page_prefetch_miss 0
Core_0_STLB_vberti_same_page_prefetch_mshr_merge 0
Core_0_STLB_vberti_same_page_prefetch_fill 0
Core_0_STLB_vberti_same_page_prefetch_miss_rate 0
Core_0_STLB_vberti_same_page_prefetch_mpki 0
Core_0_STLB_vberti_cross_page_prefetch 25091
Core_0_STLB_vberti_cross_page_prefetch_hit 6
Core_0_STLB_vberti_cross_page_prefetch_miss 25085
Core_0_STLB_vberti_cross_page_prefetch_mshr_merge 0
Core_0_STLB_vberti_cross_page_prefetch_fill 25085
Core_0_STLB_vberti_cross_page_prefetch_miss_rate 0.999761
Core_0_STLB_vberti_cross_page_prefetch_mpki 0.25085
Core_0_STLB_same_page_prefetch_miss_rate 0
Core_0_STLB_same_page_prefetch_mpki 0
Core_0_STLB_cross_page_prefetch_miss_rate 0.999761
Core_0_STLB_cross_page_prefetch_mpki 0.25085
Core_0_STLB_cross_page_prefetch_issued 25091
Core_0_STLB_cross_page_prefetch_lookups 25091
Core_0_STLB_cross_page_prefetch_useful 22
Core_0_STLB_cross_page_prefetch_useless 25063
Core_0_STLB_cross_page_prefetch_late 0
Core_0_STLB_cross_page_prefetch_too_early 0
Core_0_STLB_cross_page_prefetch_too_early_among_fill 0
Core_0_STLB_cross_page_prefetch_too_early_among_useless 0
Core_0_STLB_cross_page_prefetch_pollution_evict 5265
Core_0_STLB_cross_page_prefetch_pollution_demand 5265
Core_0_STLB_cross_page_prefetch_pollution_among_prefetch_fill 0.209886
Core_0_STLB_cross_page_prefetch_accuracy 0.000876808
Core_0_STLB_cross_page_prefetch_coverage 0.000260253

========= STLB Cross-page Prefetch Buffer Stats =========
Core_0_STLB_raw_demand_miss 84511
Core_0_CP_PB_insert 0
Core_0_CP_PB_demand_hit 0
Core_0_STLB_PB_demand_miss 84511
Core_0_CP_PB_coverage 0
Core_0_STLB_raw_demand_mpki 0.84511
Core_0_STLB_PB_demand_mpki 0.84511
Core_0_CP_PB_demand_hit_mpki 0

Core_0_TLB_demand_miss_rate 0.00503806
Core_0_TLB_demand_mpki 0.84511
Core_0_TLB_same_page_prefetch_miss_rate 0
Core_0_TLB_same_page_prefetch_mpki 0
Core_0_TLB_cross_page_prefetch_miss_rate 0.0138848
Core_0_TLB_cross_page_prefetch_mpki 0.25085
Core_0_TLB_cross_page_prefetch_issued 1806649
Core_0_TLB_cross_page_prefetch_lookups 1806649
Core_0_TLB_cross_page_prefetch_useful 25084
Core_0_TLB_cross_page_prefetch_useless 7
Core_0_TLB_cross_page_prefetch_late 28
Core_0_TLB_cross_page_prefetch_too_early 0
Core_0_TLB_cross_page_prefetch_too_early_among_fill 0
Core_0_TLB_cross_page_prefetch_too_early_among_useless 0
Core_0_TLB_cross_page_prefetch_accuracy 0.0138843
Core_0_TLB_cross_page_prefetch_coverage 0.228879
====== vBerti internal metric ========
Core_0_vBerti_end_to_end_issued 48128395
Core_0_vBerti_end_to_end_useful 531648
Core_0_vBerti_end_to_end_late 2114
Core_0_vBerti_end_to_end_accuracy 0.0110465
Core_0_vBerti_end_to_end_timely_accuracy 0.0110025
BERTI TO_L1: 148661905 TO_L2: 8303384 TO_L2_BC_MSHR: 661434
BERTI AVG_LAT: 135.951 NUM_TRACK_LATENCY: 1703573 NUM_CANT_TRACK_LATENCY: 0
BERTI CROSS_PAGE 24390068 NO_CROSS_PAGE: 156965289
BERTI FOUND_BERTI: 12622221 NO_FOUND_BERTI: 4711751
BERTI AVERAGE_ISSUED: 4.30584
