[VMEM] WARNING: physical memory size is smaller than virtual memory size.

*** ChampSim Multicore Out-of-Order Simulator ***
Warmup Instructions: 50000000
Simulation Instructions: 100000000
Number of CPUs: 1
Page size: 4096
Core 0: /data2/zcq/champsim_traces_gap/bfs.road-140B.champsimtrace.xz
VBerti Prefetcher
BERTI HASH ENTANGLING
BERTI IP MASK ffff
Off-chip DRAM Size: 16 GiB Channels: 1 Width: 64-bit Data Rate: 3205 MT/s
Warmup halting CPU 0 at instruction 50000005 cycle 16760925 for remainder of phase
Warmup finished CPU 0 instructions: 50000005 cycles: 16760925 cumulative IPC: 2.983 (Simulation time: 00 hr 03 min 44 sec)
Warmup complete CPU 0 instructions: 50000005 cycles: 16760925 cumulative IPC: 2.983 (Simulation time: 00 hr 03 min 44 sec)
Simulation finished CPU 0 instructions: 100000005 cycles: 575463266 cumulative IPC: 0.1738 (Simulation time: 00 hr 42 min 14 sec)
Simulation complete CPU 0 instructions: 100000005 cycles: 575463266 cumulative IPC: 0.1738 (Simulation time: 00 hr 42 min 14 sec)

ChampSim completed all CPUs

=== Simulation ===
CPU 0 runs /data2/zcq/champsim_traces_gap/bfs.road-140B.champsimtrace.xz

Region of Interest Statistics

CPU 0 cumulative IPC: 0.1738 instructions: 100000005 cycles: 575463266
CPU 0 Branch Prediction Accuracy: 86.25% MPKI: 23.83 Average ROB Occupancy at Mispredict: 19.74
Branch type MPKI
BRANCH_DIRECT_JUMP: 0.00382
BRANCH_INDIRECT: 0.00758
BRANCH_CONDITIONAL: 23.8
BRANCH_DIRECT_CALL: 3e-05
BRANCH_INDIRECT_CALL: 0.00379
BRANCH_RETURN: 0.0152

cpu0->cpu0_STLB TOTAL        ACCESS:    1350410 HIT:     490700 MISS:     859710 MSHR_MERGE:          0
cpu0->cpu0_STLB LOAD         ACCESS:    1350410 HIT:     490700 MISS:     859710 MSHR_MERGE:          0
cpu0->cpu0_STLB RFO          ACCESS:          0 HIT:          0 MISS:          0 MSHR_MERGE:          0
cpu0->cpu0_STLB PREFETCH     ACCESS:          0 HIT:          0 MISS:          0 MSHR_MERGE:          0
cpu0->cpu0_STLB WRITE        ACCESS:          0 HIT:          0 MISS:          0 MSHR_MERGE:          0
cpu0->cpu0_STLB TRANSLATION  ACCESS:          0 HIT:          0 MISS:          0 MSHR_MERGE:          0
cpu0->cpu0_STLB PREFETCH REQUESTED:          0 ISSUED:          0 USEFUL:          0 USELESS:          0 LATE:          0 TOO_EARLY:          0
cpu0->cpu0_STLB AVERAGE MISS LATENCY: 26.36 cycles
cpu0->cpu0_L2C TOTAL        ACCESS:    9007308 HIT:    3366073 MISS:    5641235 MSHR_MERGE:     119561
cpu0->cpu0_L2C LOAD         ACCESS:    4921302 HIT:     144199 MISS:    4777103 MSHR_MERGE:        752
cpu0->cpu0_L2C RFO          ACCESS:      14722 HIT:       1342 MISS:      13380 MSHR_MERGE:          0
cpu0->cpu0_L2C PREFETCH     ACCESS:    2178332 HIT:    1657473 MISS:     520859 MSHR_MERGE:     118809
cpu0->cpu0_L2C WRITE        ACCESS:    1460302 HIT:    1460300 MISS:          2 MSHR_MERGE:          0
cpu0->cpu0_L2C TRANSLATION  ACCESS:     432650 HIT:     102759 MISS:     329891 MSHR_MERGE:          0
cpu0->cpu0_L2C PREFETCH REQUESTED:     532544 ISSUED:     527518 USEFUL:     142165 USELESS:      39898 LATE:        233 TOO_EARLY:      24952
cpu0->cpu0_L2C AVERAGE MISS LATENCY: 80.32 cycles
cpu0->cpu0_L1I TOTAL        ACCESS:    7130125 HIT:    7111242 MISS:      18883 MSHR_MERGE:       5479
cpu0->cpu0_L1I LOAD         ACCESS:    7130125 HIT:    7111242 MISS:      18883 MSHR_MERGE:       5479
cpu0->cpu0_L1I RFO          ACCESS:          0 HIT:          0 MISS:          0 MSHR_MERGE:          0
cpu0->cpu0_L1I PREFETCH     ACCESS:          0 HIT:          0 MISS:          0 MSHR_MERGE:          0
cpu0->cpu0_L1I WRITE        ACCESS:          0 HIT:          0 MISS:          0 MSHR_MERGE:          0
cpu0->cpu0_L1I TRANSLATION  ACCESS:          0 HIT:          0 MISS:          0 MSHR_MERGE:          0
cpu0->cpu0_L1I PREFETCH REQUESTED:          0 ISSUED:          0 USEFUL:          0 USELESS:          0 LATE:          0 TOO_EARLY:          0
cpu0->cpu0_L1I AVERAGE MISS LATENCY: 25.35 cycles
cpu0->cpu0_L1D TOTAL        ACCESS:   95995031 HIT:   87928465 MISS:    8066566 MSHR_MERGE:    1056908
cpu0->cpu0_L1D LOAD         ACCESS:   31533040 HIT:   25641131 MISS:    5891909 MSHR_MERGE:     984011
cpu0->cpu0_L1D RFO          ACCESS:          0 HIT:          0 MISS:          0 MSHR_MERGE:          0
cpu0->cpu0_L1D PREFETCH     ACCESS:   52085449 HIT:   50428569 MISS:    1656880 MSHR_MERGE:       2492
cpu0->cpu0_L1D WRITE        ACCESS:   10573981 HIT:   10491580 MISS:      82401 MSHR_MERGE:      67679
cpu0->cpu0_L1D TRANSLATION  ACCESS:    1802561 HIT:    1367185 MISS:     435376 MSHR_MERGE:       2726
cpu0->cpu0_L1D PREFETCH REQUESTED:  125937570 ISSUED:   54964890 USEFUL:     418305 USELESS:       9966 LATE:         86 TOO_EARLY:        614
cpu0->cpu0_L1D AVERAGE MISS LATENCY: 85.73 cycles
cpu0->cpu0_ITLB TOTAL        ACCESS:    7086364 HIT:    7083479 MISS:       2885 MSHR_MERGE:       1749
cpu0->cpu0_ITLB LOAD         ACCESS:    7086364 HIT:    7083479 MISS:       2885 MSHR_MERGE:       1749
cpu0->cpu0_ITLB RFO          ACCESS:          0 HIT:          0 MISS:          0 MSHR_MERGE:          0
cpu0->cpu0_ITLB PREFETCH     ACCESS:          0 HIT:          0 MISS:          0 MSHR_MERGE:          0
cpu0->cpu0_ITLB WRITE        ACCESS:          0 HIT:          0 MISS:          0 MSHR_MERGE:          0
cpu0->cpu0_ITLB TRANSLATION  ACCESS:          0 HIT:          0 MISS:          0 MSHR_MERGE:          0
cpu0->cpu0_ITLB PREFETCH REQUESTED:          0 ISSUED:          0 USEFUL:          0 USELESS:          0 LATE:          0 TOO_EARLY:          0
cpu0->cpu0_ITLB AVERAGE MISS LATENCY: 40.43 cycles
cpu0->cpu0_DTLB TOTAL        ACCESS:   76211891 HIT:   74453742 MISS:    1758149 MSHR_MERGE:     408875
cpu0->cpu0_DTLB LOAD         ACCESS:   76211891 HIT:   74453742 MISS:    1758149 MSHR_MERGE:     408875
cpu0->cpu0_DTLB RFO          ACCESS:          0 HIT:          0 MISS:          0 MSHR_MERGE:          0
cpu0->cpu0_DTLB PREFETCH     ACCESS:          0 HIT:          0 MISS:          0 MSHR_MERGE:          0
cpu0->cpu0_DTLB WRITE        ACCESS:          0 HIT:          0 MISS:          0 MSHR_MERGE:          0
cpu0->cpu0_DTLB TRANSLATION  ACCESS:          0 HIT:          0 MISS:          0 MSHR_MERGE:          0
cpu0->cpu0_DTLB PREFETCH REQUESTED:          0 ISSUED:          0 USEFUL:          0 USELESS:          0 LATE:          0 TOO_EARLY:          0
cpu0->cpu0_DTLB AVERAGE MISS LATENCY: 22.4 cycles
cpu0->LLC TOTAL        ACCESS:    6933100 HIT:    4884133 MISS:    2048967 MSHR_MERGE:          2
cpu0->LLC LOAD         ACCESS:    4776351 HIT:    2961968 MISS:    1814383 MSHR_MERGE:          0
cpu0->LLC RFO          ACCESS:      13380 HIT:      11393 MISS:       1987 MSHR_MERGE:          0
cpu0->LLC PREFETCH     ACCESS:     402050 HIT:     219459 MISS:     182591 MSHR_MERGE:          2
cpu0->LLC WRITE        ACCESS:    1411428 HIT:    1373905 MISS:      37523 MSHR_MERGE:          0
cpu0->LLC TRANSLATION  ACCESS:     329891 HIT:     317408 MISS:      12483 MSHR_MERGE:          0
cpu0->LLC PREFETCH REQUESTED:          0 ISSUED:          0 USEFUL:          0 USELESS:          0 LATE:          0 TOO_EARLY:          0
cpu0->LLC AVERAGE MISS LATENCY: 178.4 cycles

DRAM Statistics

Channel 0 RQ ROW_BUFFER_HIT:       8079
  ROW_BUFFER_MISS:    2003247
  AVG DBUS CONGESTED CYCLE: 21.56
Channel 0 WQ ROW_BUFFER_HIT:     133060
  ROW_BUFFER_MISS:     292883
  FULL:          0
Channel 0 REFRESHES ISSUED:      47956

[ROI Statistics]
[System Configuration]
num_cpus 1
cpu_freq 4000
fetch_width 6
decode_width 6
dispatch_width 6
execute_width 6
lq_width 2
sq_width 2
retire_width 6
scheduler_size 128
branch_mispredict_penalty 15
rob_size 352
lq_size 128
sq_size 72
ifetch_buffer_size 64
decode_buffer_size 32
dispatch_buffer_size 32
register_file_size 288
decode_latency 1
dispatch_latency 1
schedule_latency 1
execute_latency 1
page_size 4096
block_size 64
core_0_itlb_set 16
core_0_itlb_way 4
core_0_itlb_rq_size 16
core_0_itlb_wq_size 16
core_0_itlb_pq_size 0
core_0_itlb_mshr_size 8
core_0_itlb_hit_latency 1
core_0_itlb_fill_latency 1
core_0_itlb_max_tag_check 2
core_0_itlb_max_fill 2
core_0_dtlb_set 16
core_0_dtlb_way 4
core_0_dtlb_rq_size 16
core_0_dtlb_wq_size 16
core_0_dtlb_pq_size 0
core_0_dtlb_mshr_size 8
core_0_dtlb_hit_latency 1
core_0_dtlb_fill_latency 1
core_0_dtlb_max_tag_check 2
core_0_dtlb_max_fill 2
core_0_stlb_set 128
core_0_stlb_way 12
core_0_stlb_rq_size 32
core_0_stlb_wq_size 32
core_0_stlb_pq_size 0
core_0_stlb_mshr_size 16
core_0_stlb_hit_latency 4
core_0_stlb_fill_latency 4
core_0_stlb_max_tag_check 1
core_0_stlb_max_fill 1
core_0_l1i_set 64
core_0_l1i_way 8
core_0_l1i_rq_size 64
core_0_l1i_wq_size 64
core_0_l1i_pq_size 32
core_0_l1i_mshr_size 8
core_0_l1i_hit_latency 2
core_0_l1i_fill_latency 2
core_0_l1i_max_tag_check 2
core_0_l1i_max_fill 2
core_0_l1d_set 64
core_0_l1d_way 12
core_0_l1d_rq_size 64
core_0_l1d_wq_size 64
core_0_l1d_pq_size 8
core_0_l1d_mshr_size 16
core_0_l1d_hit_latency 2
core_0_l1d_fill_latency 3
core_0_l1d_max_tag_check 2
core_0_l1d_max_fill 2
core_0_l2c_set 1024
core_0_l2c_way 8
core_0_l2c_rq_size 32
core_0_l2c_wq_size 32
core_0_l2c_pq_size 16
core_0_l2c_mshr_size 32
core_0_l2c_hit_latency 5
core_0_l2c_fill_latency 5
core_0_l2c_max_tag_check 1
core_0_l2c_max_fill 1
llc_set 2048
llc_way 16
llc_rq_size 32
llc_wq_size 32
llc_pq_size 32
llc_mshr_size 64
llc_hit_latency 10
llc_fill_latency 10
llc_max_tag_check 1
llc_max_fill 1
dram_channels 1
dram_ranks 1
dram_bankgroups 8
dram_banks 4
dram_rows 65536
dram_columns 1024
dram_channel_width 8
dram_rq_size 64
dram_wq_size 64
dram_size 17179869184
core_0_itlb_prefetcher no
core_0_dtlb_prefetcher no
core_0_stlb_prefetcher no
core_0_l1i_prefetcher next_line
core_0_l1d_prefetcher vberti
core_0_l2c_prefetcher ip_stride
llc_prefetcher no
llc_replacement drrip

Core_0_instructions 100000005
Core_0_cycles 575463266
Core_0_IPC 0.173773
Core_0_branch_prediction_accuracy 86.2548
Core_0_branch_MPKI 23.827
Core_0_average_ROB_occupancy_at_mispredict 19.7398

Core_0_ITLB_total_access 7086364
Core_0_ITLB_total_hit 7083479
Core_0_ITLB_total_miss 2885
Core_0_ITLB_total_MPKI 0.02885
Core_0_ITLB_total_miss_rate 0.00040712
Core_0_ITLB_demand_access 7086364
Core_0_ITLB_demand_hit 7083479
Core_0_ITLB_demand_miss 2885
Core_0_ITLB_demand_MPKI 0.02885
Core_0_ITLB_demand_miss_rate 0.00040712
Core_0_ITLB_load_access 7086364
Core_0_ITLB_load_hit 7083479
Core_0_ITLB_load_miss 2885
Core_0_ITLB_load_MPKI 0.02885
Core_0_ITLB_load_miss_rate 0.00040712
Core_0_ITLB_rfo_access 0
Core_0_ITLB_rfo_hit 0
Core_0_ITLB_rfo_miss 0
Core_0_ITLB_rfo_MPKI 0
Core_0_ITLB_rfo_miss_rate 0
Core_0_ITLB_prefetch_access 0
Core_0_ITLB_prefetch_hit 0
Core_0_ITLB_prefetch_miss 0
Core_0_ITLB_prefetch_MPKI 0
Core_0_ITLB_prefetch_miss_rate 0
Core_0_ITLB_writeback_access 0
Core_0_ITLB_writeback_hit 0
Core_0_ITLB_writeback_miss 0
Core_0_ITLB_writeback_MPKI 0
Core_0_ITLB_writeback_miss_rate 0
Core_0_ITLB_prefetch_requested 0
Core_0_ITLB_prefetch_issued 0
Core_0_ITLB_prefetch_useful 0
Core_0_ITLB_prefetch_useless 0
Core_0_ITLB_prefetch_late 0
Core_0_ITLB_prefetch_fill 0
Core_0_ITLB_prefetch_too_early 0
Core_0_ITLB_prefetch_too_early_among_fill 0
Core_0_ITLB_prefetch_too_early_among_useless 0
Core_0_ITLB_prefetch_pollution_evict 0
Core_0_ITLB_prefetch_pollution_demand 0
Core_0_ITLB_prefetch_pollution_among_prefetch_fill 0
Core_0_ITLB_prefetch_accuracy 0
Core_0_ITLB_prefetch_coverage 0

Core_0_DTLB_total_access 76211891
Core_0_DTLB_total_hit 74453742
Core_0_DTLB_total_miss 1758149
Core_0_DTLB_total_MPKI 17.5815
Core_0_DTLB_total_miss_rate 0.0230692
Core_0_DTLB_demand_access 76211891
Core_0_DTLB_demand_hit 74453742
Core_0_DTLB_demand_miss 1758149
Core_0_DTLB_demand_MPKI 17.5815
Core_0_DTLB_demand_miss_rate 0.0230692
Core_0_DTLB_load_access 76211891
Core_0_DTLB_load_hit 74453742
Core_0_DTLB_load_miss 1758149
Core_0_DTLB_load_MPKI 17.5815
Core_0_DTLB_load_miss_rate 0.0230692
Core_0_DTLB_rfo_access 0
Core_0_DTLB_rfo_hit 0
Core_0_DTLB_rfo_miss 0
Core_0_DTLB_rfo_MPKI 0
Core_0_DTLB_rfo_miss_rate 0
Core_0_DTLB_prefetch_access 0
Core_0_DTLB_prefetch_hit 0
Core_0_DTLB_prefetch_miss 0
Core_0_DTLB_prefetch_MPKI 0
Core_0_DTLB_prefetch_miss_rate 0
Core_0_DTLB_writeback_access 0
Core_0_DTLB_writeback_hit 0
Core_0_DTLB_writeback_miss 0
Core_0_DTLB_writeback_MPKI 0
Core_0_DTLB_writeback_miss_rate 0
Core_0_DTLB_prefetch_requested 0
Core_0_DTLB_prefetch_issued 0
Core_0_DTLB_prefetch_useful 0
Core_0_DTLB_prefetch_useless 0
Core_0_DTLB_prefetch_late 0
Core_0_DTLB_prefetch_fill 0
Core_0_DTLB_prefetch_too_early 0
Core_0_DTLB_prefetch_too_early_among_fill 0
Core_0_DTLB_prefetch_too_early_among_useless 0
Core_0_DTLB_prefetch_pollution_evict 0
Core_0_DTLB_prefetch_pollution_demand 0
Core_0_DTLB_prefetch_pollution_among_prefetch_fill 0
Core_0_DTLB_prefetch_accuracy 0
Core_0_DTLB_prefetch_coverage 0

Core_0_STLB_total_access 1350410
Core_0_STLB_total_hit 490700
Core_0_STLB_total_miss 859710
Core_0_STLB_total_MPKI 8.5971
Core_0_STLB_total_miss_rate 0.636629
Core_0_STLB_demand_access 1350410
Core_0_STLB_demand_hit 490700
Core_0_STLB_demand_miss 859710
Core_0_STLB_demand_MPKI 8.5971
Core_0_STLB_demand_miss_rate 0.636629
Core_0_STLB_load_access 1350410
Core_0_STLB_load_hit 490700
Core_0_STLB_load_miss 859710
Core_0_STLB_load_MPKI 8.5971
Core_0_STLB_load_miss_rate 0.636629
Core_0_STLB_rfo_access 0
Core_0_STLB_rfo_hit 0
Core_0_STLB_rfo_miss 0
Core_0_STLB_rfo_MPKI 0
Core_0_STLB_rfo_miss_rate 0
Core_0_STLB_prefetch_access 0
Core_0_STLB_prefetch_hit 0
Core_0_STLB_prefetch_miss 0
Core_0_STLB_prefetch_MPKI 0
Core_0_STLB_prefetch_miss_rate 0
Core_0_STLB_writeback_access 0
Core_0_STLB_writeback_hit 0
Core_0_STLB_writeback_miss 0
Core_0_STLB_writeback_MPKI 0
Core_0_STLB_writeback_miss_rate 0
Core_0_STLB_prefetch_requested 0
Core_0_STLB_prefetch_issued 0
Core_0_STLB_prefetch_useful 0
Core_0_STLB_prefetch_useless 0
Core_0_STLB_prefetch_late 0
Core_0_STLB_prefetch_fill 0
Core_0_STLB_prefetch_too_early 0
Core_0_STLB_prefetch_too_early_among_fill 0
Core_0_STLB_prefetch_too_early_among_useless 0
Core_0_STLB_prefetch_pollution_evict 0
Core_0_STLB_prefetch_pollution_demand 0
Core_0_STLB_prefetch_pollution_among_prefetch_fill 0
Core_0_STLB_prefetch_accuracy 0
Core_0_STLB_prefetch_coverage 0

Core_0_L1I_total_access 7130125
Core_0_L1I_total_hit 7111242
Core_0_L1I_total_miss 18883
Core_0_L1I_total_MPKI 0.18883
Core_0_L1I_total_miss_rate 0.00264834
Core_0_L1I_demand_access 7130125
Core_0_L1I_demand_hit 7111242
Core_0_L1I_demand_miss 18883
Core_0_L1I_demand_MPKI 0.18883
Core_0_L1I_demand_miss_rate 0.00264834
Core_0_L1I_load_access 7130125
Core_0_L1I_load_hit 7111242
Core_0_L1I_load_miss 18883
Core_0_L1I_load_MPKI 0.18883
Core_0_L1I_load_miss_rate 0.00264834
Core_0_L1I_rfo_access 0
Core_0_L1I_rfo_hit 0
Core_0_L1I_rfo_miss 0
Core_0_L1I_rfo_MPKI 0
Core_0_L1I_rfo_miss_rate 0
Core_0_L1I_prefetch_access 0
Core_0_L1I_prefetch_hit 0
Core_0_L1I_prefetch_miss 0
Core_0_L1I_prefetch_MPKI 0
Core_0_L1I_prefetch_miss_rate 0
Core_0_L1I_writeback_access 0
Core_0_L1I_writeback_hit 0
Core_0_L1I_writeback_miss 0
Core_0_L1I_writeback_MPKI 0
Core_0_L1I_writeback_miss_rate 0
Core_0_L1I_prefetch_requested 0
Core_0_L1I_prefetch_issued 0
Core_0_L1I_prefetch_useful 0
Core_0_L1I_prefetch_useless 0
Core_0_L1I_prefetch_late 0
Core_0_L1I_prefetch_fill 0
Core_0_L1I_prefetch_too_early 0
Core_0_L1I_prefetch_too_early_among_fill 0
Core_0_L1I_prefetch_too_early_among_useless 0
Core_0_L1I_prefetch_pollution_evict 0
Core_0_L1I_prefetch_pollution_demand 0
Core_0_L1I_prefetch_pollution_among_prefetch_fill 0
Core_0_L1I_prefetch_accuracy 0
Core_0_L1I_prefetch_coverage 0

Core_0_L1D_total_access 94192470
Core_0_L1D_total_hit 86561280
Core_0_L1D_total_miss 7631190
Core_0_L1D_total_MPKI 76.3119
Core_0_L1D_total_miss_rate 0.081017
Core_0_L1D_demand_access 31533040
Core_0_L1D_demand_hit 25641131
Core_0_L1D_demand_miss 5891909
Core_0_L1D_demand_MPKI 58.9191
Core_0_L1D_demand_miss_rate 0.186849
Core_0_L1D_load_access 31533040
Core_0_L1D_load_hit 25641131
Core_0_L1D_load_miss 5891909
Core_0_L1D_load_MPKI 58.9191
Core_0_L1D_load_miss_rate 0.186849
Core_0_L1D_rfo_access 0
Core_0_L1D_rfo_hit 0
Core_0_L1D_rfo_miss 0
Core_0_L1D_rfo_MPKI 0
Core_0_L1D_rfo_miss_rate 0
Core_0_L1D_prefetch_access 52085449
Core_0_L1D_prefetch_hit 50428569
Core_0_L1D_prefetch_miss 1656880
Core_0_L1D_prefetch_MPKI 16.5688
Core_0_L1D_prefetch_miss_rate 0.0318108
Core_0_L1D_writeback_access 10573981
Core_0_L1D_writeback_hit 10491580
Core_0_L1D_writeback_miss 82401
Core_0_L1D_writeback_MPKI 0.82401
Core_0_L1D_writeback_miss_rate 0.00779281
Core_0_L1D_prefetch_requested 125937570
Core_0_L1D_prefetch_issued 54964890
Core_0_L1D_prefetch_useful 418305
Core_0_L1D_prefetch_useless 9966
Core_0_L1D_prefetch_late 86
Core_0_L1D_prefetch_fill 428199
Core_0_L1D_prefetch_too_early 614
Core_0_L1D_prefetch_too_early_among_fill 0.00143391
Core_0_L1D_prefetch_too_early_among_useless 0.0616095
Core_0_L1D_prefetch_pollution_evict 31672
Core_0_L1D_prefetch_pollution_demand 31668
Core_0_L1D_cross_page_pf_translation_only_requested 9423255
Core_0_L1D_cross_page_pf_translation_only_issued 2879449
Core_0_L1D_cross_page_pf_translation_only_dropped 2879449
Core_0_L1D_prefetch_pollution_among_prefetch_fill 0.0739656
Core_0_L1D_prefetch_accuracy 0.0076104
Core_0_L1D_prefetch_coverage 0.0662901

Core_0_L2C_total_access 8574658
Core_0_L2C_total_hit 3263314
Core_0_L2C_total_miss 5311344
Core_0_L2C_total_MPKI 53.1134
Core_0_L2C_total_miss_rate 0.619423
Core_0_L2C_demand_access 4936024
Core_0_L2C_demand_hit 145541
Core_0_L2C_demand_miss 4790483
Core_0_L2C_demand_MPKI 47.9048
Core_0_L2C_demand_miss_rate 0.970515
Core_0_L2C_load_access 4921302
Core_0_L2C_load_hit 144199
Core_0_L2C_load_miss 4777103
Core_0_L2C_load_MPKI 47.771
Core_0_L2C_load_miss_rate 0.970699
Core_0_L2C_rfo_access 14722
Core_0_L2C_rfo_hit 1342
Core_0_L2C_rfo_miss 13380
Core_0_L2C_rfo_MPKI 0.1338
Core_0_L2C_rfo_miss_rate 0.908844
Core_0_L2C_prefetch_access 2178332
Core_0_L2C_prefetch_hit 1657473
Core_0_L2C_prefetch_miss 520859
Core_0_L2C_prefetch_MPKI 5.20859
Core_0_L2C_prefetch_miss_rate 0.239109
Core_0_L2C_writeback_access 1460302
Core_0_L2C_writeback_hit 1460300
Core_0_L2C_writeback_miss 2
Core_0_L2C_writeback_MPKI 2e-05
Core_0_L2C_writeback_miss_rate 1.36958e-06
Core_0_L2C_prefetch_requested 532544
Core_0_L2C_prefetch_issued 527518
Core_0_L2C_prefetch_useful 142165
Core_0_L2C_prefetch_useless 39898
Core_0_L2C_prefetch_late 233
Core_0_L2C_prefetch_fill 401256
Core_0_L2C_prefetch_too_early 24952
Core_0_L2C_prefetch_too_early_among_fill 0.0621847
Core_0_L2C_prefetch_too_early_among_useless 0.625395
Core_0_L2C_prefetch_pollution_evict 278353
Core_0_L2C_prefetch_pollution_demand 276864
Core_0_L2C_prefetch_pollution_among_prefetch_fill 0.693704
Core_0_L2C_prefetch_accuracy 0.269498
Core_0_L2C_prefetch_coverage 0.0288212

Core_0_LLC_total_access 6603209
Core_0_LLC_total_hit 4566725
Core_0_LLC_total_miss 2036484
Core_0_LLC_total_MPKI 20.3648
Core_0_LLC_total_miss_rate 0.308408
Core_0_LLC_demand_access 4789731
Core_0_LLC_demand_hit 2973361
Core_0_LLC_demand_miss 1816370
Core_0_LLC_demand_MPKI 18.1637
Core_0_LLC_demand_miss_rate 0.379222
Core_0_LLC_load_access 4776351
Core_0_LLC_load_hit 2961968
Core_0_LLC_load_miss 1814383
Core_0_LLC_load_MPKI 18.1438
Core_0_LLC_load_miss_rate 0.379868
Core_0_LLC_rfo_access 13380
Core_0_LLC_rfo_hit 11393
Core_0_LLC_rfo_miss 1987
Core_0_LLC_rfo_MPKI 0.01987
Core_0_LLC_rfo_miss_rate 0.148505
Core_0_LLC_prefetch_access 402050
Core_0_LLC_prefetch_hit 219459
Core_0_LLC_prefetch_miss 182591
Core_0_LLC_prefetch_MPKI 1.82591
Core_0_LLC_prefetch_miss_rate 0.45415
Core_0_LLC_writeback_access 1411428
Core_0_LLC_writeback_hit 1373905
Core_0_LLC_writeback_miss 37523
Core_0_LLC_writeback_MPKI 0.37523
Core_0_LLC_writeback_miss_rate 0.0265851
Core_0_LLC_prefetch_requested 0
Core_0_LLC_prefetch_issued 0
Core_0_LLC_prefetch_useful 0
Core_0_LLC_prefetch_useless 0
Core_0_LLC_prefetch_late 0
Core_0_LLC_prefetch_fill 182589
Core_0_LLC_prefetch_too_early 0
Core_0_LLC_prefetch_too_early_among_fill 0
Core_0_LLC_prefetch_too_early_among_useless 0
Core_0_LLC_prefetch_pollution_evict 103610
Core_0_LLC_prefetch_pollution_demand 103610
Core_0_LLC_prefetch_pollution_among_prefetch_fill 0.567449
Core_0_LLC_prefetch_accuracy 0
Core_0_LLC_prefetch_coverage 0

[DRAM Statistics]
Channel_0_RQ_row_buffer_hit 8079
Channel_0_RQ_row_buffer_miss 2003247
Channel_0_WQ_row_buffer_hit 133060
Channel_0_WQ_row_buffer_miss 292883
Channel_0_WQ_full 0
Channel_0_dbus_congested 6580846
DRAM_total_RQ_row_buffer_hit 8079
DRAM_total_RQ_row_buffer_miss 2003247
DRAM_total_WQ_row_buffer_hit 133060
DRAM_total_WQ_row_buffer_miss 292883
DRAM_total_WQ_full 0
DRAM_total_dbus_congested 6580846
DRAM_avg_congested_cycle 21.5633

====== DRAM_RQ_TRAFFIC ========
DRAM_RQ_READ_TRAFFIC_BREAKDOWN:
data_demand_read.count = 1816171
data_demand_read.share = 90.29%

inst_demand_read.count = 200
inst_demand_read.share = 0.01%

cache_inst_prefetch.count = 0
cache_inst_prefetch.share = 0.00%

cache_data_prefetch.count = 182589
cache_data_prefetch.share = 9.08%

stlb_data_demand.count = 12188
stlb_data_demand.share = 0.61%

stlb_inst_demand.count = 4
stlb_inst_demand.share = 0.00%

stlb_l1i_pref.count = 0
stlb_l1i_pref.share = 0.00%

stlb_l1d_pref.count = 291
stlb_l1d_pref.share = 0.01%

DRAM_RQ_READ_TRAFFIC_SUMMARY:
cache_demand.count = 1816371
cache_demand.share = 90.30%

cache_prefetch.count = 182589
cache_prefetch.share = 9.08%

stlb_demand.count = 12192
stlb_demand.share = 0.61%

stlb_prefetch.count = 291
stlb_prefetch.share = 0.01%

DRAM_RQ_READ_TRAFFIC_DEBUG:
total_classified_read.count = 2011443
unclassified_read.count = 0
total_read_with_other.count = 2011443

classified_plus_unclassified_check.count = 2011443
dram_rq_read_total_observed.count = 2011443
dram_rq_read_total_observed.per_1K_instructions = 20.1144

STLB_MISS_PTW_DRAM_TOUCH_BREAKDOWN:
stlb_miss_total.count = 859710

stlb_miss_touch_dram.count = 12468
stlb_miss_touch_dram.share = 1.45%

stlb_miss_no_dram_touch.count = 847242
stlb_miss_no_dram_touch.share = 98.55%

STLB_MISS_PTW_DRAM_TOUCH_DEBUG:
stlb_miss_touch_plus_no_touch.count = 859710
stlb_miss_total_check.count = 859710

======STLB miss causes ========
Core_0_STLB_miss_cause_breakdown
Core_0_STLB_cause_Demand_Data_miss 853679
Core_0_STLB_cause_Demand_Data_miss_rate 0.632163
Core_0_STLB_cause_Demand_Instruction_miss 1056
Core_0_STLB_cause_Demand_Instruction_miss_rate 0.000781985
Core_0_STLB_cause_L1D_Prefetch_miss 4975
Core_0_STLB_cause_L1D_Prefetch_miss_rate 0.00368407
Core_0_STLB_cause_L1D_Prefetch_Same_Page_miss 0
Core_0_STLB_cause_L1D_Prefetch_Same_Page_miss_rate 0
Core_0_STLB_cause_L1D_Prefetch_Cross_Page_miss 4975
Core_0_STLB_cause_L1D_Prefetch_Cross_Page_miss_rate 0.00368407
Core_0_STLB_cause_L1I_Prefetch_miss 0
Core_0_STLB_cause_L1I_Prefetch_miss_rate 0
Core_0_STLB_cause_Other_miss 0
Core_0_STLB_cause_Other_miss_rate 0
Core_0_STLB_Demand_miss 854735
Core_0_STLB_Demand_miss_rate 0.632945
Core_0_STLB_L1D_Prefetch_miss 4975
Core_0_STLB_L1D_Prefetch_miss_rate 0.00368407
Core_0_STLB_Other_miss 0
Core_0_STLB_Other_miss_rate 0

========== vBerti-TLB Cross-page Flow Stats ==========

Core_0_vBerti_Requested 125937570
Core_0_vBerti_Cross_page_prefetch_in_Requested 9423255
Core_0_vBerti_Same_page_prefetch_in_Requested 116514315
Core_0_vBerti_Cross_page_prefetch_of_Requested 0.0748248
Core_0_vBerti_Issued 54964890
Core_0_vBerti_InPQ_Same_page_prefetch 52085441
Core_0_vBerti_InPQ_Cross_page_prefetch 2879449
Core_0_vBerti_PQ_Drop_Rate 0.563554
Core_0_vBerti_InPQ_Cross_page_prefetch_of_Requested 0.0228641
Core_0_vBerti_Cross_page_PQ_Drop_rate 0.694432
Core_0_vBerti_Cross_page_prefetch_of_Issued 0.0523871
Core_0_CP_PF_PQFULL_drop 6543806
Core_0_CP_PF_PQFULL_TLB_rescue_enqueued 0
Core_0_CP_PF_PQFULL_TLB_rescue_issued 0
Core_0_CP_PF_PQFULL_TLB_rescue_translated 0

========= DTLB_vBerti Prefetch Stats =========
Core_0_DTLB_demand_access 39843251
Core_0_DTLB_demand_hit 38104333
Core_0_DTLB_demand_miss 1738918
Core_0_DTLB_demand_mshr_merge 398085
Core_0_DTLB_demand_fill 1340833
Core_0_DTLB_demand_miss_rate 0.043644
Core_0_DTLB_demand_mpki 17.3892
Core_0_DTLB_vberti_prefetch_access 36368640
Core_0_DTLB_vberti_prefetch_hit 36349409
Core_0_DTLB_vberti_prefetch_miss 19231
Core_0_DTLB_vberti_prefetch_mshr_merge 10790
Core_0_DTLB_vberti_prefetch_fill 8441
Core_0_DTLB_vberti_prefetch_miss_rate 0.00052878
Core_0_DTLB_vberti_prefetch_mpki 0.19231

=== DTLB_vBerti Same/Cross-page Prefetch Stats ===
Core_0_DTLB_vberti_same_page_prefetch 34495890
Core_0_DTLB_vberti_same_page_prefetch_hit 34495890
Core_0_DTLB_vberti_same_page_prefetch_miss 0
Core_0_DTLB_vberti_same_page_prefetch_mshr_merge 0
Core_0_DTLB_vberti_same_page_prefetch_fill 0
Core_0_DTLB_vberti_same_page_prefetch_miss_rate 0
Core_0_DTLB_vberti_same_page_prefetch_mpki 0
Core_0_DTLB_vberti_cross_page_prefetch 1872750
Core_0_DTLB_vberti_cross_page_prefetch_hit 1853519
Core_0_DTLB_vberti_cross_page_prefetch_miss 19231
Core_0_DTLB_vberti_cross_page_prefetch_mshr_merge 10790
Core_0_DTLB_vberti_cross_page_prefetch_fill 8441
Core_0_DTLB_vberti_cross_page_prefetch_miss_rate 0.0102689
Core_0_DTLB_vberti_cross_page_prefetch_mpki 0.19231
Core_0_DTLB_same_page_prefetch_miss_rate 0
Core_0_DTLB_same_page_prefetch_mpki 0
Core_0_DTLB_cross_page_prefetch_miss_rate 0.0102689
Core_0_DTLB_cross_page_prefetch_mpki 0.19231
Core_0_DTLB_cross_page_prefetch_issued 1872750
Core_0_DTLB_cross_page_prefetch_lookups 1872750
Core_0_DTLB_cross_page_prefetch_useful 7090
Core_0_DTLB_cross_page_prefetch_useless 1351
Core_0_DTLB_cross_page_prefetch_late 0
Core_0_DTLB_cross_page_prefetch_too_early 557
Core_0_DTLB_cross_page_prefetch_too_early_among_fill 0.0659874
Core_0_DTLB_cross_page_prefetch_too_early_among_useless 0.412287
Core_0_DTLB_cross_page_prefetch_pollution_evict 8054
Core_0_DTLB_cross_page_prefetch_pollution_demand 8041
Core_0_DTLB_cross_page_prefetch_pollution_among_prefetch_fill 0.954152
Core_0_DTLB_cross_page_prefetch_accuracy 0.00378588
Core_0_DTLB_cross_page_prefetch_coverage 0.00406069

========= STLB_vBerti Prefetch Stats =========
Core_0_STLB_demand_access 1341969
Core_0_STLB_demand_hit 487234
Core_0_STLB_demand_miss 854735
Core_0_STLB_demand_mshr_merge 0
Core_0_STLB_demand_fill 854735
Core_0_STLB_demand_miss_rate 0.636926
Core_0_STLB_demand_mpki 8.54735
Core_0_STLB_vberti_prefetch_access 8441
Core_0_STLB_vberti_prefetch_hit 3466
Core_0_STLB_vberti_prefetch_miss 4975
Core_0_STLB_vberti_prefetch_mshr_merge 0
Core_0_STLB_vberti_prefetch_fill 4975
Core_0_STLB_vberti_prefetch_miss_rate 0.589385
Core_0_STLB_vberti_prefetch_mpki 0.04975

=== STLB_vBerti Same/Cross-page Prefetch Stats ===
Core_0_STLB_vberti_same_page_prefetch 0
Core_0_STLB_vberti_same_page_prefetch_hit 0
Core_0_STLB_vberti_same_page_prefetch_miss 0
Core_0_STLB_vberti_same_page_prefetch_mshr_merge 0
Core_0_STLB_vberti_same_page_prefetch_fill 0
Core_0_STLB_vberti_same_page_prefetch_miss_rate 0
Core_0_STLB_vberti_same_page_prefetch_mpki 0
Core_0_STLB_vberti_cross_page_prefetch 8441
Core_0_STLB_vberti_cross_page_prefetch_hit 3466
Core_0_STLB_vberti_cross_page_prefetch_miss 4975
Core_0_STLB_vberti_cross_page_prefetch_mshr_merge 0
Core_0_STLB_vberti_cross_page_prefetch_fill 4975
Core_0_STLB_vberti_cross_page_prefetch_miss_rate 0.589385
Core_0_STLB_vberti_cross_page_prefetch_mpki 0.04975
Core_0_STLB_same_page_prefetch_miss_rate 0
Core_0_STLB_same_page_prefetch_mpki 0
Core_0_STLB_cross_page_prefetch_miss_rate 0.589385
Core_0_STLB_cross_page_prefetch_mpki 0.04975
Core_0_STLB_cross_page_prefetch_issued 8441
Core_0_STLB_cross_page_prefetch_lookups 8441
Core_0_STLB_cross_page_prefetch_useful 897
Core_0_STLB_cross_page_prefetch_useless 4078
Core_0_STLB_cross_page_prefetch_late 0
Core_0_STLB_cross_page_prefetch_too_early 534
Core_0_STLB_cross_page_prefetch_too_early_among_fill 0.107337
Core_0_STLB_cross_page_prefetch_too_early_among_useless 0.130947
Core_0_STLB_cross_page_prefetch_pollution_evict 4854
Core_0_STLB_cross_page_prefetch_pollution_demand 4844
Core_0_STLB_cross_page_prefetch_pollution_among_prefetch_fill 0.975678
Core_0_STLB_cross_page_prefetch_accuracy 0.106267
Core_0_STLB_cross_page_prefetch_coverage 0.00104835

========= STLB Cross-page Prefetch Buffer Stats =========
Core_0_STLB_raw_demand_miss 853679
Core_0_CP_PB_insert 0
Core_0_CP_PB_demand_hit 0
Core_0_STLB_PB_demand_miss 853679
Core_0_CP_PB_coverage 0
Core_0_STLB_raw_demand_mpki 8.53679
Core_0_STLB_PB_demand_mpki 8.53679
Core_0_CP_PB_demand_hit_mpki 0

Core_0_TLB_demand_miss_rate 0.0214524
Core_0_TLB_demand_mpki 8.54735
Core_0_TLB_same_page_prefetch_miss_rate 0
Core_0_TLB_same_page_prefetch_mpki 0
Core_0_TLB_cross_page_prefetch_miss_rate 0.00265652
Core_0_TLB_cross_page_prefetch_mpki 0.04975
Core_0_TLB_cross_page_prefetch_issued 1872750
Core_0_TLB_cross_page_prefetch_lookups 1872750
Core_0_TLB_cross_page_prefetch_useful 2862
Core_0_TLB_cross_page_prefetch_useless 1132
Core_0_TLB_cross_page_prefetch_late 0
Core_0_TLB_cross_page_prefetch_too_early 516
Core_0_TLB_cross_page_prefetch_too_early_among_fill 0.0384615
Core_0_TLB_cross_page_prefetch_too_early_among_useless 0.45583
Core_0_TLB_cross_page_prefetch_accuracy 0.00152823
Core_0_TLB_cross_page_prefetch_coverage 0.00333723
====== vBerti internal metric ========
Core_0_vBerti_end_to_end_issued 52085441
Core_0_vBerti_end_to_end_useful 14904
Core_0_vBerti_end_to_end_late 533
Core_0_vBerti_end_to_end_accuracy 0.000286145
Core_0_vBerti_end_to_end_timely_accuracy 0.000275912
BERTI TO_L1: 107215771 TO_L2: 9298544 TO_L2_BC_MSHR: 385
BERTI AVG_LAT: 86.2906 NUM_TRACK_LATENCY: 5343663 NUM_CANT_TRACK_LATENCY: 0
BERTI CROSS_PAGE 9423255 NO_CROSS_PAGE: 116514315
BERTI FOUND_BERTI: 30687521 NO_FOUND_BERTI: 11419500
BERTI AVERAGE_ISSUED: 3.18448
