[VMEM] WARNING: physical memory size is smaller than virtual memory size.

*** ChampSim Multicore Out-of-Order Simulator ***
Warmup Instructions: 50000000
Simulation Instructions: 100000000
Number of CPUs: 1
Page size: 4096
Core 0: /data2/zcq/champsim_traces_gap/cc.twitter-17B.champsimtrace.xz
VBerti Prefetcher
BERTI HASH ENTANGLING
BERTI IP MASK ffff
Off-chip DRAM Size: 16 GiB Channels: 1 Width: 64-bit Data Rate: 3205 MT/s
Warmup halting CPU 0 at instruction 50000000 cycle 13720408 for remainder of phase
Warmup finished CPU 0 instructions: 50000000 cycles: 13720408 cumulative IPC: 3.644 (Simulation time: 00 hr 03 min 06 sec)
Warmup complete CPU 0 instructions: 50000000 cycles: 13720408 cumulative IPC: 3.644 (Simulation time: 00 hr 03 min 06 sec)
Simulation finished CPU 0 instructions: 100000000 cycles: 267513511 cumulative IPC: 0.3738 (Simulation time: 00 hr 23 min 37 sec)
Simulation complete CPU 0 instructions: 100000000 cycles: 267513511 cumulative IPC: 0.3738 (Simulation time: 00 hr 23 min 37 sec)

ChampSim completed all CPUs

=== Simulation ===
CPU 0 runs /data2/zcq/champsim_traces_gap/cc.twitter-17B.champsimtrace.xz

Region of Interest Statistics

CPU 0 cumulative IPC: 0.3738 instructions: 100000000 cycles: 267513511
CPU 0 Branch Prediction Accuracy: 92.97% MPKI: 17.33 Average ROB Occupancy at Mispredict: 31.43
Branch type MPKI
BRANCH_DIRECT_JUMP: 0
BRANCH_INDIRECT: 0
BRANCH_CONDITIONAL: 17.33
BRANCH_DIRECT_CALL: 0
BRANCH_INDIRECT_CALL: 0
BRANCH_RETURN: 0

cpu0->cpu0_STLB TOTAL        ACCESS:    2360151 HIT:     933087 MISS:    1427064 MSHR_MERGE:          0
cpu0->cpu0_STLB LOAD         ACCESS:    2360151 HIT:     933087 MISS:    1427064 MSHR_MERGE:          0
cpu0->cpu0_STLB RFO          ACCESS:          0 HIT:          0 MISS:          0 MSHR_MERGE:          0
cpu0->cpu0_STLB PREFETCH     ACCESS:          0 HIT:          0 MISS:          0 MSHR_MERGE:          0
cpu0->cpu0_STLB WRITE        ACCESS:          0 HIT:          0 MISS:          0 MSHR_MERGE:          0
cpu0->cpu0_STLB TRANSLATION  ACCESS:          0 HIT:          0 MISS:          0 MSHR_MERGE:          0
cpu0->cpu0_STLB PREFETCH REQUESTED:          0 ISSUED:          0 USEFUL:          0 USELESS:          0 LATE:          0 TOO_EARLY:          0
cpu0->cpu0_STLB AVERAGE MISS LATENCY: 34.71 cycles
cpu0->cpu0_L2C TOTAL        ACCESS:    5699584 HIT:    3178043 MISS:    2521541 MSHR_MERGE:     120276
cpu0->cpu0_L2C LOAD         ACCESS:    2157383 HIT:     730826 MISS:    1426557 MSHR_MERGE:          0
cpu0->cpu0_L2C RFO          ACCESS:          0 HIT:          0 MISS:          0 MSHR_MERGE:          0
cpu0->cpu0_L2C PREFETCH     ACCESS:    1809884 HIT:    1276808 MISS:     533076 MSHR_MERGE:     120276
cpu0->cpu0_L2C WRITE        ACCESS:     412517 HIT:     412517 MISS:          0 MSHR_MERGE:          0
cpu0->cpu0_L2C TRANSLATION  ACCESS:    1319800 HIT:     757892 MISS:     561908 MSHR_MERGE:          0
cpu0->cpu0_L2C PREFETCH REQUESTED:    1032310 ISSUED:    1031322 USEFUL:     333249 USELESS:          3 LATE:          0 TOO_EARLY:          1
cpu0->cpu0_L2C AVERAGE MISS LATENCY: 105.5 cycles
cpu0->cpu0_L1I TOTAL        ACCESS:     731789 HIT:     731789 MISS:          0 MSHR_MERGE:          0
cpu0->cpu0_L1I LOAD         ACCESS:     731789 HIT:     731789 MISS:          0 MSHR_MERGE:          0
cpu0->cpu0_L1I RFO          ACCESS:          0 HIT:          0 MISS:          0 MSHR_MERGE:          0
cpu0->cpu0_L1I PREFETCH     ACCESS:          0 HIT:          0 MISS:          0 MSHR_MERGE:          0
cpu0->cpu0_L1I WRITE        ACCESS:          0 HIT:          0 MISS:          0 MSHR_MERGE:          0
cpu0->cpu0_L1I TRANSLATION  ACCESS:          0 HIT:          0 MISS:          0 MSHR_MERGE:          0
cpu0->cpu0_L1I PREFETCH REQUESTED:          0 ISSUED:          0 USEFUL:          0 USELESS:          0 LATE:          0 TOO_EARLY:          0
cpu0->cpu0_L1I AVERAGE MISS LATENCY: - cycles
cpu0->cpu0_L1D TOTAL        ACCESS:   49728788 HIT:   45311967 MISS:    4416821 MSHR_MERGE:     159728
cpu0->cpu0_L1D LOAD         ACCESS:   17073483 HIT:   14756512 MISS:    2316971 MSHR_MERGE:     159587
cpu0->cpu0_L1D RFO          ACCESS:          0 HIT:          0 MISS:          0 MSHR_MERGE:          0
cpu0->cpu0_L1D PREFETCH     ACCESS:   24232742 HIT:   23452833 MISS:     779909 MSHR_MERGE:          0
cpu0->cpu0_L1D WRITE        ACCESS:    4852868 HIT:    4852868 MISS:          0 MSHR_MERGE:          0
cpu0->cpu0_L1D TRANSLATION  ACCESS:    3569695 HIT:    2249754 MISS:    1319941 MSHR_MERGE:        141
cpu0->cpu0_L1D PREFETCH REQUESTED:   95562898 ISSUED:   25689699 USEFUL:     406079 USELESS:          0 LATE:         49 TOO_EARLY:          0
cpu0->cpu0_L1D AVERAGE MISS LATENCY: 68.94 cycles
cpu0->cpu0_ITLB TOTAL        ACCESS:     731789 HIT:     731789 MISS:          0 MSHR_MERGE:          0
cpu0->cpu0_ITLB LOAD         ACCESS:     731789 HIT:     731789 MISS:          0 MSHR_MERGE:          0
cpu0->cpu0_ITLB RFO          ACCESS:          0 HIT:          0 MISS:          0 MSHR_MERGE:          0
cpu0->cpu0_ITLB PREFETCH     ACCESS:          0 HIT:          0 MISS:          0 MSHR_MERGE:          0
cpu0->cpu0_ITLB WRITE        ACCESS:          0 HIT:          0 MISS:          0 MSHR_MERGE:          0
cpu0->cpu0_ITLB TRANSLATION  ACCESS:          0 HIT:          0 MISS:          0 MSHR_MERGE:          0
cpu0->cpu0_ITLB PREFETCH REQUESTED:          0 ISSUED:          0 USEFUL:          0 USELESS:          0 LATE:          0 TOO_EARLY:          0
cpu0->cpu0_ITLB AVERAGE MISS LATENCY: - cycles
cpu0->cpu0_DTLB TOTAL        ACCESS:   35598975 HIT:   33143721 MISS:    2455254 MSHR_MERGE:      95103
cpu0->cpu0_DTLB LOAD         ACCESS:   35598975 HIT:   33143721 MISS:    2455254 MSHR_MERGE:      95103
cpu0->cpu0_DTLB RFO          ACCESS:          0 HIT:          0 MISS:          0 MSHR_MERGE:          0
cpu0->cpu0_DTLB PREFETCH     ACCESS:          0 HIT:          0 MISS:          0 MSHR_MERGE:          0
cpu0->cpu0_DTLB WRITE        ACCESS:          0 HIT:          0 MISS:          0 MSHR_MERGE:          0
cpu0->cpu0_DTLB TRANSLATION  ACCESS:          0 HIT:          0 MISS:          0 MSHR_MERGE:          0
cpu0->cpu0_DTLB PREFETCH REQUESTED:          0 ISSUED:          0 USEFUL:          0 USELESS:          0 LATE:          0 TOO_EARLY:          0
cpu0->cpu0_DTLB AVERAGE MISS LATENCY: 26.59 cycles
cpu0->LLC TOTAL        ACCESS:    2813754 HIT:    1437017 MISS:    1376737 MSHR_MERGE:       4275
cpu0->LLC LOAD         ACCESS:    1426557 HIT:     547952 MISS:     878605 MSHR_MERGE:          0
cpu0->LLC RFO          ACCESS:          0 HIT:          0 MISS:          0 MSHR_MERGE:          0
cpu0->LLC PREFETCH     ACCESS:     412800 HIT:       2426 MISS:     410374 MSHR_MERGE:       4275
cpu0->LLC WRITE        ACCESS:     412489 HIT:     365741 MISS:      46748 MSHR_MERGE:          0
cpu0->LLC TRANSLATION  ACCESS:     561908 HIT:     520898 MISS:      41010 MSHR_MERGE:          0
cpu0->LLC PREFETCH REQUESTED:          0 ISSUED:          0 USEFUL:          0 USELESS:          0 LATE:          0 TOO_EARLY:          0
cpu0->LLC AVERAGE MISS LATENCY: 185.8 cycles

DRAM Statistics

Channel 0 RQ ROW_BUFFER_HIT:        148
  ROW_BUFFER_MISS:    1325565
  AVG DBUS CONGESTED CYCLE: 19.23
Channel 0 WQ ROW_BUFFER_HIT:      88447
  ROW_BUFFER_MISS:     323099
  FULL:          0
Channel 0 REFRESHES ISSUED:      22293

[ROI Statistics]
[System Configuration]
num_cpus 1
cpu_freq 4000
fetch_width 6
decode_width 6
dispatch_width 6
execute_width 6
lq_width 2
sq_width 2
retire_width 6
scheduler_size 128
branch_mispredict_penalty 15
rob_size 352
lq_size 128
sq_size 72
ifetch_buffer_size 64
decode_buffer_size 32
dispatch_buffer_size 32
register_file_size 288
decode_latency 1
dispatch_latency 1
schedule_latency 1
execute_latency 1
page_size 4096
block_size 64
core_0_itlb_set 16
core_0_itlb_way 4
core_0_itlb_rq_size 16
core_0_itlb_wq_size 16
core_0_itlb_pq_size 0
core_0_itlb_mshr_size 8
core_0_itlb_hit_latency 1
core_0_itlb_fill_latency 1
core_0_itlb_max_tag_check 2
core_0_itlb_max_fill 2
core_0_dtlb_set 16
core_0_dtlb_way 4
core_0_dtlb_rq_size 16
core_0_dtlb_wq_size 16
core_0_dtlb_pq_size 0
core_0_dtlb_mshr_size 8
core_0_dtlb_hit_latency 1
core_0_dtlb_fill_latency 1
core_0_dtlb_max_tag_check 2
core_0_dtlb_max_fill 2
core_0_stlb_set 128
core_0_stlb_way 12
core_0_stlb_rq_size 32
core_0_stlb_wq_size 32
core_0_stlb_pq_size 0
core_0_stlb_mshr_size 16
core_0_stlb_hit_latency 4
core_0_stlb_fill_latency 4
core_0_stlb_max_tag_check 1
core_0_stlb_max_fill 1
core_0_l1i_set 64
core_0_l1i_way 8
core_0_l1i_rq_size 64
core_0_l1i_wq_size 64
core_0_l1i_pq_size 32
core_0_l1i_mshr_size 8
core_0_l1i_hit_latency 2
core_0_l1i_fill_latency 2
core_0_l1i_max_tag_check 2
core_0_l1i_max_fill 2
core_0_l1d_set 64
core_0_l1d_way 12
core_0_l1d_rq_size 64
core_0_l1d_wq_size 64
core_0_l1d_pq_size 8
core_0_l1d_mshr_size 16
core_0_l1d_hit_latency 2
core_0_l1d_fill_latency 3
core_0_l1d_max_tag_check 2
core_0_l1d_max_fill 2
core_0_l2c_set 1024
core_0_l2c_way 8
core_0_l2c_rq_size 32
core_0_l2c_wq_size 32
core_0_l2c_pq_size 16
core_0_l2c_mshr_size 32
core_0_l2c_hit_latency 5
core_0_l2c_fill_latency 5
core_0_l2c_max_tag_check 1
core_0_l2c_max_fill 1
llc_set 2048
llc_way 16
llc_rq_size 32
llc_wq_size 32
llc_pq_size 32
llc_mshr_size 64
llc_hit_latency 10
llc_fill_latency 10
llc_max_tag_check 1
llc_max_fill 1
dram_channels 1
dram_ranks 1
dram_bankgroups 8
dram_banks 4
dram_rows 65536
dram_columns 1024
dram_channel_width 8
dram_rq_size 64
dram_wq_size 64
dram_size 17179869184
core_0_itlb_prefetcher no
core_0_dtlb_prefetcher no
core_0_stlb_prefetcher no
core_0_l1i_prefetcher next_line
core_0_l1d_prefetcher vberti
core_0_l2c_prefetcher ip_stride
llc_prefetcher no
llc_replacement drrip

Core_0_instructions 100000000
Core_0_cycles 267513511
Core_0_IPC 0.373813
Core_0_branch_prediction_accuracy 92.9725
Core_0_branch_MPKI 17.3257
Core_0_average_ROB_occupancy_at_mispredict 31.431

Core_0_ITLB_total_access 731789
Core_0_ITLB_total_hit 731789
Core_0_ITLB_total_miss 0
Core_0_ITLB_total_MPKI 0
Core_0_ITLB_total_miss_rate 0
Core_0_ITLB_demand_access 731789
Core_0_ITLB_demand_hit 731789
Core_0_ITLB_demand_miss 0
Core_0_ITLB_demand_MPKI 0
Core_0_ITLB_demand_miss_rate 0
Core_0_ITLB_load_access 731789
Core_0_ITLB_load_hit 731789
Core_0_ITLB_load_miss 0
Core_0_ITLB_load_MPKI 0
Core_0_ITLB_load_miss_rate 0
Core_0_ITLB_rfo_access 0
Core_0_ITLB_rfo_hit 0
Core_0_ITLB_rfo_miss 0
Core_0_ITLB_rfo_MPKI 0
Core_0_ITLB_rfo_miss_rate 0
Core_0_ITLB_prefetch_access 0
Core_0_ITLB_prefetch_hit 0
Core_0_ITLB_prefetch_miss 0
Core_0_ITLB_prefetch_MPKI 0
Core_0_ITLB_prefetch_miss_rate 0
Core_0_ITLB_writeback_access 0
Core_0_ITLB_writeback_hit 0
Core_0_ITLB_writeback_miss 0
Core_0_ITLB_writeback_MPKI 0
Core_0_ITLB_writeback_miss_rate 0
Core_0_ITLB_prefetch_requested 0
Core_0_ITLB_prefetch_issued 0
Core_0_ITLB_prefetch_useful 0
Core_0_ITLB_prefetch_useless 0
Core_0_ITLB_prefetch_late 0
Core_0_ITLB_prefetch_fill 0
Core_0_ITLB_prefetch_too_early 0
Core_0_ITLB_prefetch_too_early_among_fill 0
Core_0_ITLB_prefetch_too_early_among_useless 0
Core_0_ITLB_prefetch_pollution_evict 0
Core_0_ITLB_prefetch_pollution_demand 0
Core_0_ITLB_prefetch_pollution_among_prefetch_fill 0
Core_0_ITLB_prefetch_accuracy 0
Core_0_ITLB_prefetch_coverage 0

Core_0_DTLB_total_access 35598975
Core_0_DTLB_total_hit 33143721
Core_0_DTLB_total_miss 2455254
Core_0_DTLB_total_MPKI 24.5525
Core_0_DTLB_total_miss_rate 0.0689698
Core_0_DTLB_demand_access 35598975
Core_0_DTLB_demand_hit 33143721
Core_0_DTLB_demand_miss 2455254
Core_0_DTLB_demand_MPKI 24.5525
Core_0_DTLB_demand_miss_rate 0.0689698
Core_0_DTLB_load_access 35598975
Core_0_DTLB_load_hit 33143721
Core_0_DTLB_load_miss 2455254
Core_0_DTLB_load_MPKI 24.5525
Core_0_DTLB_load_miss_rate 0.0689698
Core_0_DTLB_rfo_access 0
Core_0_DTLB_rfo_hit 0
Core_0_DTLB_rfo_miss 0
Core_0_DTLB_rfo_MPKI 0
Core_0_DTLB_rfo_miss_rate 0
Core_0_DTLB_prefetch_access 0
Core_0_DTLB_prefetch_hit 0
Core_0_DTLB_prefetch_miss 0
Core_0_DTLB_prefetch_MPKI 0
Core_0_DTLB_prefetch_miss_rate 0
Core_0_DTLB_writeback_access 0
Core_0_DTLB_writeback_hit 0
Core_0_DTLB_writeback_miss 0
Core_0_DTLB_writeback_MPKI 0
Core_0_DTLB_writeback_miss_rate 0
Core_0_DTLB_prefetch_requested 0
Core_0_DTLB_prefetch_issued 0
Core_0_DTLB_prefetch_useful 0
Core_0_DTLB_prefetch_useless 0
Core_0_DTLB_prefetch_late 0
Core_0_DTLB_prefetch_fill 0
Core_0_DTLB_prefetch_too_early 0
Core_0_DTLB_prefetch_too_early_among_fill 0
Core_0_DTLB_prefetch_too_early_among_useless 0
Core_0_DTLB_prefetch_pollution_evict 0
Core_0_DTLB_prefetch_pollution_demand 0
Core_0_DTLB_prefetch_pollution_among_prefetch_fill 0
Core_0_DTLB_prefetch_accuracy 0
Core_0_DTLB_prefetch_coverage 0

Core_0_STLB_total_access 2360151
Core_0_STLB_total_hit 933087
Core_0_STLB_total_miss 1427064
Core_0_STLB_total_MPKI 14.2706
Core_0_STLB_total_miss_rate 0.604649
Core_0_STLB_demand_access 2360151
Core_0_STLB_demand_hit 933087
Core_0_STLB_demand_miss 1427064
Core_0_STLB_demand_MPKI 14.2706
Core_0_STLB_demand_miss_rate 0.604649
Core_0_STLB_load_access 2360151
Core_0_STLB_load_hit 933087
Core_0_STLB_load_miss 1427064
Core_0_STLB_load_MPKI 14.2706
Core_0_STLB_load_miss_rate 0.604649
Core_0_STLB_rfo_access 0
Core_0_STLB_rfo_hit 0
Core_0_STLB_rfo_miss 0
Core_0_STLB_rfo_MPKI 0
Core_0_STLB_rfo_miss_rate 0
Core_0_STLB_prefetch_access 0
Core_0_STLB_prefetch_hit 0
Core_0_STLB_prefetch_miss 0
Core_0_STLB_prefetch_MPKI 0
Core_0_STLB_prefetch_miss_rate 0
Core_0_STLB_writeback_access 0
Core_0_STLB_writeback_hit 0
Core_0_STLB_writeback_miss 0
Core_0_STLB_writeback_MPKI 0
Core_0_STLB_writeback_miss_rate 0
Core_0_STLB_prefetch_requested 0
Core_0_STLB_prefetch_issued 0
Core_0_STLB_prefetch_useful 0
Core_0_STLB_prefetch_useless 0
Core_0_STLB_prefetch_late 0
Core_0_STLB_prefetch_fill 0
Core_0_STLB_prefetch_too_early 0
Core_0_STLB_prefetch_too_early_among_fill 0
Core_0_STLB_prefetch_too_early_among_useless 0
Core_0_STLB_prefetch_pollution_evict 0
Core_0_STLB_prefetch_pollution_demand 0
Core_0_STLB_prefetch_pollution_among_prefetch_fill 0
Core_0_STLB_prefetch_accuracy 0
Core_0_STLB_prefetch_coverage 0

Core_0_L1I_total_access 731789
Core_0_L1I_total_hit 731789
Core_0_L1I_total_miss 0
Core_0_L1I_total_MPKI 0
Core_0_L1I_total_miss_rate 0
Core_0_L1I_demand_access 731789
Core_0_L1I_demand_hit 731789
Core_0_L1I_demand_miss 0
Core_0_L1I_demand_MPKI 0
Core_0_L1I_demand_miss_rate 0
Core_0_L1I_load_access 731789
Core_0_L1I_load_hit 731789
Core_0_L1I_load_miss 0
Core_0_L1I_load_MPKI 0
Core_0_L1I_load_miss_rate 0
Core_0_L1I_rfo_access 0
Core_0_L1I_rfo_hit 0
Core_0_L1I_rfo_miss 0
Core_0_L1I_rfo_MPKI 0
Core_0_L1I_rfo_miss_rate 0
Core_0_L1I_prefetch_access 0
Core_0_L1I_prefetch_hit 0
Core_0_L1I_prefetch_miss 0
Core_0_L1I_prefetch_MPKI 0
Core_0_L1I_prefetch_miss_rate 0
Core_0_L1I_writeback_access 0
Core_0_L1I_writeback_hit 0
Core_0_L1I_writeback_miss 0
Core_0_L1I_writeback_MPKI 0
Core_0_L1I_writeback_miss_rate 0
Core_0_L1I_prefetch_requested 0
Core_0_L1I_prefetch_issued 0
Core_0_L1I_prefetch_useful 0
Core_0_L1I_prefetch_useless 0
Core_0_L1I_prefetch_late 0
Core_0_L1I_prefetch_fill 0
Core_0_L1I_prefetch_too_early 0
Core_0_L1I_prefetch_too_early_among_fill 0
Core_0_L1I_prefetch_too_early_among_useless 0
Core_0_L1I_prefetch_pollution_evict 0
Core_0_L1I_prefetch_pollution_demand 0
Core_0_L1I_prefetch_pollution_among_prefetch_fill 0
Core_0_L1I_prefetch_accuracy 0
Core_0_L1I_prefetch_coverage 0

Core_0_L1D_total_access 46159093
Core_0_L1D_total_hit 43062213
Core_0_L1D_total_miss 3096880
Core_0_L1D_total_MPKI 30.9688
Core_0_L1D_total_miss_rate 0.0670914
Core_0_L1D_demand_access 17073483
Core_0_L1D_demand_hit 14756512
Core_0_L1D_demand_miss 2316971
Core_0_L1D_demand_MPKI 23.1697
Core_0_L1D_demand_miss_rate 0.135706
Core_0_L1D_load_access 17073483
Core_0_L1D_load_hit 14756512
Core_0_L1D_load_miss 2316971
Core_0_L1D_load_MPKI 23.1697
Core_0_L1D_load_miss_rate 0.135706
Core_0_L1D_rfo_access 0
Core_0_L1D_rfo_hit 0
Core_0_L1D_rfo_miss 0
Core_0_L1D_rfo_MPKI 0
Core_0_L1D_rfo_miss_rate 0
Core_0_L1D_prefetch_access 24232742
Core_0_L1D_prefetch_hit 23452833
Core_0_L1D_prefetch_miss 779909
Core_0_L1D_prefetch_MPKI 7.79909
Core_0_L1D_prefetch_miss_rate 0.0321841
Core_0_L1D_writeback_access 4852868
Core_0_L1D_writeback_hit 4852868
Core_0_L1D_writeback_miss 0
Core_0_L1D_writeback_MPKI 0
Core_0_L1D_writeback_miss_rate 0
Core_0_L1D_prefetch_requested 95562898
Core_0_L1D_prefetch_issued 25689699
Core_0_L1D_prefetch_useful 406079
Core_0_L1D_prefetch_useless 0
Core_0_L1D_prefetch_late 49
Core_0_L1D_prefetch_fill 406034
Core_0_L1D_prefetch_too_early 0
Core_0_L1D_prefetch_too_early_among_fill 0
Core_0_L1D_prefetch_too_early_among_useless 0
Core_0_L1D_prefetch_pollution_evict 67778
Core_0_L1D_prefetch_pollution_demand 67778
Core_0_L1D_cross_page_pf_translation_only_requested 12615639
Core_0_L1D_cross_page_pf_translation_only_issued 1456961
Core_0_L1D_cross_page_pf_translation_only_dropped 1456961
Core_0_L1D_prefetch_pollution_among_prefetch_fill 0.166927
Core_0_L1D_prefetch_accuracy 0.0158071
Core_0_L1D_prefetch_coverage 0.149127

Core_0_L2C_total_access 4379784
Core_0_L2C_total_hit 2420151
Core_0_L2C_total_miss 1959633
Core_0_L2C_total_MPKI 19.5963
Core_0_L2C_total_miss_rate 0.447427
Core_0_L2C_demand_access 2157383
Core_0_L2C_demand_hit 730826
Core_0_L2C_demand_miss 1426557
Core_0_L2C_demand_MPKI 14.2656
Core_0_L2C_demand_miss_rate 0.661244
Core_0_L2C_load_access 2157383
Core_0_L2C_load_hit 730826
Core_0_L2C_load_miss 1426557
Core_0_L2C_load_MPKI 14.2656
Core_0_L2C_load_miss_rate 0.661244
Core_0_L2C_rfo_access 0
Core_0_L2C_rfo_hit 0
Core_0_L2C_rfo_miss 0
Core_0_L2C_rfo_MPKI 0
Core_0_L2C_rfo_miss_rate 0
Core_0_L2C_prefetch_access 1809884
Core_0_L2C_prefetch_hit 1276808
Core_0_L2C_prefetch_miss 533076
Core_0_L2C_prefetch_MPKI 5.33076
Core_0_L2C_prefetch_miss_rate 0.294536
Core_0_L2C_writeback_access 412517
Core_0_L2C_writeback_hit 412517
Core_0_L2C_writeback_miss 0
Core_0_L2C_writeback_MPKI 0
Core_0_L2C_writeback_miss_rate 0
Core_0_L2C_prefetch_requested 1032310
Core_0_L2C_prefetch_issued 1031322
Core_0_L2C_prefetch_useful 333249
Core_0_L2C_prefetch_useless 3
Core_0_L2C_prefetch_late 0
Core_0_L2C_prefetch_fill 406088
Core_0_L2C_prefetch_too_early 1
Core_0_L2C_prefetch_too_early_among_fill 2.46252e-06
Core_0_L2C_prefetch_too_early_among_useless 0.333333
Core_0_L2C_prefetch_pollution_evict 98241
Core_0_L2C_prefetch_pollution_demand 98241
Core_0_L2C_prefetch_pollution_among_prefetch_fill 0.24192
Core_0_L2C_prefetch_accuracy 0.323128
Core_0_L2C_prefetch_coverage 0.189367

Core_0_LLC_total_access 2251846
Core_0_LLC_total_hit 916119
Core_0_LLC_total_miss 1335727
Core_0_LLC_total_MPKI 13.3573
Core_0_LLC_total_miss_rate 0.59317
Core_0_LLC_demand_access 1426557
Core_0_LLC_demand_hit 547952
Core_0_LLC_demand_miss 878605
Core_0_LLC_demand_MPKI 8.78605
Core_0_LLC_demand_miss_rate 0.615892
Core_0_LLC_load_access 1426557
Core_0_LLC_load_hit 547952
Core_0_LLC_load_miss 878605
Core_0_LLC_load_MPKI 8.78605
Core_0_LLC_load_miss_rate 0.615892
Core_0_LLC_rfo_access 0
Core_0_LLC_rfo_hit 0
Core_0_LLC_rfo_miss 0
Core_0_LLC_rfo_MPKI 0
Core_0_LLC_rfo_miss_rate 0
Core_0_LLC_prefetch_access 412800
Core_0_LLC_prefetch_hit 2426
Core_0_LLC_prefetch_miss 410374
Core_0_LLC_prefetch_MPKI 4.10374
Core_0_LLC_prefetch_miss_rate 0.994123
Core_0_LLC_writeback_access 412489
Core_0_LLC_writeback_hit 365741
Core_0_LLC_writeback_miss 46748
Core_0_LLC_writeback_MPKI 0.46748
Core_0_LLC_writeback_miss_rate 0.113332
Core_0_LLC_prefetch_requested 0
Core_0_LLC_prefetch_issued 0
Core_0_LLC_prefetch_useful 0
Core_0_LLC_prefetch_useless 0
Core_0_LLC_prefetch_late 0
Core_0_LLC_prefetch_fill 406099
Core_0_LLC_prefetch_too_early 0
Core_0_LLC_prefetch_too_early_among_fill 0
Core_0_LLC_prefetch_too_early_among_useless 0
Core_0_LLC_prefetch_pollution_evict 98679
Core_0_LLC_prefetch_pollution_demand 98679
Core_0_LLC_prefetch_pollution_among_prefetch_fill 0.242992
Core_0_LLC_prefetch_accuracy 0
Core_0_LLC_prefetch_coverage 0

[DRAM Statistics]
Channel_0_RQ_row_buffer_hit 148
Channel_0_RQ_row_buffer_miss 1325565
Channel_0_WQ_row_buffer_hit 88447
Channel_0_WQ_row_buffer_miss 323099
Channel_0_WQ_full 0
Channel_0_dbus_congested 4720025
DRAM_total_RQ_row_buffer_hit 148
DRAM_total_RQ_row_buffer_miss 1325565
DRAM_total_WQ_row_buffer_hit 88447
DRAM_total_WQ_row_buffer_miss 323099
DRAM_total_WQ_full 0
DRAM_total_dbus_congested 4720025
DRAM_avg_congested_cycle 19.2335

====== DRAM_RQ_TRAFFIC ========
DRAM_RQ_READ_TRAFFIC_BREAKDOWN:
data_demand_read.count = 878605
data_demand_read.share = 66.27%

inst_demand_read.count = 0
inst_demand_read.share = 0.00%

cache_inst_prefetch.count = 0
cache_inst_prefetch.share = 0.00%

cache_data_prefetch.count = 406099
cache_data_prefetch.share = 30.63%

stlb_data_demand.count = 40181
stlb_data_demand.share = 3.03%

stlb_inst_demand.count = 0
stlb_inst_demand.share = 0.00%

stlb_l1i_pref.count = 0
stlb_l1i_pref.share = 0.00%

stlb_l1d_pref.count = 829
stlb_l1d_pref.share = 0.06%

DRAM_RQ_READ_TRAFFIC_SUMMARY:
cache_demand.count = 878605
cache_demand.share = 66.27%

cache_prefetch.count = 406099
cache_prefetch.share = 30.63%

stlb_demand.count = 40181
stlb_demand.share = 3.03%

stlb_prefetch.count = 829
stlb_prefetch.share = 0.06%

DRAM_RQ_READ_TRAFFIC_DEBUG:
total_classified_read.count = 1325714
unclassified_read.count = 0
total_read_with_other.count = 1325714

classified_plus_unclassified_check.count = 1325714
dram_rq_read_total_observed.count = 1325714
dram_rq_read_total_observed.per_1K_instructions = 13.2571

STLB_MISS_PTW_DRAM_TOUCH_BREAKDOWN:
stlb_miss_total.count = 1427064

stlb_miss_touch_dram.count = 41005
stlb_miss_touch_dram.share = 2.87%

stlb_miss_no_dram_touch.count = 1386059
stlb_miss_no_dram_touch.share = 97.13%

STLB_MISS_PTW_DRAM_TOUCH_DEBUG:
stlb_miss_touch_plus_no_touch.count = 1427064
stlb_miss_total_check.count = 1427064

======STLB miss causes ========
Core_0_STLB_miss_cause_breakdown
Core_0_STLB_cause_Demand_Data_miss 1420598
Core_0_STLB_cause_Demand_Data_miss_rate 0.60191
Core_0_STLB_cause_Demand_Instruction_miss 0
Core_0_STLB_cause_Demand_Instruction_miss_rate 0
Core_0_STLB_cause_L1D_Prefetch_miss 6466
Core_0_STLB_cause_L1D_Prefetch_miss_rate 0.00273966
Core_0_STLB_cause_L1D_Prefetch_Same_Page_miss 0
Core_0_STLB_cause_L1D_Prefetch_Same_Page_miss_rate 0
Core_0_STLB_cause_L1D_Prefetch_Cross_Page_miss 6466
Core_0_STLB_cause_L1D_Prefetch_Cross_Page_miss_rate 0.00273966
Core_0_STLB_cause_L1I_Prefetch_miss 0
Core_0_STLB_cause_L1I_Prefetch_miss_rate 0
Core_0_STLB_cause_Other_miss 0
Core_0_STLB_cause_Other_miss_rate 0
Core_0_STLB_Demand_miss 1420598
Core_0_STLB_Demand_miss_rate 0.60191
Core_0_STLB_L1D_Prefetch_miss 6466
Core_0_STLB_L1D_Prefetch_miss_rate 0.00273966
Core_0_STLB_Other_miss 0
Core_0_STLB_Other_miss_rate 0

========== vBerti-TLB Cross-page Flow Stats ==========

Core_0_vBerti_Requested 95562898
Core_0_vBerti_Cross_page_prefetch_in_Requested 12615639
Core_0_vBerti_Same_page_prefetch_in_Requested 82947259
Core_0_vBerti_Cross_page_prefetch_of_Requested 0.132014
Core_0_vBerti_Issued 25689699
Core_0_vBerti_InPQ_Same_page_prefetch 24232738
Core_0_vBerti_InPQ_Cross_page_prefetch 1456961
Core_0_vBerti_PQ_Drop_Rate 0.731175
Core_0_vBerti_InPQ_Cross_page_prefetch_of_Requested 0.0152461
Core_0_vBerti_Cross_page_PQ_Drop_rate 0.884512
Core_0_vBerti_Cross_page_prefetch_of_Issued 0.0567138
Core_0_CP_PF_PQFULL_drop 11158678
Core_0_CP_PF_PQFULL_TLB_rescue_enqueued 0
Core_0_CP_PF_PQFULL_TLB_rescue_issued 0
Core_0_CP_PF_PQFULL_TLB_rescue_translated 0

========= DTLB_vBerti Prefetch Stats =========
Core_0_DTLB_demand_access 21308709
Core_0_DTLB_demand_hit 18868269
Core_0_DTLB_demand_miss 2440440
Core_0_DTLB_demand_mshr_merge 86767
Core_0_DTLB_demand_fill 2353674
Core_0_DTLB_demand_miss_rate 0.114528
Core_0_DTLB_demand_mpki 24.4044
Core_0_DTLB_vberti_prefetch_access 14290266
Core_0_DTLB_vberti_prefetch_hit 14275452
Core_0_DTLB_vberti_prefetch_miss 14814
Core_0_DTLB_vberti_prefetch_mshr_merge 8336
Core_0_DTLB_vberti_prefetch_fill 6478
Core_0_DTLB_vberti_prefetch_miss_rate 0.00103665
Core_0_DTLB_vberti_prefetch_mpki 0.14814

=== DTLB_vBerti Same/Cross-page Prefetch Stats ===
Core_0_DTLB_vberti_same_page_prefetch 13428827
Core_0_DTLB_vberti_same_page_prefetch_hit 13428827
Core_0_DTLB_vberti_same_page_prefetch_miss 0
Core_0_DTLB_vberti_same_page_prefetch_mshr_merge 0
Core_0_DTLB_vberti_same_page_prefetch_fill 0
Core_0_DTLB_vberti_same_page_prefetch_miss_rate 0
Core_0_DTLB_vberti_same_page_prefetch_mpki 0
Core_0_DTLB_vberti_cross_page_prefetch 861439
Core_0_DTLB_vberti_cross_page_prefetch_hit 846625
Core_0_DTLB_vberti_cross_page_prefetch_miss 14814
Core_0_DTLB_vberti_cross_page_prefetch_mshr_merge 8336
Core_0_DTLB_vberti_cross_page_prefetch_fill 6478
Core_0_DTLB_vberti_cross_page_prefetch_miss_rate 0.0171968
Core_0_DTLB_vberti_cross_page_prefetch_mpki 0.14814
Core_0_DTLB_same_page_prefetch_miss_rate 0
Core_0_DTLB_same_page_prefetch_mpki 0
Core_0_DTLB_cross_page_prefetch_miss_rate 0.0171968
Core_0_DTLB_cross_page_prefetch_mpki 0.14814
Core_0_DTLB_cross_page_prefetch_issued 861439
Core_0_DTLB_cross_page_prefetch_lookups 861439
Core_0_DTLB_cross_page_prefetch_useful 6446
Core_0_DTLB_cross_page_prefetch_useless 32
Core_0_DTLB_cross_page_prefetch_late 0
Core_0_DTLB_cross_page_prefetch_too_early 22
Core_0_DTLB_cross_page_prefetch_too_early_among_fill 0.00339611
Core_0_DTLB_cross_page_prefetch_too_early_among_useless 0.6875
Core_0_DTLB_cross_page_prefetch_pollution_evict 4672
Core_0_DTLB_cross_page_prefetch_pollution_demand 4672
Core_0_DTLB_cross_page_prefetch_pollution_among_prefetch_fill 0.72121
Core_0_DTLB_cross_page_prefetch_accuracy 0.00748283
Core_0_DTLB_cross_page_prefetch_coverage 0.00263437

========= STLB_vBerti Prefetch Stats =========
Core_0_STLB_demand_access 2353673
Core_0_STLB_demand_hit 933075
Core_0_STLB_demand_miss 1420598
Core_0_STLB_demand_mshr_merge 0
Core_0_STLB_demand_fill 1420599
Core_0_STLB_demand_miss_rate 0.603566
Core_0_STLB_demand_mpki 14.206
Core_0_STLB_vberti_prefetch_access 6478
Core_0_STLB_vberti_prefetch_hit 12
Core_0_STLB_vberti_prefetch_miss 6466
Core_0_STLB_vberti_prefetch_mshr_merge 0
Core_0_STLB_vberti_prefetch_fill 6466
Core_0_STLB_vberti_prefetch_miss_rate 0.998148
Core_0_STLB_vberti_prefetch_mpki 0.06466

=== STLB_vBerti Same/Cross-page Prefetch Stats ===
Core_0_STLB_vberti_same_page_prefetch 0
Core_0_STLB_vberti_same_page_prefetch_hit 0
Core_0_STLB_vberti_same_page_prefetch_miss 0
Core_0_STLB_vberti_same_page_prefetch_mshr_merge 0
Core_0_STLB_vberti_same_page_prefetch_fill 0
Core_0_STLB_vberti_same_page_prefetch_miss_rate 0
Core_0_STLB_vberti_same_page_prefetch_mpki 0
Core_0_STLB_vberti_cross_page_prefetch 6478
Core_0_STLB_vberti_cross_page_prefetch_hit 12
Core_0_STLB_vberti_cross_page_prefetch_miss 6466
Core_0_STLB_vberti_cross_page_prefetch_mshr_merge 0
Core_0_STLB_vberti_cross_page_prefetch_fill 6466
Core_0_STLB_vberti_cross_page_prefetch_miss_rate 0.998148
Core_0_STLB_vberti_cross_page_prefetch_mpki 0.06466
Core_0_STLB_same_page_prefetch_miss_rate 0
Core_0_STLB_same_page_prefetch_mpki 0
Core_0_STLB_cross_page_prefetch_miss_rate 0.998148
Core_0_STLB_cross_page_prefetch_mpki 0.06466
Core_0_STLB_cross_page_prefetch_issued 6478
Core_0_STLB_cross_page_prefetch_lookups 6478
Core_0_STLB_cross_page_prefetch_useful 3920
Core_0_STLB_cross_page_prefetch_useless 2546
Core_0_STLB_cross_page_prefetch_late 0
Core_0_STLB_cross_page_prefetch_too_early 2416
Core_0_STLB_cross_page_prefetch_too_early_among_fill 0.373647
Core_0_STLB_cross_page_prefetch_too_early_among_useless 0.94894
Core_0_STLB_cross_page_prefetch_pollution_evict 6107
Core_0_STLB_cross_page_prefetch_pollution_demand 6107
Core_0_STLB_cross_page_prefetch_pollution_among_prefetch_fill 0.944479
Core_0_STLB_cross_page_prefetch_accuracy 0.605125
Core_0_STLB_cross_page_prefetch_coverage 0.00275181

========= STLB Cross-page Prefetch Buffer Stats =========
Core_0_STLB_raw_demand_miss 1420598
Core_0_CP_PB_insert 0
Core_0_CP_PB_demand_hit 0
Core_0_STLB_PB_demand_miss 1420598
Core_0_CP_PB_coverage 0
Core_0_STLB_raw_demand_mpki 14.206
Core_0_STLB_PB_demand_mpki 14.206
Core_0_CP_PB_demand_hit_mpki 0

Core_0_TLB_demand_miss_rate 0.0666675
Core_0_TLB_demand_mpki 14.206
Core_0_TLB_same_page_prefetch_miss_rate 0
Core_0_TLB_same_page_prefetch_mpki 0
Core_0_TLB_cross_page_prefetch_miss_rate 0.00750605
Core_0_TLB_cross_page_prefetch_mpki 0.06466
Core_0_TLB_cross_page_prefetch_issued 861439
Core_0_TLB_cross_page_prefetch_lookups 861439
Core_0_TLB_cross_page_prefetch_useful 6446
Core_0_TLB_cross_page_prefetch_useless 31
Core_0_TLB_cross_page_prefetch_late 0
Core_0_TLB_cross_page_prefetch_too_early 21
Core_0_TLB_cross_page_prefetch_too_early_among_fill 0.00162237
Core_0_TLB_cross_page_prefetch_too_early_among_useless 0.677419
Core_0_TLB_cross_page_prefetch_accuracy 0.00748283
Core_0_TLB_cross_page_prefetch_coverage 0.00451703
====== vBerti internal metric ========
Core_0_vBerti_end_to_end_issued 24232738
Core_0_vBerti_end_to_end_useful 65400
Core_0_vBerti_end_to_end_late 49
Core_0_vBerti_end_to_end_accuracy 0.00269883
Core_0_vBerti_end_to_end_timely_accuracy 0.00269681
BERTI TO_L1: 77830887 TO_L2: 5116372 TO_L2_BC_MSHR: 7665
BERTI AVG_LAT: 92.8348 NUM_TRACK_LATENCY: 2559729 NUM_CANT_TRACK_LATENCY: 0
BERTI CROSS_PAGE 12615639 NO_CROSS_PAGE: 82947259
BERTI FOUND_BERTI: 17144305 NO_FOUND_BERTI: 4852868
BERTI AVERAGE_ISSUED: 4.21557
