[VMEM] WARNING: physical memory size is smaller than virtual memory size.

*** ChampSim Multicore Out-of-Order Simulator ***
Warmup Instructions: 50000000
Simulation Instructions: 100000000
Number of CPUs: 1
Page size: 4096
Core 0: /data2/zcq/champsim_traces_gap/cc.twitter-15B.champsimtrace.xz
VBerti Prefetcher
BERTI HASH ENTANGLING
BERTI IP MASK ffff
Off-chip DRAM Size: 16 GiB Channels: 1 Width: 64-bit Data Rate: 3205 MT/s
Warmup halting CPU 0 at instruction 50000005 cycle 17966786 for remainder of phase
Warmup finished CPU 0 instructions: 50000005 cycles: 17966786 cumulative IPC: 2.783 (Simulation time: 00 hr 04 min 02 sec)
Warmup complete CPU 0 instructions: 50000005 cycles: 17966786 cumulative IPC: 2.783 (Simulation time: 00 hr 04 min 02 sec)
Simulation finished CPU 0 instructions: 100000005 cycles: 249408226 cumulative IPC: 0.4009 (Simulation time: 00 hr 30 min 13 sec)
Simulation complete CPU 0 instructions: 100000005 cycles: 249408226 cumulative IPC: 0.4009 (Simulation time: 00 hr 30 min 13 sec)

ChampSim completed all CPUs

=== Simulation ===
CPU 0 runs /data2/zcq/champsim_traces_gap/cc.twitter-15B.champsimtrace.xz

Region of Interest Statistics

CPU 0 cumulative IPC: 0.4009 instructions: 100000005 cycles: 249408226
CPU 0 Branch Prediction Accuracy: 98.22% MPKI: 3.27 Average ROB Occupancy at Mispredict: 158.8
Branch type MPKI
BRANCH_DIRECT_JUMP: 0
BRANCH_INDIRECT: 0
BRANCH_CONDITIONAL: 3.27
BRANCH_DIRECT_CALL: 0
BRANCH_INDIRECT_CALL: 0
BRANCH_RETURN: 0

cpu0->cpu0_STLB TOTAL        ACCESS:    2079147 HIT:     413017 MISS:    1666130 MSHR_MERGE:          0
cpu0->cpu0_STLB LOAD         ACCESS:    2079147 HIT:     413017 MISS:    1666130 MSHR_MERGE:          0
cpu0->cpu0_STLB RFO          ACCESS:          0 HIT:          0 MISS:          0 MSHR_MERGE:          0
cpu0->cpu0_STLB PREFETCH     ACCESS:          0 HIT:          0 MISS:          0 MSHR_MERGE:          0
cpu0->cpu0_STLB WRITE        ACCESS:          0 HIT:          0 MISS:          0 MSHR_MERGE:          0
cpu0->cpu0_STLB TRANSLATION  ACCESS:          0 HIT:          0 MISS:          0 MSHR_MERGE:          0
cpu0->cpu0_STLB PREFETCH REQUESTED:          0 ISSUED:          0 USEFUL:          0 USELESS:          0 LATE:          0 TOO_EARLY:          0
cpu0->cpu0_STLB AVERAGE MISS LATENCY: 54.54 cycles
cpu0->cpu0_L2C TOTAL        ACCESS:   11755367 HIT:    4821153 MISS:    6934214 MSHR_MERGE:    1301247
cpu0->cpu0_L2C LOAD         ACCESS:    2798805 HIT:     646076 MISS:    2152729 MSHR_MERGE:      72915
cpu0->cpu0_L2C RFO          ACCESS:          0 HIT:          0 MISS:          0 MSHR_MERGE:          0
cpu0->cpu0_L2C PREFETCH     ACCESS:    6872444 HIT:    2992774 MISS:    3879670 MSHR_MERGE:    1228332
cpu0->cpu0_L2C WRITE        ACCESS:     551356 HIT:     551264 MISS:         92 MSHR_MERGE:          0
cpu0->cpu0_L2C TRANSLATION  ACCESS:    1532762 HIT:     631039 MISS:     901723 MSHR_MERGE:          0
cpu0->cpu0_L2C PREFETCH REQUESTED:    2276784 ISSUED:    2276108 USEFUL:     501711 USELESS:     198381 LATE:      37351 TOO_EARLY:          0
cpu0->cpu0_L2C AVERAGE MISS LATENCY: 163.3 cycles
cpu0->cpu0_L1I TOTAL        ACCESS:    6289299 HIT:    6289299 MISS:          0 MSHR_MERGE:          0
cpu0->cpu0_L1I LOAD         ACCESS:    6289299 HIT:    6289299 MISS:          0 MSHR_MERGE:          0
cpu0->cpu0_L1I RFO          ACCESS:          0 HIT:          0 MISS:          0 MSHR_MERGE:          0
cpu0->cpu0_L1I PREFETCH     ACCESS:          0 HIT:          0 MISS:          0 MSHR_MERGE:          0
cpu0->cpu0_L1I WRITE        ACCESS:          0 HIT:          0 MISS:          0 MSHR_MERGE:          0
cpu0->cpu0_L1I TRANSLATION  ACCESS:          0 HIT:          0 MISS:          0 MSHR_MERGE:          0
cpu0->cpu0_L1I PREFETCH REQUESTED:          0 ISSUED:          0 USEFUL:          0 USELESS:          0 LATE:          0 TOO_EARLY:          0
cpu0->cpu0_L1I AVERAGE MISS LATENCY: - cycles
cpu0->cpu0_L1D TOTAL        ACCESS:   49599907 HIT:   40304748 MISS:    9295159 MSHR_MERGE:     348843
cpu0->cpu0_L1D LOAD         ACCESS:   23264296 HIT:   20172454 MISS:    3091842 MSHR_MERGE:     293036
cpu0->cpu0_L1D RFO          ACCESS:          0 HIT:          0 MISS:          0 MSHR_MERGE:          0
cpu0->cpu0_L1D PREFETCH     ACCESS:   19760594 HIT:   15090445 MISS:    4670149 MSHR_MERGE:      55401
cpu0->cpu0_L1D WRITE        ACCESS:    2476227 HIT:    2476227 MISS:          0 MSHR_MERGE:          0
cpu0->cpu0_L1D TRANSLATION  ACCESS:    4098790 HIT:    2565622 MISS:    1533168 MSHR_MERGE:        406
cpu0->cpu0_L1D PREFETCH REQUESTED:   90385573 ISSUED:   21575509 USEFUL:     881937 USELESS:     406366 LATE:      16346 TOO_EARLY:          0
cpu0->cpu0_L1D AVERAGE MISS LATENCY: 123.9 cycles
cpu0->cpu0_ITLB TOTAL        ACCESS:    5379062 HIT:    5379062 MISS:          0 MSHR_MERGE:          0
cpu0->cpu0_ITLB LOAD         ACCESS:    5379062 HIT:    5379062 MISS:          0 MSHR_MERGE:          0
cpu0->cpu0_ITLB RFO          ACCESS:          0 HIT:          0 MISS:          0 MSHR_MERGE:          0
cpu0->cpu0_ITLB PREFETCH     ACCESS:          0 HIT:          0 MISS:          0 MSHR_MERGE:          0
cpu0->cpu0_ITLB WRITE        ACCESS:          0 HIT:          0 MISS:          0 MSHR_MERGE:          0
cpu0->cpu0_ITLB TRANSLATION  ACCESS:          0 HIT:          0 MISS:          0 MSHR_MERGE:          0
cpu0->cpu0_ITLB PREFETCH REQUESTED:          0 ISSUED:          0 USEFUL:          0 USELESS:          0 LATE:          0 TOO_EARLY:          0
cpu0->cpu0_ITLB AVERAGE MISS LATENCY: - cycles
cpu0->cpu0_DTLB TOTAL        ACCESS:   40233671 HIT:   37990555 MISS:    2243116 MSHR_MERGE:     163970
cpu0->cpu0_DTLB LOAD         ACCESS:   40233671 HIT:   37990555 MISS:    2243116 MSHR_MERGE:     163970
cpu0->cpu0_DTLB RFO          ACCESS:          0 HIT:          0 MISS:          0 MSHR_MERGE:          0
cpu0->cpu0_DTLB PREFETCH     ACCESS:          0 HIT:          0 MISS:          0 MSHR_MERGE:          0
cpu0->cpu0_DTLB WRITE        ACCESS:          0 HIT:          0 MISS:          0 MSHR_MERGE:          0
cpu0->cpu0_DTLB TRANSLATION  ACCESS:          0 HIT:          0 MISS:          0 MSHR_MERGE:          0
cpu0->cpu0_DTLB PREFETCH REQUESTED:          0 ISSUED:          0 USEFUL:          0 USELESS:          0 LATE:          0 TOO_EARLY:          0
cpu0->cpu0_DTLB AVERAGE MISS LATENCY: 49.51 cycles
cpu0->LLC TOTAL        ACCESS:    6178822 HIT:    1146619 MISS:    5032203 MSHR_MERGE:      28295
cpu0->LLC LOAD         ACCESS:    2079814 HIT:     175626 MISS:    1904188 MSHR_MERGE:        279
cpu0->LLC RFO          ACCESS:          0 HIT:          0 MISS:          0 MSHR_MERGE:          0
cpu0->LLC PREFETCH     ACCESS:    2651326 HIT:      38959 MISS:    2612367 MSHR_MERGE:      28016
cpu0->LLC WRITE        ACCESS:     545959 HIT:     110493 MISS:     435466 MSHR_MERGE:          0
cpu0->LLC TRANSLATION  ACCESS:     901723 HIT:     821541 MISS:      80182 MSHR_MERGE:          0
cpu0->LLC PREFETCH REQUESTED:          0 ISSUED:          0 USEFUL:          0 USELESS:          0 LATE:          0 TOO_EARLY:          0
cpu0->LLC AVERAGE MISS LATENCY: 183.5 cycles

DRAM Statistics

Channel 0 RQ ROW_BUFFER_HIT:     196339
  ROW_BUFFER_MISS:    4372034
  AVG DBUS CONGESTED CYCLE: 9.239
Channel 0 WQ ROW_BUFFER_HIT:     172609
  ROW_BUFFER_MISS:     358575
  FULL:          0
Channel 0 REFRESHES ISSUED:      20784

[ROI Statistics]
[System Configuration]
num_cpus 1
cpu_freq 4000
fetch_width 6
decode_width 6
dispatch_width 6
execute_width 6
lq_width 2
sq_width 2
retire_width 6
scheduler_size 128
branch_mispredict_penalty 15
rob_size 352
lq_size 128
sq_size 72
ifetch_buffer_size 64
decode_buffer_size 32
dispatch_buffer_size 32
register_file_size 288
decode_latency 1
dispatch_latency 1
schedule_latency 1
execute_latency 1
page_size 4096
block_size 64
core_0_itlb_set 16
core_0_itlb_way 4
core_0_itlb_rq_size 16
core_0_itlb_wq_size 16
core_0_itlb_pq_size 0
core_0_itlb_mshr_size 8
core_0_itlb_hit_latency 1
core_0_itlb_fill_latency 1
core_0_itlb_max_tag_check 2
core_0_itlb_max_fill 2
core_0_dtlb_set 16
core_0_dtlb_way 4
core_0_dtlb_rq_size 16
core_0_dtlb_wq_size 16
core_0_dtlb_pq_size 0
core_0_dtlb_mshr_size 8
core_0_dtlb_hit_latency 1
core_0_dtlb_fill_latency 1
core_0_dtlb_max_tag_check 2
core_0_dtlb_max_fill 2
core_0_stlb_set 128
core_0_stlb_way 12
core_0_stlb_rq_size 32
core_0_stlb_wq_size 32
core_0_stlb_pq_size 0
core_0_stlb_mshr_size 16
core_0_stlb_hit_latency 4
core_0_stlb_fill_latency 4
core_0_stlb_max_tag_check 1
core_0_stlb_max_fill 1
core_0_l1i_set 64
core_0_l1i_way 8
core_0_l1i_rq_size 64
core_0_l1i_wq_size 64
core_0_l1i_pq_size 32
core_0_l1i_mshr_size 8
core_0_l1i_hit_latency 2
core_0_l1i_fill_latency 2
core_0_l1i_max_tag_check 2
core_0_l1i_max_fill 2
core_0_l1d_set 64
core_0_l1d_way 12
core_0_l1d_rq_size 64
core_0_l1d_wq_size 64
core_0_l1d_pq_size 8
core_0_l1d_mshr_size 16
core_0_l1d_hit_latency 2
core_0_l1d_fill_latency 3
core_0_l1d_max_tag_check 2
core_0_l1d_max_fill 2
core_0_l2c_set 1024
core_0_l2c_way 8
core_0_l2c_rq_size 32
core_0_l2c_wq_size 32
core_0_l2c_pq_size 16
core_0_l2c_mshr_size 32
core_0_l2c_hit_latency 5
core_0_l2c_fill_latency 5
core_0_l2c_max_tag_check 1
core_0_l2c_max_fill 1
llc_set 2048
llc_way 16
llc_rq_size 32
llc_wq_size 32
llc_pq_size 32
llc_mshr_size 64
llc_hit_latency 10
llc_fill_latency 10
llc_max_tag_check 1
llc_max_fill 1
dram_channels 1
dram_ranks 1
dram_bankgroups 8
dram_banks 4
dram_rows 65536
dram_columns 1024
dram_channel_width 8
dram_rq_size 64
dram_wq_size 64
dram_size 17179869184
core_0_itlb_prefetcher no
core_0_dtlb_prefetcher no
core_0_stlb_prefetcher no
core_0_l1i_prefetcher next_line
core_0_l1d_prefetcher vberti
core_0_l2c_prefetcher ip_stride
llc_prefetcher no
llc_replacement drrip

Core_0_instructions 100000005
Core_0_cycles 249408226
Core_0_IPC 0.400949
Core_0_branch_prediction_accuracy 98.2195
Core_0_branch_MPKI 3.27037
Core_0_average_ROB_occupancy_at_mispredict 158.808

Core_0_ITLB_total_access 5379062
Core_0_ITLB_total_hit 5379062
Core_0_ITLB_total_miss 0
Core_0_ITLB_total_MPKI 0
Core_0_ITLB_total_miss_rate 0
Core_0_ITLB_demand_access 5379062
Core_0_ITLB_demand_hit 5379062
Core_0_ITLB_demand_miss 0
Core_0_ITLB_demand_MPKI 0
Core_0_ITLB_demand_miss_rate 0
Core_0_ITLB_load_access 5379062
Core_0_ITLB_load_hit 5379062
Core_0_ITLB_load_miss 0
Core_0_ITLB_load_MPKI 0
Core_0_ITLB_load_miss_rate 0
Core_0_ITLB_rfo_access 0
Core_0_ITLB_rfo_hit 0
Core_0_ITLB_rfo_miss 0
Core_0_ITLB_rfo_MPKI 0
Core_0_ITLB_rfo_miss_rate 0
Core_0_ITLB_prefetch_access 0
Core_0_ITLB_prefetch_hit 0
Core_0_ITLB_prefetch_miss 0
Core_0_ITLB_prefetch_MPKI 0
Core_0_ITLB_prefetch_miss_rate 0
Core_0_ITLB_writeback_access 0
Core_0_ITLB_writeback_hit 0
Core_0_ITLB_writeback_miss 0
Core_0_ITLB_writeback_MPKI 0
Core_0_ITLB_writeback_miss_rate 0
Core_0_ITLB_prefetch_requested 0
Core_0_ITLB_prefetch_issued 0
Core_0_ITLB_prefetch_useful 0
Core_0_ITLB_prefetch_useless 0
Core_0_ITLB_prefetch_late 0
Core_0_ITLB_prefetch_fill 0
Core_0_ITLB_prefetch_too_early 0
Core_0_ITLB_prefetch_too_early_among_fill 0
Core_0_ITLB_prefetch_too_early_among_useless 0
Core_0_ITLB_prefetch_pollution_evict 0
Core_0_ITLB_prefetch_pollution_demand 0
Core_0_ITLB_prefetch_pollution_among_prefetch_fill 0
Core_0_ITLB_prefetch_accuracy 0
Core_0_ITLB_prefetch_coverage 0

Core_0_DTLB_total_access 40233671
Core_0_DTLB_total_hit 37990555
Core_0_DTLB_total_miss 2243116
Core_0_DTLB_total_MPKI 22.4312
Core_0_DTLB_total_miss_rate 0.0557522
Core_0_DTLB_demand_access 40233671
Core_0_DTLB_demand_hit 37990555
Core_0_DTLB_demand_miss 2243116
Core_0_DTLB_demand_MPKI 22.4312
Core_0_DTLB_demand_miss_rate 0.0557522
Core_0_DTLB_load_access 40233671
Core_0_DTLB_load_hit 37990555
Core_0_DTLB_load_miss 2243116
Core_0_DTLB_load_MPKI 22.4312
Core_0_DTLB_load_miss_rate 0.0557522
Core_0_DTLB_rfo_access 0
Core_0_DTLB_rfo_hit 0
Core_0_DTLB_rfo_miss 0
Core_0_DTLB_rfo_MPKI 0
Core_0_DTLB_rfo_miss_rate 0
Core_0_DTLB_prefetch_access 0
Core_0_DTLB_prefetch_hit 0
Core_0_DTLB_prefetch_miss 0
Core_0_DTLB_prefetch_MPKI 0
Core_0_DTLB_prefetch_miss_rate 0
Core_0_DTLB_writeback_access 0
Core_0_DTLB_writeback_hit 0
Core_0_DTLB_writeback_miss 0
Core_0_DTLB_writeback_MPKI 0
Core_0_DTLB_writeback_miss_rate 0
Core_0_DTLB_prefetch_requested 0
Core_0_DTLB_prefetch_issued 0
Core_0_DTLB_prefetch_useful 0
Core_0_DTLB_prefetch_useless 0
Core_0_DTLB_prefetch_late 0
Core_0_DTLB_prefetch_fill 0
Core_0_DTLB_prefetch_too_early 0
Core_0_DTLB_prefetch_too_early_among_fill 0
Core_0_DTLB_prefetch_too_early_among_useless 0
Core_0_DTLB_prefetch_pollution_evict 0
Core_0_DTLB_prefetch_pollution_demand 0
Core_0_DTLB_prefetch_pollution_among_prefetch_fill 0
Core_0_DTLB_prefetch_accuracy 0
Core_0_DTLB_prefetch_coverage 0

Core_0_STLB_total_access 2079147
Core_0_STLB_total_hit 413017
Core_0_STLB_total_miss 1666130
Core_0_STLB_total_MPKI 16.6613
Core_0_STLB_total_miss_rate 0.801353
Core_0_STLB_demand_access 2079147
Core_0_STLB_demand_hit 413017
Core_0_STLB_demand_miss 1666130
Core_0_STLB_demand_MPKI 16.6613
Core_0_STLB_demand_miss_rate 0.801353
Core_0_STLB_load_access 2079147
Core_0_STLB_load_hit 413017
Core_0_STLB_load_miss 1666130
Core_0_STLB_load_MPKI 16.6613
Core_0_STLB_load_miss_rate 0.801353
Core_0_STLB_rfo_access 0
Core_0_STLB_rfo_hit 0
Core_0_STLB_rfo_miss 0
Core_0_STLB_rfo_MPKI 0
Core_0_STLB_rfo_miss_rate 0
Core_0_STLB_prefetch_access 0
Core_0_STLB_prefetch_hit 0
Core_0_STLB_prefetch_miss 0
Core_0_STLB_prefetch_MPKI 0
Core_0_STLB_prefetch_miss_rate 0
Core_0_STLB_writeback_access 0
Core_0_STLB_writeback_hit 0
Core_0_STLB_writeback_miss 0
Core_0_STLB_writeback_MPKI 0
Core_0_STLB_writeback_miss_rate 0
Core_0_STLB_prefetch_requested 0
Core_0_STLB_prefetch_issued 0
Core_0_STLB_prefetch_useful 0
Core_0_STLB_prefetch_useless 0
Core_0_STLB_prefetch_late 0
Core_0_STLB_prefetch_fill 0
Core_0_STLB_prefetch_too_early 0
Core_0_STLB_prefetch_too_early_among_fill 0
Core_0_STLB_prefetch_too_early_among_useless 0
Core_0_STLB_prefetch_pollution_evict 0
Core_0_STLB_prefetch_pollution_demand 0
Core_0_STLB_prefetch_pollution_among_prefetch_fill 0
Core_0_STLB_prefetch_accuracy 0
Core_0_STLB_prefetch_coverage 0

Core_0_L1I_total_access 6289299
Core_0_L1I_total_hit 6289299
Core_0_L1I_total_miss 0
Core_0_L1I_total_MPKI 0
Core_0_L1I_total_miss_rate 0
Core_0_L1I_demand_access 6289299
Core_0_L1I_demand_hit 6289299
Core_0_L1I_demand_miss 0
Core_0_L1I_demand_MPKI 0
Core_0_L1I_demand_miss_rate 0
Core_0_L1I_load_access 6289299
Core_0_L1I_load_hit 6289299
Core_0_L1I_load_miss 0
Core_0_L1I_load_MPKI 0
Core_0_L1I_load_miss_rate 0
Core_0_L1I_rfo_access 0
Core_0_L1I_rfo_hit 0
Core_0_L1I_rfo_miss 0
Core_0_L1I_rfo_MPKI 0
Core_0_L1I_rfo_miss_rate 0
Core_0_L1I_prefetch_access 0
Core_0_L1I_prefetch_hit 0
Core_0_L1I_prefetch_miss 0
Core_0_L1I_prefetch_MPKI 0
Core_0_L1I_prefetch_miss_rate 0
Core_0_L1I_writeback_access 0
Core_0_L1I_writeback_hit 0
Core_0_L1I_writeback_miss 0
Core_0_L1I_writeback_MPKI 0
Core_0_L1I_writeback_miss_rate 0
Core_0_L1I_prefetch_requested 0
Core_0_L1I_prefetch_issued 0
Core_0_L1I_prefetch_useful 0
Core_0_L1I_prefetch_useless 0
Core_0_L1I_prefetch_late 0
Core_0_L1I_prefetch_fill 0
Core_0_L1I_prefetch_too_early 0
Core_0_L1I_prefetch_too_early_among_fill 0
Core_0_L1I_prefetch_too_early_among_useless 0
Core_0_L1I_prefetch_pollution_evict 0
Core_0_L1I_prefetch_pollution_demand 0
Core_0_L1I_prefetch_pollution_among_prefetch_fill 0
Core_0_L1I_prefetch_accuracy 0
Core_0_L1I_prefetch_coverage 0

Core_0_L1D_total_access 45501117
Core_0_L1D_total_hit 37739126
Core_0_L1D_total_miss 7761991
Core_0_L1D_total_MPKI 77.6199
Core_0_L1D_total_miss_rate 0.170589
Core_0_L1D_demand_access 23264296
Core_0_L1D_demand_hit 20172454
Core_0_L1D_demand_miss 3091842
Core_0_L1D_demand_MPKI 30.9184
Core_0_L1D_demand_miss_rate 0.132901
Core_0_L1D_load_access 23264296
Core_0_L1D_load_hit 20172454
Core_0_L1D_load_miss 3091842
Core_0_L1D_load_MPKI 30.9184
Core_0_L1D_load_miss_rate 0.132901
Core_0_L1D_rfo_access 0
Core_0_L1D_rfo_hit 0
Core_0_L1D_rfo_miss 0
Core_0_L1D_rfo_MPKI 0
Core_0_L1D_rfo_miss_rate 0
Core_0_L1D_prefetch_access 19760594
Core_0_L1D_prefetch_hit 15090445
Core_0_L1D_prefetch_miss 4670149
Core_0_L1D_prefetch_MPKI 46.7015
Core_0_L1D_prefetch_miss_rate 0.236336
Core_0_L1D_writeback_access 2476227
Core_0_L1D_writeback_hit 2476227
Core_0_L1D_writeback_miss 0
Core_0_L1D_writeback_MPKI 0
Core_0_L1D_writeback_miss_rate 0
Core_0_L1D_prefetch_requested 90385573
Core_0_L1D_prefetch_issued 21575509
Core_0_L1D_prefetch_useful 881937
Core_0_L1D_prefetch_useless 406366
Core_0_L1D_prefetch_late 16346
Core_0_L1D_prefetch_fill 1272015
Core_0_L1D_prefetch_too_early 0
Core_0_L1D_prefetch_too_early_among_fill 0
Core_0_L1D_prefetch_too_early_among_useless 0
Core_0_L1D_prefetch_pollution_evict 18679
Core_0_L1D_prefetch_pollution_demand 18679
Core_0_L1D_cross_page_pf_translation_only_requested 12333580
Core_0_L1D_cross_page_pf_translation_only_issued 1814915
Core_0_L1D_cross_page_pf_translation_only_dropped 1814915
Core_0_L1D_prefetch_pollution_among_prefetch_fill 0.0146846
Core_0_L1D_prefetch_accuracy 0.0408768
Core_0_L1D_prefetch_coverage 0.221939

Core_0_L2C_total_access 10222605
Core_0_L2C_total_hit 4190114
Core_0_L2C_total_miss 6032491
Core_0_L2C_total_MPKI 60.3249
Core_0_L2C_total_miss_rate 0.590113
Core_0_L2C_demand_access 2798805
Core_0_L2C_demand_hit 646076
Core_0_L2C_demand_miss 2152729
Core_0_L2C_demand_MPKI 21.5273
Core_0_L2C_demand_miss_rate 0.76916
Core_0_L2C_load_access 2798805
Core_0_L2C_load_hit 646076
Core_0_L2C_load_miss 2152729
Core_0_L2C_load_MPKI 21.5273
Core_0_L2C_load_miss_rate 0.76916
Core_0_L2C_rfo_access 0
Core_0_L2C_rfo_hit 0
Core_0_L2C_rfo_miss 0
Core_0_L2C_rfo_MPKI 0
Core_0_L2C_rfo_miss_rate 0
Core_0_L2C_prefetch_access 6872444
Core_0_L2C_prefetch_hit 2992774
Core_0_L2C_prefetch_miss 3879670
Core_0_L2C_prefetch_MPKI 38.7967
Core_0_L2C_prefetch_miss_rate 0.564526
Core_0_L2C_writeback_access 551356
Core_0_L2C_writeback_hit 551264
Core_0_L2C_writeback_miss 92
Core_0_L2C_writeback_MPKI 0.00092
Core_0_L2C_writeback_miss_rate 0.000166861
Core_0_L2C_prefetch_requested 2276784
Core_0_L2C_prefetch_issued 2276108
Core_0_L2C_prefetch_useful 501711
Core_0_L2C_prefetch_useless 198381
Core_0_L2C_prefetch_late 37351
Core_0_L2C_prefetch_fill 2515089
Core_0_L2C_prefetch_too_early 0
Core_0_L2C_prefetch_too_early_among_fill 0
Core_0_L2C_prefetch_too_early_among_useless 0
Core_0_L2C_prefetch_pollution_evict 40921
Core_0_L2C_prefetch_pollution_demand 40921
Core_0_L2C_prefetch_pollution_among_prefetch_fill 0.0162702
Core_0_L2C_prefetch_accuracy 0.220425
Core_0_L2C_prefetch_coverage 0.189008

Core_0_LLC_total_access 5277099
Core_0_LLC_total_hit 325078
Core_0_LLC_total_miss 4952021
Core_0_LLC_total_MPKI 49.5202
Core_0_LLC_total_miss_rate 0.938398
Core_0_LLC_demand_access 2079814
Core_0_LLC_demand_hit 175626
Core_0_LLC_demand_miss 1904188
Core_0_LLC_demand_MPKI 19.0419
Core_0_LLC_demand_miss_rate 0.915557
Core_0_LLC_load_access 2079814
Core_0_LLC_load_hit 175626
Core_0_LLC_load_miss 1904188
Core_0_LLC_load_MPKI 19.0419
Core_0_LLC_load_miss_rate 0.915557
Core_0_LLC_rfo_access 0
Core_0_LLC_rfo_hit 0
Core_0_LLC_rfo_miss 0
Core_0_LLC_rfo_MPKI 0
Core_0_LLC_rfo_miss_rate 0
Core_0_LLC_prefetch_access 2651326
Core_0_LLC_prefetch_hit 38959
Core_0_LLC_prefetch_miss 2612367
Core_0_LLC_prefetch_MPKI 26.1237
Core_0_LLC_prefetch_miss_rate 0.985306
Core_0_LLC_writeback_access 545959
Core_0_LLC_writeback_hit 110493
Core_0_LLC_writeback_miss 435466
Core_0_LLC_writeback_MPKI 4.35466
Core_0_LLC_writeback_miss_rate 0.797617
Core_0_LLC_prefetch_requested 0
Core_0_LLC_prefetch_issued 0
Core_0_LLC_prefetch_useful 0
Core_0_LLC_prefetch_useless 0
Core_0_LLC_prefetch_late 0
Core_0_LLC_prefetch_fill 2584071
Core_0_LLC_prefetch_too_early 0
Core_0_LLC_prefetch_too_early_among_fill 0
Core_0_LLC_prefetch_too_early_among_useless 0
Core_0_LLC_prefetch_pollution_evict 49791
Core_0_LLC_prefetch_pollution_demand 49791
Core_0_LLC_prefetch_pollution_among_prefetch_fill 0.0192684
Core_0_LLC_prefetch_accuracy 0
Core_0_LLC_prefetch_coverage 0

[DRAM Statistics]
Channel_0_RQ_row_buffer_hit 196339
Channel_0_RQ_row_buffer_miss 4372034
Channel_0_WQ_row_buffer_hit 172609
Channel_0_WQ_row_buffer_miss 358575
Channel_0_WQ_full 0
Channel_0_dbus_congested 12344708
DRAM_total_RQ_row_buffer_hit 196339
DRAM_total_RQ_row_buffer_miss 4372034
DRAM_total_WQ_row_buffer_hit 172609
DRAM_total_WQ_row_buffer_miss 358575
DRAM_total_WQ_full 0
DRAM_total_dbus_congested 12344708
DRAM_avg_congested_cycle 9.23878

====== DRAM_RQ_TRAFFIC ========
DRAM_RQ_READ_TRAFFIC_BREAKDOWN:
data_demand_read.count = 1903909
data_demand_read.share = 41.68%

inst_demand_read.count = 0
inst_demand_read.share = 0.00%

cache_inst_prefetch.count = 0
cache_inst_prefetch.share = 0.00%

cache_data_prefetch.count = 2584351
cache_data_prefetch.share = 56.57%

stlb_data_demand.count = 74100
stlb_data_demand.share = 1.62%

stlb_inst_demand.count = 0
stlb_inst_demand.share = 0.00%

stlb_l1i_pref.count = 0
stlb_l1i_pref.share = 0.00%

stlb_l1d_pref.count = 6082
stlb_l1d_pref.share = 0.13%

DRAM_RQ_READ_TRAFFIC_SUMMARY:
cache_demand.count = 1903909
cache_demand.share = 41.68%

cache_prefetch.count = 2584351
cache_prefetch.share = 56.57%

stlb_demand.count = 74100
stlb_demand.share = 1.62%

stlb_prefetch.count = 6082
stlb_prefetch.share = 0.13%

DRAM_RQ_READ_TRAFFIC_DEBUG:
total_classified_read.count = 4568442
unclassified_read.count = 0
total_read_with_other.count = 4568442

classified_plus_unclassified_check.count = 4568442
dram_rq_read_total_observed.count = 4568442
dram_rq_read_total_observed.per_1K_instructions = 45.6844

STLB_MISS_PTW_DRAM_TOUCH_BREAKDOWN:
stlb_miss_total.count = 1666130

stlb_miss_touch_dram.count = 80133
stlb_miss_touch_dram.share = 4.81%

stlb_miss_no_dram_touch.count = 1585997
stlb_miss_no_dram_touch.share = 95.19%

STLB_MISS_PTW_DRAM_TOUCH_DEBUG:
stlb_miss_touch_plus_no_touch.count = 1666130
stlb_miss_total_check.count = 1666130

======STLB miss causes ========
Core_0_STLB_miss_cause_breakdown
Core_0_STLB_cause_Demand_Data_miss 1617785
Core_0_STLB_cause_Demand_Data_miss_rate 0.7781
Core_0_STLB_cause_Demand_Instruction_miss 0
Core_0_STLB_cause_Demand_Instruction_miss_rate 0
Core_0_STLB_cause_L1D_Prefetch_miss 48345
Core_0_STLB_cause_L1D_Prefetch_miss_rate 0.0232523
Core_0_STLB_cause_L1D_Prefetch_Same_Page_miss 0
Core_0_STLB_cause_L1D_Prefetch_Same_Page_miss_rate 0
Core_0_STLB_cause_L1D_Prefetch_Cross_Page_miss 48345
Core_0_STLB_cause_L1D_Prefetch_Cross_Page_miss_rate 0.0232523
Core_0_STLB_cause_L1I_Prefetch_miss 0
Core_0_STLB_cause_L1I_Prefetch_miss_rate 0
Core_0_STLB_cause_Other_miss 0
Core_0_STLB_cause_Other_miss_rate 0
Core_0_STLB_Demand_miss 1617785
Core_0_STLB_Demand_miss_rate 0.7781
Core_0_STLB_L1D_Prefetch_miss 48345
Core_0_STLB_L1D_Prefetch_miss_rate 0.0232523
Core_0_STLB_Other_miss 0
Core_0_STLB_Other_miss_rate 0

========== vBerti-TLB Cross-page Flow Stats ==========

Core_0_vBerti_Requested 90385573
Core_0_vBerti_Cross_page_prefetch_in_Requested 12333580
Core_0_vBerti_Same_page_prefetch_in_Requested 78051993
Core_0_vBerti_Cross_page_prefetch_of_Requested 0.136455
Core_0_vBerti_Issued 21575509
Core_0_vBerti_InPQ_Same_page_prefetch 19760594
Core_0_vBerti_InPQ_Cross_page_prefetch 1814915
Core_0_vBerti_PQ_Drop_Rate 0.761295
Core_0_vBerti_InPQ_Cross_page_prefetch_of_Requested 0.0200797
Core_0_vBerti_Cross_page_PQ_Drop_rate 0.852848
Core_0_vBerti_Cross_page_prefetch_of_Issued 0.0841192
Core_0_CP_PF_PQFULL_drop 10518665
Core_0_CP_PF_PQFULL_TLB_rescue_enqueued 0
Core_0_CP_PF_PQFULL_TLB_rescue_issued 0
Core_0_CP_PF_PQFULL_TLB_rescue_translated 0

========= DTLB_vBerti Prefetch Stats =========
Core_0_DTLB_demand_access 24554819
Core_0_DTLB_demand_hit 22479266
Core_0_DTLB_demand_miss 2075553
Core_0_DTLB_demand_mshr_merge 47310
Core_0_DTLB_demand_fill 2030737
Core_0_DTLB_demand_miss_rate 0.0845273
Core_0_DTLB_demand_mpki 20.7555
Core_0_DTLB_vberti_prefetch_access 15678852
Core_0_DTLB_vberti_prefetch_hit 15511289
Core_0_DTLB_vberti_prefetch_miss 167563
Core_0_DTLB_vberti_prefetch_mshr_merge 116660
Core_0_DTLB_vberti_prefetch_fill 48411
Core_0_DTLB_vberti_prefetch_miss_rate 0.0106872
Core_0_DTLB_vberti_prefetch_mpki 1.67563

=== DTLB_vBerti Same/Cross-page Prefetch Stats ===
Core_0_DTLB_vberti_same_page_prefetch 14388786
Core_0_DTLB_vberti_same_page_prefetch_hit 14388782
Core_0_DTLB_vberti_same_page_prefetch_miss 4
Core_0_DTLB_vberti_same_page_prefetch_mshr_merge 2
Core_0_DTLB_vberti_same_page_prefetch_fill 2
Core_0_DTLB_vberti_same_page_prefetch_miss_rate 2.77994e-07
Core_0_DTLB_vberti_same_page_prefetch_mpki 4e-05
Core_0_DTLB_vberti_cross_page_prefetch 1290066
Core_0_DTLB_vberti_cross_page_prefetch_hit 1122507
Core_0_DTLB_vberti_cross_page_prefetch_miss 167559
Core_0_DTLB_vberti_cross_page_prefetch_mshr_merge 116658
Core_0_DTLB_vberti_cross_page_prefetch_fill 48409
Core_0_DTLB_vberti_cross_page_prefetch_miss_rate 0.129884
Core_0_DTLB_vberti_cross_page_prefetch_mpki 1.67559
Core_0_DTLB_same_page_prefetch_miss_rate 2.77994e-07
Core_0_DTLB_same_page_prefetch_mpki 4e-05
Core_0_DTLB_cross_page_prefetch_miss_rate 0.129884
Core_0_DTLB_cross_page_prefetch_mpki 1.67559
Core_0_DTLB_cross_page_prefetch_issued 1290066
Core_0_DTLB_cross_page_prefetch_lookups 1290066
Core_0_DTLB_cross_page_prefetch_useful 47836
Core_0_DTLB_cross_page_prefetch_useless 3065
Core_0_DTLB_cross_page_prefetch_late 2492
Core_0_DTLB_cross_page_prefetch_too_early 202
Core_0_DTLB_cross_page_prefetch_too_early_among_fill 0.00417278
Core_0_DTLB_cross_page_prefetch_too_early_among_useless 0.0659054
Core_0_DTLB_cross_page_prefetch_pollution_evict 11594
Core_0_DTLB_cross_page_prefetch_pollution_demand 11538
Core_0_DTLB_cross_page_prefetch_pollution_among_prefetch_fill 0.239501
Core_0_DTLB_cross_page_prefetch_accuracy 0.0370803
Core_0_DTLB_cross_page_prefetch_coverage 0.0225281

========= STLB_vBerti Prefetch Stats =========
Core_0_STLB_demand_access 2028244
Core_0_STLB_demand_hit 410459
Core_0_STLB_demand_miss 1617785
Core_0_STLB_demand_mshr_merge 0
Core_0_STLB_demand_fill 1617786
Core_0_STLB_demand_miss_rate 0.797628
Core_0_STLB_demand_mpki 16.1778
Core_0_STLB_vberti_prefetch_access 50903
Core_0_STLB_vberti_prefetch_hit 2558
Core_0_STLB_vberti_prefetch_miss 48345
Core_0_STLB_vberti_prefetch_mshr_merge 0
Core_0_STLB_vberti_prefetch_fill 48345
Core_0_STLB_vberti_prefetch_miss_rate 0.949748
Core_0_STLB_vberti_prefetch_mpki 0.48345

=== STLB_vBerti Same/Cross-page Prefetch Stats ===
Core_0_STLB_vberti_same_page_prefetch 2
Core_0_STLB_vberti_same_page_prefetch_hit 2
Core_0_STLB_vberti_same_page_prefetch_miss 0
Core_0_STLB_vberti_same_page_prefetch_mshr_merge 0
Core_0_STLB_vberti_same_page_prefetch_fill 0
Core_0_STLB_vberti_same_page_prefetch_miss_rate 0
Core_0_STLB_vberti_same_page_prefetch_mpki 0
Core_0_STLB_vberti_cross_page_prefetch 50901
Core_0_STLB_vberti_cross_page_prefetch_hit 2556
Core_0_STLB_vberti_cross_page_prefetch_miss 48345
Core_0_STLB_vberti_cross_page_prefetch_mshr_merge 0
Core_0_STLB_vberti_cross_page_prefetch_fill 48345
Core_0_STLB_vberti_cross_page_prefetch_miss_rate 0.949785
Core_0_STLB_vberti_cross_page_prefetch_mpki 0.48345
Core_0_STLB_same_page_prefetch_miss_rate 0
Core_0_STLB_same_page_prefetch_mpki 0
Core_0_STLB_cross_page_prefetch_miss_rate 0.949785
Core_0_STLB_cross_page_prefetch_mpki 0.48345
Core_0_STLB_cross_page_prefetch_issued 50901
Core_0_STLB_cross_page_prefetch_lookups 50901
Core_0_STLB_cross_page_prefetch_useful 1236
Core_0_STLB_cross_page_prefetch_useless 47109
Core_0_STLB_cross_page_prefetch_late 0
Core_0_STLB_cross_page_prefetch_too_early 263
Core_0_STLB_cross_page_prefetch_too_early_among_fill 0.00544007
Core_0_STLB_cross_page_prefetch_too_early_among_useless 0.0055828
Core_0_STLB_cross_page_prefetch_pollution_evict 36460
Core_0_STLB_cross_page_prefetch_pollution_demand 36430
Core_0_STLB_cross_page_prefetch_pollution_among_prefetch_fill 0.754163
Core_0_STLB_cross_page_prefetch_accuracy 0.0242824
Core_0_STLB_cross_page_prefetch_coverage 0.000763424

========= STLB Cross-page Prefetch Buffer Stats =========
Core_0_STLB_raw_demand_miss 1617785
Core_0_CP_PB_insert 0
Core_0_CP_PB_demand_hit 0
Core_0_STLB_PB_demand_miss 1617785
Core_0_CP_PB_coverage 0
Core_0_STLB_raw_demand_mpki 16.1778
Core_0_STLB_PB_demand_mpki 16.1778
Core_0_CP_PB_demand_hit_mpki 0

Core_0_TLB_demand_miss_rate 0.0658846
Core_0_TLB_demand_mpki 16.1778
Core_0_TLB_same_page_prefetch_miss_rate 0
Core_0_TLB_same_page_prefetch_mpki 0
Core_0_TLB_cross_page_prefetch_miss_rate 0.0374748
Core_0_TLB_cross_page_prefetch_mpki 0.48345
Core_0_TLB_cross_page_prefetch_issued 1290066
Core_0_TLB_cross_page_prefetch_lookups 1290066
Core_0_TLB_cross_page_prefetch_useful 47829
Core_0_TLB_cross_page_prefetch_useless 3065
Core_0_TLB_cross_page_prefetch_late 2492
Core_0_TLB_cross_page_prefetch_too_early 202
Core_0_TLB_cross_page_prefetch_too_early_among_fill 0.00208777
Core_0_TLB_cross_page_prefetch_too_early_among_useless 0.0659054
Core_0_TLB_cross_page_prefetch_accuracy 0.0370748
Core_0_TLB_cross_page_prefetch_coverage 0.0287155
====== vBerti internal metric ========
Core_0_vBerti_end_to_end_issued 19760594
Core_0_vBerti_end_to_end_useful 931033
Core_0_vBerti_end_to_end_late 49641
Core_0_vBerti_end_to_end_accuracy 0.0471156
Core_0_vBerti_end_to_end_timely_accuracy 0.0446035
BERTI TO_L1: 60072993 TO_L2: 17979000 TO_L2_BC_MSHR: 486346
BERTI AVG_LAT: 176.577 NUM_TRACK_LATENCY: 4075525 NUM_CANT_TRACK_LATENCY: 0
BERTI CROSS_PAGE 12333580 NO_CROSS_PAGE: 78051993
BERTI FOUND_BERTI: 15435796 NO_FOUND_BERTI: 10422012
BERTI AVERAGE_ISSUED: 3.61561
