[VMEM] WARNING: physical memory size is smaller than virtual memory size.

*** ChampSim Multicore Out-of-Order Simulator ***
Warmup Instructions: 50000000
Simulation Instructions: 100000000
Number of CPUs: 1
Page size: 4096
Core 0: /data2/zcq/champsim_traces_gap/cc.web-101B.champsimtrace.xz
VBerti Prefetcher
BERTI HASH ENTANGLING
BERTI IP MASK ffff
Off-chip DRAM Size: 16 GiB Channels: 1 Width: 64-bit Data Rate: 3205 MT/s
Warmup halting CPU 0 at instruction 50000004 cycle 17707444 for remainder of phase
Warmup finished CPU 0 instructions: 50000004 cycles: 17707444 cumulative IPC: 2.824 (Simulation time: 00 hr 03 min 50 sec)
Warmup complete CPU 0 instructions: 50000004 cycles: 17707444 cumulative IPC: 2.824 (Simulation time: 00 hr 03 min 50 sec)
Simulation finished CPU 0 instructions: 100000000 cycles: 174141891 cumulative IPC: 0.5742 (Simulation time: 00 hr 20 min 46 sec)
Simulation complete CPU 0 instructions: 100000000 cycles: 174141891 cumulative IPC: 0.5742 (Simulation time: 00 hr 20 min 46 sec)

ChampSim completed all CPUs

=== Simulation ===
CPU 0 runs /data2/zcq/champsim_traces_gap/cc.web-101B.champsimtrace.xz

Region of Interest Statistics

CPU 0 cumulative IPC: 0.5742 instructions: 100000000 cycles: 174141891
CPU 0 Branch Prediction Accuracy: 94.38% MPKI: 9.172 Average ROB Occupancy at Mispredict: 45.16
Branch type MPKI
BRANCH_DIRECT_JUMP: 0
BRANCH_INDIRECT: 0
BRANCH_CONDITIONAL: 9.172
BRANCH_DIRECT_CALL: 0
BRANCH_INDIRECT_CALL: 0
BRANCH_RETURN: 0

cpu0->cpu0_STLB TOTAL        ACCESS:     170883 HIT:      37058 MISS:     133825 MSHR_MERGE:          0
cpu0->cpu0_STLB LOAD         ACCESS:     170883 HIT:      37058 MISS:     133825 MSHR_MERGE:          0
cpu0->cpu0_STLB RFO          ACCESS:          0 HIT:          0 MISS:          0 MSHR_MERGE:          0
cpu0->cpu0_STLB PREFETCH     ACCESS:          0 HIT:          0 MISS:          0 MSHR_MERGE:          0
cpu0->cpu0_STLB WRITE        ACCESS:          0 HIT:          0 MISS:          0 MSHR_MERGE:          0
cpu0->cpu0_STLB TRANSLATION  ACCESS:          0 HIT:          0 MISS:          0 MSHR_MERGE:          0
cpu0->cpu0_STLB PREFETCH REQUESTED:          0 ISSUED:          0 USEFUL:          0 USELESS:          0 LATE:          0 TOO_EARLY:          0
cpu0->cpu0_STLB AVERAGE MISS LATENCY: 245.1 cycles
cpu0->cpu0_L2C TOTAL        ACCESS:    9122336 HIT:    2651527 MISS:    6470809 MSHR_MERGE:    1949853
cpu0->cpu0_L2C LOAD         ACCESS:    1809426 HIT:     581158 MISS:    1228268 MSHR_MERGE:     220720
cpu0->cpu0_L2C RFO          ACCESS:          0 HIT:          0 MISS:          0 MSHR_MERGE:          0
cpu0->cpu0_L2C PREFETCH     ACCESS:    7236965 HIT:    2020768 MISS:    5216197 MSHR_MERGE:    1729133
cpu0->cpu0_L2C WRITE        ACCESS:      44703 HIT:      44491 MISS:        212 MSHR_MERGE:          0
cpu0->cpu0_L2C TRANSLATION  ACCESS:      31242 HIT:       5110 MISS:      26132 MSHR_MERGE:          0
cpu0->cpu0_L2C PREFETCH REQUESTED:    2775979 ISSUED:    2773176 USEFUL:     473695 USELESS:     464107 LATE:     100374 TOO_EARLY:        256
cpu0->cpu0_L2C AVERAGE MISS LATENCY: 208 cycles
cpu0->cpu0_L1I TOTAL        ACCESS:    6771764 HIT:    6771764 MISS:          0 MSHR_MERGE:          0
cpu0->cpu0_L1I LOAD         ACCESS:    6771764 HIT:    6771764 MISS:          0 MSHR_MERGE:          0
cpu0->cpu0_L1I RFO          ACCESS:          0 HIT:          0 MISS:          0 MSHR_MERGE:          0
cpu0->cpu0_L1I PREFETCH     ACCESS:          0 HIT:          0 MISS:          0 MSHR_MERGE:          0
cpu0->cpu0_L1I WRITE        ACCESS:          0 HIT:          0 MISS:          0 MSHR_MERGE:          0
cpu0->cpu0_L1I TRANSLATION  ACCESS:          0 HIT:          0 MISS:          0 MSHR_MERGE:          0
cpu0->cpu0_L1I PREFETCH REQUESTED:          0 ISSUED:          0 USEFUL:          0 USELESS:          0 LATE:          0 TOO_EARLY:          0
cpu0->cpu0_L1I AVERAGE MISS LATENCY: - cycles
cpu0->cpu0_L1D TOTAL        ACCESS:   44797300 HIT:   38236922 MISS:    6560378 MSHR_MERGE:     234666
cpu0->cpu0_L1D LOAD         ACCESS:   24109857 HIT:   22108477 MISS:    2001380 MSHR_MERGE:     191954
cpu0->cpu0_L1D RFO          ACCESS:          0 HIT:          0 MISS:          0 MSHR_MERGE:          0
cpu0->cpu0_L1D PREFETCH     ACCESS:   20328257 HIT:   15801641 MISS:    4526616 MSHR_MERGE:      41572
cpu0->cpu0_L1D WRITE        ACCESS:      90224 HIT:      90224 MISS:          0 MSHR_MERGE:          0
cpu0->cpu0_L1D TRANSLATION  ACCESS:     268962 HIT:     236580 MISS:      32382 MSHR_MERGE:       1140
cpu0->cpu0_L1D PREFETCH REQUESTED:   95544917 ISSUED:   23955624 USEFUL:    1330949 USELESS:     353452 LATE:      98493 TOO_EARLY:        158
cpu0->cpu0_L1D AVERAGE MISS LATENCY: 148.3 cycles
cpu0->cpu0_ITLB TOTAL        ACCESS:    5570218 HIT:    5570218 MISS:          0 MSHR_MERGE:          0
cpu0->cpu0_ITLB LOAD         ACCESS:    5570218 HIT:    5570218 MISS:          0 MSHR_MERGE:          0
cpu0->cpu0_ITLB RFO          ACCESS:          0 HIT:          0 MISS:          0 MSHR_MERGE:          0
cpu0->cpu0_ITLB PREFETCH     ACCESS:          0 HIT:          0 MISS:          0 MSHR_MERGE:          0
cpu0->cpu0_ITLB WRITE        ACCESS:          0 HIT:          0 MISS:          0 MSHR_MERGE:          0
cpu0->cpu0_ITLB TRANSLATION  ACCESS:          0 HIT:          0 MISS:          0 MSHR_MERGE:          0
cpu0->cpu0_ITLB PREFETCH REQUESTED:          0 ISSUED:          0 USEFUL:          0 USELESS:          0 LATE:          0 TOO_EARLY:          0
cpu0->cpu0_ITLB AVERAGE MISS LATENCY: - cycles
cpu0->cpu0_DTLB TOTAL        ACCESS:   39735938 HIT:   38994965 MISS:     740973 MSHR_MERGE:     570090
cpu0->cpu0_DTLB LOAD         ACCESS:   39735938 HIT:   38994965 MISS:     740973 MSHR_MERGE:     570090
cpu0->cpu0_DTLB RFO          ACCESS:          0 HIT:          0 MISS:          0 MSHR_MERGE:          0
cpu0->cpu0_DTLB PREFETCH     ACCESS:          0 HIT:          0 MISS:          0 MSHR_MERGE:          0
cpu0->cpu0_DTLB WRITE        ACCESS:          0 HIT:          0 MISS:          0 MSHR_MERGE:          0
cpu0->cpu0_DTLB TRANSLATION  ACCESS:          0 HIT:          0 MISS:          0 MSHR_MERGE:          0
cpu0->cpu0_DTLB PREFETCH REQUESTED:          0 ISSUED:          0 USEFUL:          0 USELESS:          0 LATE:          0 TOO_EARLY:          0
cpu0->cpu0_DTLB AVERAGE MISS LATENCY: 197.8 cycles
cpu0->LLC TOTAL        ACCESS:    4562954 HIT:     116088 MISS:    4446866 MSHR_MERGE:     170281
cpu0->LLC LOAD         ACCESS:    1007548 HIT:      37488 MISS:     970060 MSHR_MERGE:      14371
cpu0->LLC RFO          ACCESS:          0 HIT:          0 MISS:          0 MSHR_MERGE:          0
cpu0->LLC PREFETCH     ACCESS:    3487060 HIT:      59156 MISS:    3427904 MSHR_MERGE:     155910
cpu0->LLC WRITE        ACCESS:      42214 HIT:      16810 MISS:      25404 MSHR_MERGE:          0
cpu0->LLC TRANSLATION  ACCESS:      26132 HIT:       2634 MISS:      23498 MSHR_MERGE:          0
cpu0->LLC PREFETCH REQUESTED:          0 ISSUED:          0 USEFUL:          0 USELESS:          0 LATE:          0 TOO_EARLY:          0
cpu0->LLC AVERAGE MISS LATENCY: 209 cycles

DRAM Statistics

Channel 0 RQ ROW_BUFFER_HIT:     942157
  ROW_BUFFER_MISS:    3309004
  AVG DBUS CONGESTED CYCLE: 6.416
Channel 0 WQ ROW_BUFFER_HIT:      11653
  ROW_BUFFER_MISS:      29455
  FULL:          0
Channel 0 REFRESHES ISSUED:      14512

[ROI Statistics]
[System Configuration]
num_cpus 1
cpu_freq 4000
fetch_width 6
decode_width 6
dispatch_width 6
execute_width 6
lq_width 2
sq_width 2
retire_width 6
scheduler_size 128
branch_mispredict_penalty 15
rob_size 352
lq_size 128
sq_size 72
ifetch_buffer_size 64
decode_buffer_size 32
dispatch_buffer_size 32
register_file_size 288
decode_latency 1
dispatch_latency 1
schedule_latency 1
execute_latency 1
page_size 4096
block_size 64
core_0_itlb_set 16
core_0_itlb_way 4
core_0_itlb_rq_size 16
core_0_itlb_wq_size 16
core_0_itlb_pq_size 0
core_0_itlb_mshr_size 8
core_0_itlb_hit_latency 1
core_0_itlb_fill_latency 1
core_0_itlb_max_tag_check 2
core_0_itlb_max_fill 2
core_0_dtlb_set 16
core_0_dtlb_way 4
core_0_dtlb_rq_size 16
core_0_dtlb_wq_size 16
core_0_dtlb_pq_size 0
core_0_dtlb_mshr_size 8
core_0_dtlb_hit_latency 1
core_0_dtlb_fill_latency 1
core_0_dtlb_max_tag_check 2
core_0_dtlb_max_fill 2
core_0_stlb_set 128
core_0_stlb_way 12
core_0_stlb_rq_size 32
core_0_stlb_wq_size 32
core_0_stlb_pq_size 0
core_0_stlb_mshr_size 16
core_0_stlb_hit_latency 4
core_0_stlb_fill_latency 4
core_0_stlb_max_tag_check 1
core_0_stlb_max_fill 1
core_0_l1i_set 64
core_0_l1i_way 8
core_0_l1i_rq_size 64
core_0_l1i_wq_size 64
core_0_l1i_pq_size 32
core_0_l1i_mshr_size 8
core_0_l1i_hit_latency 2
core_0_l1i_fill_latency 2
core_0_l1i_max_tag_check 2
core_0_l1i_max_fill 2
core_0_l1d_set 64
core_0_l1d_way 12
core_0_l1d_rq_size 64
core_0_l1d_wq_size 64
core_0_l1d_pq_size 8
core_0_l1d_mshr_size 16
core_0_l1d_hit_latency 2
core_0_l1d_fill_latency 3
core_0_l1d_max_tag_check 2
core_0_l1d_max_fill 2
core_0_l2c_set 1024
core_0_l2c_way 8
core_0_l2c_rq_size 32
core_0_l2c_wq_size 32
core_0_l2c_pq_size 16
core_0_l2c_mshr_size 32
core_0_l2c_hit_latency 5
core_0_l2c_fill_latency 5
core_0_l2c_max_tag_check 1
core_0_l2c_max_fill 1
llc_set 2048
llc_way 16
llc_rq_size 32
llc_wq_size 32
llc_pq_size 32
llc_mshr_size 64
llc_hit_latency 10
llc_fill_latency 10
llc_max_tag_check 1
llc_max_fill 1
dram_channels 1
dram_ranks 1
dram_bankgroups 8
dram_banks 4
dram_rows 65536
dram_columns 1024
dram_channel_width 8
dram_rq_size 64
dram_wq_size 64
dram_size 17179869184
core_0_itlb_prefetcher no
core_0_dtlb_prefetcher no
core_0_stlb_prefetcher no
core_0_l1i_prefetcher next_line
core_0_l1d_prefetcher vberti
core_0_l2c_prefetcher ip_stride
llc_prefetcher no
llc_replacement drrip

Core_0_instructions 100000000
Core_0_cycles 174141891
Core_0_IPC 0.574244
Core_0_branch_prediction_accuracy 94.385
Core_0_branch_MPKI 9.17233
Core_0_average_ROB_occupancy_at_mispredict 45.1641

Core_0_ITLB_total_access 5570218
Core_0_ITLB_total_hit 5570218
Core_0_ITLB_total_miss 0
Core_0_ITLB_total_MPKI 0
Core_0_ITLB_total_miss_rate 0
Core_0_ITLB_demand_access 5570218
Core_0_ITLB_demand_hit 5570218
Core_0_ITLB_demand_miss 0
Core_0_ITLB_demand_MPKI 0
Core_0_ITLB_demand_miss_rate 0
Core_0_ITLB_load_access 5570218
Core_0_ITLB_load_hit 5570218
Core_0_ITLB_load_miss 0
Core_0_ITLB_load_MPKI 0
Core_0_ITLB_load_miss_rate 0
Core_0_ITLB_rfo_access 0
Core_0_ITLB_rfo_hit 0
Core_0_ITLB_rfo_miss 0
Core_0_ITLB_rfo_MPKI 0
Core_0_ITLB_rfo_miss_rate 0
Core_0_ITLB_prefetch_access 0
Core_0_ITLB_prefetch_hit 0
Core_0_ITLB_prefetch_miss 0
Core_0_ITLB_prefetch_MPKI 0
Core_0_ITLB_prefetch_miss_rate 0
Core_0_ITLB_writeback_access 0
Core_0_ITLB_writeback_hit 0
Core_0_ITLB_writeback_miss 0
Core_0_ITLB_writeback_MPKI 0
Core_0_ITLB_writeback_miss_rate 0
Core_0_ITLB_prefetch_requested 0
Core_0_ITLB_prefetch_issued 0
Core_0_ITLB_prefetch_useful 0
Core_0_ITLB_prefetch_useless 0
Core_0_ITLB_prefetch_late 0
Core_0_ITLB_prefetch_fill 0
Core_0_ITLB_prefetch_too_early 0
Core_0_ITLB_prefetch_too_early_among_fill 0
Core_0_ITLB_prefetch_too_early_among_useless 0
Core_0_ITLB_prefetch_pollution_evict 0
Core_0_ITLB_prefetch_pollution_demand 0
Core_0_ITLB_prefetch_pollution_among_prefetch_fill 0
Core_0_ITLB_prefetch_accuracy 0
Core_0_ITLB_prefetch_coverage 0

Core_0_DTLB_total_access 39735938
Core_0_DTLB_total_hit 38994965
Core_0_DTLB_total_miss 740973
Core_0_DTLB_total_MPKI 7.40973
Core_0_DTLB_total_miss_rate 0.0186474
Core_0_DTLB_demand_access 39735938
Core_0_DTLB_demand_hit 38994965
Core_0_DTLB_demand_miss 740973
Core_0_DTLB_demand_MPKI 7.40973
Core_0_DTLB_demand_miss_rate 0.0186474
Core_0_DTLB_load_access 39735938
Core_0_DTLB_load_hit 38994965
Core_0_DTLB_load_miss 740973
Core_0_DTLB_load_MPKI 7.40973
Core_0_DTLB_load_miss_rate 0.0186474
Core_0_DTLB_rfo_access 0
Core_0_DTLB_rfo_hit 0
Core_0_DTLB_rfo_miss 0
Core_0_DTLB_rfo_MPKI 0
Core_0_DTLB_rfo_miss_rate 0
Core_0_DTLB_prefetch_access 0
Core_0_DTLB_prefetch_hit 0
Core_0_DTLB_prefetch_miss 0
Core_0_DTLB_prefetch_MPKI 0
Core_0_DTLB_prefetch_miss_rate 0
Core_0_DTLB_writeback_access 0
Core_0_DTLB_writeback_hit 0
Core_0_DTLB_writeback_miss 0
Core_0_DTLB_writeback_MPKI 0
Core_0_DTLB_writeback_miss_rate 0
Core_0_DTLB_prefetch_requested 0
Core_0_DTLB_prefetch_issued 0
Core_0_DTLB_prefetch_useful 0
Core_0_DTLB_prefetch_useless 0
Core_0_DTLB_prefetch_late 0
Core_0_DTLB_prefetch_fill 0
Core_0_DTLB_prefetch_too_early 0
Core_0_DTLB_prefetch_too_early_among_fill 0
Core_0_DTLB_prefetch_too_early_among_useless 0
Core_0_DTLB_prefetch_pollution_evict 0
Core_0_DTLB_prefetch_pollution_demand 0
Core_0_DTLB_prefetch_pollution_among_prefetch_fill 0
Core_0_DTLB_prefetch_accuracy 0
Core_0_DTLB_prefetch_coverage 0

Core_0_STLB_total_access 170883
Core_0_STLB_total_hit 37058
Core_0_STLB_total_miss 133825
Core_0_STLB_total_MPKI 1.33825
Core_0_STLB_total_miss_rate 0.783138
Core_0_STLB_demand_access 170883
Core_0_STLB_demand_hit 37058
Core_0_STLB_demand_miss 133825
Core_0_STLB_demand_MPKI 1.33825
Core_0_STLB_demand_miss_rate 0.783138
Core_0_STLB_load_access 170883
Core_0_STLB_load_hit 37058
Core_0_STLB_load_miss 133825
Core_0_STLB_load_MPKI 1.33825
Core_0_STLB_load_miss_rate 0.783138
Core_0_STLB_rfo_access 0
Core_0_STLB_rfo_hit 0
Core_0_STLB_rfo_miss 0
Core_0_STLB_rfo_MPKI 0
Core_0_STLB_rfo_miss_rate 0
Core_0_STLB_prefetch_access 0
Core_0_STLB_prefetch_hit 0
Core_0_STLB_prefetch_miss 0
Core_0_STLB_prefetch_MPKI 0
Core_0_STLB_prefetch_miss_rate 0
Core_0_STLB_writeback_access 0
Core_0_STLB_writeback_hit 0
Core_0_STLB_writeback_miss 0
Core_0_STLB_writeback_MPKI 0
Core_0_STLB_writeback_miss_rate 0
Core_0_STLB_prefetch_requested 0
Core_0_STLB_prefetch_issued 0
Core_0_STLB_prefetch_useful 0
Core_0_STLB_prefetch_useless 0
Core_0_STLB_prefetch_late 0
Core_0_STLB_prefetch_fill 0
Core_0_STLB_prefetch_too_early 0
Core_0_STLB_prefetch_too_early_among_fill 0
Core_0_STLB_prefetch_too_early_among_useless 0
Core_0_STLB_prefetch_pollution_evict 0
Core_0_STLB_prefetch_pollution_demand 0
Core_0_STLB_prefetch_pollution_among_prefetch_fill 0
Core_0_STLB_prefetch_accuracy 0
Core_0_STLB_prefetch_coverage 0

Core_0_L1I_total_access 6771764
Core_0_L1I_total_hit 6771764
Core_0_L1I_total_miss 0
Core_0_L1I_total_MPKI 0
Core_0_L1I_total_miss_rate 0
Core_0_L1I_demand_access 6771764
Core_0_L1I_demand_hit 6771764
Core_0_L1I_demand_miss 0
Core_0_L1I_demand_MPKI 0
Core_0_L1I_demand_miss_rate 0
Core_0_L1I_load_access 6771764
Core_0_L1I_load_hit 6771764
Core_0_L1I_load_miss 0
Core_0_L1I_load_MPKI 0
Core_0_L1I_load_miss_rate 0
Core_0_L1I_rfo_access 0
Core_0_L1I_rfo_hit 0
Core_0_L1I_rfo_miss 0
Core_0_L1I_rfo_MPKI 0
Core_0_L1I_rfo_miss_rate 0
Core_0_L1I_prefetch_access 0
Core_0_L1I_prefetch_hit 0
Core_0_L1I_prefetch_miss 0
Core_0_L1I_prefetch_MPKI 0
Core_0_L1I_prefetch_miss_rate 0
Core_0_L1I_writeback_access 0
Core_0_L1I_writeback_hit 0
Core_0_L1I_writeback_miss 0
Core_0_L1I_writeback_MPKI 0
Core_0_L1I_writeback_miss_rate 0
Core_0_L1I_prefetch_requested 0
Core_0_L1I_prefetch_issued 0
Core_0_L1I_prefetch_useful 0
Core_0_L1I_prefetch_useless 0
Core_0_L1I_prefetch_late 0
Core_0_L1I_prefetch_fill 0
Core_0_L1I_prefetch_too_early 0
Core_0_L1I_prefetch_too_early_among_fill 0
Core_0_L1I_prefetch_too_early_among_useless 0
Core_0_L1I_prefetch_pollution_evict 0
Core_0_L1I_prefetch_pollution_demand 0
Core_0_L1I_prefetch_pollution_among_prefetch_fill 0
Core_0_L1I_prefetch_accuracy 0
Core_0_L1I_prefetch_coverage 0

Core_0_L1D_total_access 44528338
Core_0_L1D_total_hit 38000342
Core_0_L1D_total_miss 6527996
Core_0_L1D_total_MPKI 65.28
Core_0_L1D_total_miss_rate 0.146603
Core_0_L1D_demand_access 24109857
Core_0_L1D_demand_hit 22108477
Core_0_L1D_demand_miss 2001380
Core_0_L1D_demand_MPKI 20.0138
Core_0_L1D_demand_miss_rate 0.0830109
Core_0_L1D_load_access 24109857
Core_0_L1D_load_hit 22108477
Core_0_L1D_load_miss 2001380
Core_0_L1D_load_MPKI 20.0138
Core_0_L1D_load_miss_rate 0.0830109
Core_0_L1D_rfo_access 0
Core_0_L1D_rfo_hit 0
Core_0_L1D_rfo_miss 0
Core_0_L1D_rfo_MPKI 0
Core_0_L1D_rfo_miss_rate 0
Core_0_L1D_prefetch_access 20328257
Core_0_L1D_prefetch_hit 15801641
Core_0_L1D_prefetch_miss 4526616
Core_0_L1D_prefetch_MPKI 45.2662
Core_0_L1D_prefetch_miss_rate 0.222676
Core_0_L1D_writeback_access 90224
Core_0_L1D_writeback_hit 90224
Core_0_L1D_writeback_miss 0
Core_0_L1D_writeback_MPKI 0
Core_0_L1D_writeback_miss_rate 0
Core_0_L1D_prefetch_requested 95544917
Core_0_L1D_prefetch_issued 23955624
Core_0_L1D_prefetch_useful 1330949
Core_0_L1D_prefetch_useless 353452
Core_0_L1D_prefetch_late 98493
Core_0_L1D_prefetch_fill 1585946
Core_0_L1D_prefetch_too_early 158
Core_0_L1D_prefetch_too_early_among_fill 9.96251e-05
Core_0_L1D_prefetch_too_early_among_useless 0.00044702
Core_0_L1D_prefetch_pollution_evict 33677
Core_0_L1D_prefetch_pollution_demand 33652
Core_0_L1D_cross_page_pf_translation_only_requested 16598871
Core_0_L1D_cross_page_pf_translation_only_issued 3627375
Core_0_L1D_cross_page_pf_translation_only_dropped 3627375
Core_0_L1D_prefetch_pollution_among_prefetch_fill 0.0212346
Core_0_L1D_prefetch_accuracy 0.0555589
Core_0_L1D_prefetch_coverage 0.399405

Core_0_L2C_total_access 9091094
Core_0_L2C_total_hit 2646417
Core_0_L2C_total_miss 6444677
Core_0_L2C_total_MPKI 64.4468
Core_0_L2C_total_miss_rate 0.7089
Core_0_L2C_demand_access 1809426
Core_0_L2C_demand_hit 581158
Core_0_L2C_demand_miss 1228268
Core_0_L2C_demand_MPKI 12.2827
Core_0_L2C_demand_miss_rate 0.678816
Core_0_L2C_load_access 1809426
Core_0_L2C_load_hit 581158
Core_0_L2C_load_miss 1228268
Core_0_L2C_load_MPKI 12.2827
Core_0_L2C_load_miss_rate 0.678816
Core_0_L2C_rfo_access 0
Core_0_L2C_rfo_hit 0
Core_0_L2C_rfo_miss 0
Core_0_L2C_rfo_MPKI 0
Core_0_L2C_rfo_miss_rate 0
Core_0_L2C_prefetch_access 7236965
Core_0_L2C_prefetch_hit 2020768
Core_0_L2C_prefetch_miss 5216197
Core_0_L2C_prefetch_MPKI 52.162
Core_0_L2C_prefetch_miss_rate 0.720771
Core_0_L2C_writeback_access 44703
Core_0_L2C_writeback_hit 44491
Core_0_L2C_writeback_miss 212
Core_0_L2C_writeback_MPKI 0.00212
Core_0_L2C_writeback_miss_rate 0.00474241
Core_0_L2C_prefetch_requested 2775979
Core_0_L2C_prefetch_issued 2773176
Core_0_L2C_prefetch_useful 473695
Core_0_L2C_prefetch_useless 464107
Core_0_L2C_prefetch_late 100374
Core_0_L2C_prefetch_fill 2990987
Core_0_L2C_prefetch_too_early 256
Core_0_L2C_prefetch_too_early_among_fill 8.55905e-05
Core_0_L2C_prefetch_too_early_among_useless 0.000551597
Core_0_L2C_prefetch_pollution_evict 23815
Core_0_L2C_prefetch_pollution_demand 23720
Core_0_L2C_prefetch_pollution_among_prefetch_fill 0.00796225
Core_0_L2C_prefetch_accuracy 0.170813
Core_0_L2C_prefetch_coverage 0.278323

Core_0_LLC_total_access 4536822
Core_0_LLC_total_hit 113454
Core_0_LLC_total_miss 4423368
Core_0_LLC_total_MPKI 44.2337
Core_0_LLC_total_miss_rate 0.974993
Core_0_LLC_demand_access 1007548
Core_0_LLC_demand_hit 37488
Core_0_LLC_demand_miss 970060
Core_0_LLC_demand_MPKI 9.7006
Core_0_LLC_demand_miss_rate 0.962793
Core_0_LLC_load_access 1007548
Core_0_LLC_load_hit 37488
Core_0_LLC_load_miss 970060
Core_0_LLC_load_MPKI 9.7006
Core_0_LLC_load_miss_rate 0.962793
Core_0_LLC_rfo_access 0
Core_0_LLC_rfo_hit 0
Core_0_LLC_rfo_miss 0
Core_0_LLC_rfo_MPKI 0
Core_0_LLC_rfo_miss_rate 0
Core_0_LLC_prefetch_access 3487060
Core_0_LLC_prefetch_hit 59156
Core_0_LLC_prefetch_miss 3427904
Core_0_LLC_prefetch_MPKI 34.279
Core_0_LLC_prefetch_miss_rate 0.983036
Core_0_LLC_writeback_access 42214
Core_0_LLC_writeback_hit 16810
Core_0_LLC_writeback_miss 25404
Core_0_LLC_writeback_MPKI 0.25404
Core_0_LLC_writeback_miss_rate 0.601791
Core_0_LLC_prefetch_requested 0
Core_0_LLC_prefetch_issued 0
Core_0_LLC_prefetch_useful 0
Core_0_LLC_prefetch_useless 0
Core_0_LLC_prefetch_late 0
Core_0_LLC_prefetch_fill 3257606
Core_0_LLC_prefetch_too_early 0
Core_0_LLC_prefetch_too_early_among_fill 0
Core_0_LLC_prefetch_too_early_among_useless 0
Core_0_LLC_prefetch_pollution_evict 14535
Core_0_LLC_prefetch_pollution_demand 14535
Core_0_LLC_prefetch_pollution_among_prefetch_fill 0.00446187
Core_0_LLC_prefetch_accuracy 0
Core_0_LLC_prefetch_coverage 0

[DRAM Statistics]
Channel_0_RQ_row_buffer_hit 942157
Channel_0_RQ_row_buffer_miss 3309004
Channel_0_WQ_row_buffer_hit 11653
Channel_0_WQ_row_buffer_miss 29455
Channel_0_WQ_full 0
Channel_0_dbus_congested 10294810
DRAM_total_RQ_row_buffer_hit 942157
DRAM_total_RQ_row_buffer_miss 3309004
DRAM_total_WQ_row_buffer_hit 11653
DRAM_total_WQ_row_buffer_miss 29455
DRAM_total_WQ_full 0
DRAM_total_dbus_congested 10294810
DRAM_avg_congested_cycle 6.41612

====== DRAM_RQ_TRAFFIC ========
DRAM_RQ_READ_TRAFFIC_BREAKDOWN:
data_demand_read.count = 955689
data_demand_read.share = 22.48%

inst_demand_read.count = 0
inst_demand_read.share = 0.00%

cache_inst_prefetch.count = 0
cache_inst_prefetch.share = 0.00%

cache_data_prefetch.count = 3271994
cache_data_prefetch.share = 76.97%

stlb_data_demand.count = 10149
stlb_data_demand.share = 0.24%

stlb_inst_demand.count = 0
stlb_inst_demand.share = 0.00%

stlb_l1i_pref.count = 0
stlb_l1i_pref.share = 0.00%

stlb_l1d_pref.count = 13349
stlb_l1d_pref.share = 0.31%

DRAM_RQ_READ_TRAFFIC_SUMMARY:
cache_demand.count = 955689
cache_demand.share = 22.48%

cache_prefetch.count = 3271994
cache_prefetch.share = 76.97%

stlb_demand.count = 10149
stlb_demand.share = 0.24%

stlb_prefetch.count = 13349
stlb_prefetch.share = 0.31%

DRAM_RQ_READ_TRAFFIC_DEBUG:
total_classified_read.count = 4251181
unclassified_read.count = 0
total_read_with_other.count = 4251181

classified_plus_unclassified_check.count = 4251181
dram_rq_read_total_observed.count = 4251181
dram_rq_read_total_observed.per_1K_instructions = 42.5118

STLB_MISS_PTW_DRAM_TOUCH_BREAKDOWN:
stlb_miss_total.count = 133825

stlb_miss_touch_dram.count = 23242
stlb_miss_touch_dram.share = 17.37%

stlb_miss_no_dram_touch.count = 110583
stlb_miss_no_dram_touch.share = 82.63%

STLB_MISS_PTW_DRAM_TOUCH_DEBUG:
stlb_miss_touch_plus_no_touch.count = 133825
stlb_miss_total_check.count = 133825

======STLB miss causes ========
Core_0_STLB_miss_cause_breakdown
Core_0_STLB_cause_Demand_Data_miss 28243
Core_0_STLB_cause_Demand_Data_miss_rate 0.165277
Core_0_STLB_cause_Demand_Instruction_miss 0
Core_0_STLB_cause_Demand_Instruction_miss_rate 0
Core_0_STLB_cause_L1D_Prefetch_miss 105582
Core_0_STLB_cause_L1D_Prefetch_miss_rate 0.617861
Core_0_STLB_cause_L1D_Prefetch_Same_Page_miss 0
Core_0_STLB_cause_L1D_Prefetch_Same_Page_miss_rate 0
Core_0_STLB_cause_L1D_Prefetch_Cross_Page_miss 105582
Core_0_STLB_cause_L1D_Prefetch_Cross_Page_miss_rate 0.617861
Core_0_STLB_cause_L1I_Prefetch_miss 0
Core_0_STLB_cause_L1I_Prefetch_miss_rate 0
Core_0_STLB_cause_Other_miss 0
Core_0_STLB_cause_Other_miss_rate 0
Core_0_STLB_Demand_miss 28243
Core_0_STLB_Demand_miss_rate 0.165277
Core_0_STLB_L1D_Prefetch_miss 105582
Core_0_STLB_L1D_Prefetch_miss_rate 0.617861
Core_0_STLB_Other_miss 0
Core_0_STLB_Other_miss_rate 0

========== vBerti-TLB Cross-page Flow Stats ==========

Core_0_vBerti_Requested 95544917
Core_0_vBerti_Cross_page_prefetch_in_Requested 16598871
Core_0_vBerti_Same_page_prefetch_in_Requested 78946046
Core_0_vBerti_Cross_page_prefetch_of_Requested 0.173728
Core_0_vBerti_Issued 23955624
Core_0_vBerti_InPQ_Same_page_prefetch 20328249
Core_0_vBerti_InPQ_Cross_page_prefetch 3627375
Core_0_vBerti_PQ_Drop_Rate 0.749274
Core_0_vBerti_InPQ_Cross_page_prefetch_of_Requested 0.0379651
Core_0_vBerti_Cross_page_PQ_Drop_rate 0.781469
Core_0_vBerti_Cross_page_prefetch_of_Issued 0.151421
Core_0_CP_PF_PQFULL_drop 12971496
Core_0_CP_PF_PQFULL_TLB_rescue_enqueued 0
Core_0_CP_PF_PQFULL_TLB_rescue_issued 0
Core_0_CP_PF_PQFULL_TLB_rescue_translated 0

========= DTLB_vBerti Prefetch Stats =========
Core_0_DTLB_demand_access 23381641
Core_0_DTLB_demand_hit 23211910
Core_0_DTLB_demand_miss 169731
Core_0_DTLB_demand_mshr_merge 105555
Core_0_DTLB_demand_fill 77622
Core_0_DTLB_demand_miss_rate 0.00725916
Core_0_DTLB_demand_mpki 1.69731
Core_0_DTLB_vberti_prefetch_access 16354297
Core_0_DTLB_vberti_prefetch_hit 15783055
Core_0_DTLB_vberti_prefetch_miss 571242
Core_0_DTLB_vberti_prefetch_mshr_merge 464535
Core_0_DTLB_vberti_prefetch_fill 93261
Core_0_DTLB_vberti_prefetch_miss_rate 0.0349292
Core_0_DTLB_vberti_prefetch_mpki 5.71242

=== DTLB_vBerti Same/Cross-page Prefetch Stats ===
Core_0_DTLB_vberti_same_page_prefetch 13829841
Core_0_DTLB_vberti_same_page_prefetch_hit 13829819
Core_0_DTLB_vberti_same_page_prefetch_miss 22
Core_0_DTLB_vberti_same_page_prefetch_mshr_merge 12
Core_0_DTLB_vberti_same_page_prefetch_fill 6
Core_0_DTLB_vberti_same_page_prefetch_miss_rate 1.59076e-06
Core_0_DTLB_vberti_same_page_prefetch_mpki 0.00022
Core_0_DTLB_vberti_cross_page_prefetch 2524456
Core_0_DTLB_vberti_cross_page_prefetch_hit 1953236
Core_0_DTLB_vberti_cross_page_prefetch_miss 571220
Core_0_DTLB_vberti_cross_page_prefetch_mshr_merge 464523
Core_0_DTLB_vberti_cross_page_prefetch_fill 93255
Core_0_DTLB_vberti_cross_page_prefetch_miss_rate 0.226274
Core_0_DTLB_vberti_cross_page_prefetch_mpki 5.7122
Core_0_DTLB_same_page_prefetch_miss_rate 1.59076e-06
Core_0_DTLB_same_page_prefetch_mpki 0.00022
Core_0_DTLB_cross_page_prefetch_miss_rate 0.226274
Core_0_DTLB_cross_page_prefetch_mpki 5.7122
Core_0_DTLB_cross_page_prefetch_issued 2524456
Core_0_DTLB_cross_page_prefetch_lookups 2524456
Core_0_DTLB_cross_page_prefetch_useful 105867
Core_0_DTLB_cross_page_prefetch_useless 830
Core_0_DTLB_cross_page_prefetch_late 13442
Core_0_DTLB_cross_page_prefetch_too_early 40
Core_0_DTLB_cross_page_prefetch_too_early_among_fill 0.000428931
Core_0_DTLB_cross_page_prefetch_too_early_among_useless 0.0481928
Core_0_DTLB_cross_page_prefetch_pollution_evict 9594
Core_0_DTLB_cross_page_prefetch_pollution_demand 9371
Core_0_DTLB_cross_page_prefetch_pollution_among_prefetch_fill 0.102879
Core_0_DTLB_cross_page_prefetch_accuracy 0.0419366
Core_0_DTLB_cross_page_prefetch_coverage 0.384136

========= STLB_vBerti Prefetch Stats =========
Core_0_STLB_demand_access 64176
Core_0_STLB_demand_hit 35933
Core_0_STLB_demand_miss 28243
Core_0_STLB_demand_mshr_merge 0
Core_0_STLB_demand_fill 28243
Core_0_STLB_demand_miss_rate 0.440087
Core_0_STLB_demand_mpki 0.28243
Core_0_STLB_vberti_prefetch_access 106707
Core_0_STLB_vberti_prefetch_hit 1125
Core_0_STLB_vberti_prefetch_miss 105582
Core_0_STLB_vberti_prefetch_mshr_merge 0
Core_0_STLB_vberti_prefetch_fill 105582
Core_0_STLB_vberti_prefetch_miss_rate 0.989457
Core_0_STLB_vberti_prefetch_mpki 1.05582

=== STLB_vBerti Same/Cross-page Prefetch Stats ===
Core_0_STLB_vberti_same_page_prefetch 10
Core_0_STLB_vberti_same_page_prefetch_hit 10
Core_0_STLB_vberti_same_page_prefetch_miss 0
Core_0_STLB_vberti_same_page_prefetch_mshr_merge 0
Core_0_STLB_vberti_same_page_prefetch_fill 0
Core_0_STLB_vberti_same_page_prefetch_miss_rate 0
Core_0_STLB_vberti_same_page_prefetch_mpki 0
Core_0_STLB_vberti_cross_page_prefetch 106697
Core_0_STLB_vberti_cross_page_prefetch_hit 1115
Core_0_STLB_vberti_cross_page_prefetch_miss 105582
Core_0_STLB_vberti_cross_page_prefetch_mshr_merge 0
Core_0_STLB_vberti_cross_page_prefetch_fill 105582
Core_0_STLB_vberti_cross_page_prefetch_miss_rate 0.98955
Core_0_STLB_vberti_cross_page_prefetch_mpki 1.05582
Core_0_STLB_same_page_prefetch_miss_rate 0
Core_0_STLB_same_page_prefetch_mpki 0
Core_0_STLB_cross_page_prefetch_miss_rate 0.98955
Core_0_STLB_cross_page_prefetch_mpki 1.05582
Core_0_STLB_cross_page_prefetch_issued 106697
Core_0_STLB_cross_page_prefetch_lookups 106697
Core_0_STLB_cross_page_prefetch_useful 577
Core_0_STLB_cross_page_prefetch_useless 105005
Core_0_STLB_cross_page_prefetch_late 0
Core_0_STLB_cross_page_prefetch_too_early 36
Core_0_STLB_cross_page_prefetch_too_early_among_fill 0.000340967
Core_0_STLB_cross_page_prefetch_too_early_among_useless 0.000342841
Core_0_STLB_cross_page_prefetch_pollution_evict 1582
Core_0_STLB_cross_page_prefetch_pollution_demand 1530
Core_0_STLB_cross_page_prefetch_pollution_among_prefetch_fill 0.0149836
Core_0_STLB_cross_page_prefetch_accuracy 0.00540784
Core_0_STLB_cross_page_prefetch_coverage 0.0200208

========= STLB Cross-page Prefetch Buffer Stats =========
Core_0_STLB_raw_demand_miss 28243
Core_0_CP_PB_insert 0
Core_0_CP_PB_demand_hit 0
Core_0_STLB_PB_demand_miss 28243
Core_0_CP_PB_coverage 0
Core_0_STLB_raw_demand_mpki 0.28243
Core_0_STLB_PB_demand_mpki 0.28243
Core_0_CP_PB_demand_hit_mpki 0

Core_0_TLB_demand_miss_rate 0.00120791
Core_0_TLB_demand_mpki 0.28243
Core_0_TLB_same_page_prefetch_miss_rate 0
Core_0_TLB_same_page_prefetch_mpki 0
Core_0_TLB_cross_page_prefetch_miss_rate 0.0418237
Core_0_TLB_cross_page_prefetch_mpki 1.05582
Core_0_TLB_cross_page_prefetch_issued 2524456
Core_0_TLB_cross_page_prefetch_lookups 2524456
Core_0_TLB_cross_page_prefetch_useful 105854
Core_0_TLB_cross_page_prefetch_useless 802
Core_0_TLB_cross_page_prefetch_late 13442
Core_0_TLB_cross_page_prefetch_too_early 31
Core_0_TLB_cross_page_prefetch_too_early_among_fill 0.000155907
Core_0_TLB_cross_page_prefetch_too_early_among_useless 0.0386534
Core_0_TLB_cross_page_prefetch_accuracy 0.0419314
Core_0_TLB_cross_page_prefetch_coverage 0.789384
====== vBerti internal metric ========
Core_0_vBerti_end_to_end_issued 20328249
Core_0_vBerti_end_to_end_useful 1179104
Core_0_vBerti_end_to_end_late 184049
Core_0_vBerti_end_to_end_accuracy 0.0580032
Core_0_vBerti_end_to_end_timely_accuracy 0.0489494
BERTI TO_L1: 59699510 TO_L2: 19246536 TO_L2_BC_MSHR: 3453282
BERTI AVG_LAT: 165.467 NUM_TRACK_LATENCY: 3484494 NUM_CANT_TRACK_LATENCY: 0
BERTI CROSS_PAGE 16598871 NO_CROSS_PAGE: 78946046
BERTI FOUND_BERTI: 14850015 NO_FOUND_BERTI: 9688938
BERTI AVERAGE_ISSUED: 3.67737
