[VMEM] WARNING: physical memory size is smaller than virtual memory size.

*** ChampSim Multicore Out-of-Order Simulator ***
Warmup Instructions: 50000000
Simulation Instructions: 100000000
Number of CPUs: 1
Page size: 4096
Core 0: /data0/tzh/champsim_traces/QMM/compute_int_14_new.xz
VBerti Prefetcher
BERTI HASH ENTANGLING
BERTI IP MASK ffff
Off-chip DRAM Size: 16 GiB Channels: 1 Width: 64-bit Data Rate: 3205 MT/s
*** Reached end of trace: (0, "/data0/tzh/champsim_traces/QMM/compute_int_14_new.xz")
[BTB] WARNING: target of return is a lower address than the corresponding call. This is usually a problem with your trace.
[BTB] WARNING: target of return is a lower address than the corresponding call. This is usually a problem with your trace.
[BTB] WARNING: target of return is a lower address than the corresponding call. This is usually a problem with your trace.
Warmup halting CPU 0 at instruction 50000005 cycle 11239937 for remainder of phase
Warmup finished CPU 0 instructions: 50000005 cycles: 11239937 cumulative IPC: 4.448 (Simulation time: 00 hr 01 min 56 sec)
Warmup complete CPU 0 instructions: 50000005 cycles: 11239937 cumulative IPC: 4.448 (Simulation time: 00 hr 01 min 56 sec)
*** Reached end of trace: (0, "/data0/tzh/champsim_traces/QMM/compute_int_14_new.xz")
[BTB] WARNING: target of return is a lower address than the corresponding call. This is usually a problem with your trace.
[BTB] WARNING: target of return is a lower address than the corresponding call. This is usually a problem with your trace.
[BTB] WARNING: target of return is a lower address than the corresponding call. This is usually a problem with your trace.
*** Reached end of trace: (0, "/data0/tzh/champsim_traces/QMM/compute_int_14_new.xz")
[BTB] WARNING: target of return is a lower address than the corresponding call. This is usually a problem with your trace.
[BTB] WARNING: target of return is a lower address than the corresponding call. This is usually a problem with your trace.
[BTB] WARNING: target of return is a lower address than the corresponding call. This is usually a problem with your trace.
*** Reached end of trace: (0, "/data0/tzh/champsim_traces/QMM/compute_int_14_new.xz")
[BTB] WARNING: target of return is a lower address than the corresponding call. This is usually a problem with your trace.
Simulation finished CPU 0 instructions: 100000001 cycles: 55903534 cumulative IPC: 1.789 (Simulation time: 00 hr 10 min 17 sec)
Simulation complete CPU 0 instructions: 100000001 cycles: 55903534 cumulative IPC: 1.789 (Simulation time: 00 hr 10 min 17 sec)

ChampSim completed all CPUs

=== Simulation ===
CPU 0 runs /data0/tzh/champsim_traces/QMM/compute_int_14_new.xz

Region of Interest Statistics

CPU 0 cumulative IPC: 1.789 instructions: 100000001 cycles: 55903534
CPU 0 Branch Prediction Accuracy: 99.8% MPKI: 0.5748 Average ROB Occupancy at Mispredict: 172.1
Branch type MPKI
BRANCH_DIRECT_JUMP: 0
BRANCH_INDIRECT: 0.00279
BRANCH_CONDITIONAL: 0.5606
BRANCH_DIRECT_CALL: 0
BRANCH_INDIRECT_CALL: 0.01126
BRANCH_RETURN: 9e-05

cpu0->cpu0_STLB TOTAL        ACCESS:     583074 HIT:      25827 MISS:     557247 MSHR_MERGE:          0
cpu0->cpu0_STLB LOAD         ACCESS:     583074 HIT:      25827 MISS:     557247 MSHR_MERGE:          0
cpu0->cpu0_STLB RFO          ACCESS:          0 HIT:          0 MISS:          0 MSHR_MERGE:          0
cpu0->cpu0_STLB PREFETCH     ACCESS:          0 HIT:          0 MISS:          0 MSHR_MERGE:          0
cpu0->cpu0_STLB WRITE        ACCESS:          0 HIT:          0 MISS:          0 MSHR_MERGE:          0
cpu0->cpu0_STLB TRANSLATION  ACCESS:          0 HIT:          0 MISS:          0 MSHR_MERGE:          0
cpu0->cpu0_STLB PREFETCH REQUESTED:          0 ISSUED:          0 USEFUL:          0 USELESS:          0 LATE:          0 TOO_EARLY:          0
cpu0->cpu0_STLB AVERAGE MISS LATENCY: 46.12 cycles
cpu0->cpu0_L2C TOTAL        ACCESS:    3491562 HIT:     919873 MISS:    2571689 MSHR_MERGE:     167915
cpu0->cpu0_L2C LOAD         ACCESS:    1828001 HIT:      91598 MISS:    1736403 MSHR_MERGE:      37753
cpu0->cpu0_L2C RFO          ACCESS:      22268 HIT:       2284 MISS:      19984 MSHR_MERGE:        336
cpu0->cpu0_L2C PREFETCH     ACCESS:    1463250 HIT:     775784 MISS:     687466 MSHR_MERGE:     129826
cpu0->cpu0_L2C WRITE        ACCESS:      35018 HIT:      35014 MISS:          4 MSHR_MERGE:          0
cpu0->cpu0_L2C TRANSLATION  ACCESS:     143025 HIT:      15193 MISS:     127832 MSHR_MERGE:          0
cpu0->cpu0_L2C PREFETCH REQUESTED:     545958 ISSUED:     533887 USEFUL:     163651 USELESS:       7893 LATE:       9400 TOO_EARLY:        222
cpu0->cpu0_L2C AVERAGE MISS LATENCY: 144.6 cycles
cpu0->cpu0_L1I TOTAL        ACCESS:    7429091 HIT:    7412981 MISS:      16110 MSHR_MERGE:       6079
cpu0->cpu0_L1I LOAD         ACCESS:    7429091 HIT:    7412981 MISS:      16110 MSHR_MERGE:       6079
cpu0->cpu0_L1I RFO          ACCESS:          0 HIT:          0 MISS:          0 MSHR_MERGE:          0
cpu0->cpu0_L1I PREFETCH     ACCESS:          0 HIT:          0 MISS:          0 MSHR_MERGE:          0
cpu0->cpu0_L1I WRITE        ACCESS:          0 HIT:          0 MISS:          0 MSHR_MERGE:          0
cpu0->cpu0_L1I TRANSLATION  ACCESS:          0 HIT:          0 MISS:          0 MSHR_MERGE:          0
cpu0->cpu0_L1I PREFETCH REQUESTED:          0 ISSUED:          0 USEFUL:          0 USELESS:          0 LATE:          0 TOO_EARLY:          0
cpu0->cpu0_L1I AVERAGE MISS LATENCY: 112.3 cycles
cpu0->cpu0_L1D TOTAL        ACCESS:   22754740 HIT:   19688816 MISS:    3065924 MSHR_MERGE:     140461
cpu0->cpu0_L1D LOAD         ACCESS:    9667186 HIT:    7805442 MISS:    1861744 MSHR_MERGE:      43774
cpu0->cpu0_L1D RFO          ACCESS:          0 HIT:          0 MISS:          0 MSHR_MERGE:          0
cpu0->cpu0_L1D PREFETCH     ACCESS:    9219115 HIT:    8267406 MISS:     951709 MSHR_MERGE:       9509
cpu0->cpu0_L1D WRITE        ACCESS:    2811831 HIT:    2770742 MISS:      41089 MSHR_MERGE:      18821
cpu0->cpu0_L1D TRANSLATION  ACCESS:    1056608 HIT:     845226 MISS:     211382 MSHR_MERGE:      68357
cpu0->cpu0_L1D PREFETCH REQUESTED:   34067880 ISSUED:    9735567 USEFUL:     228845 USELESS:       7669 LATE:       5138 TOO_EARLY:        228
cpu0->cpu0_L1D AVERAGE MISS LATENCY: 146 cycles
cpu0->cpu0_ITLB TOTAL        ACCESS:    5390081 HIT:    5386279 MISS:       3802 MSHR_MERGE:       2443
cpu0->cpu0_ITLB LOAD         ACCESS:    5390081 HIT:    5386279 MISS:       3802 MSHR_MERGE:       2443
cpu0->cpu0_ITLB RFO          ACCESS:          0 HIT:          0 MISS:          0 MSHR_MERGE:          0
cpu0->cpu0_ITLB PREFETCH     ACCESS:          0 HIT:          0 MISS:          0 MSHR_MERGE:          0
cpu0->cpu0_ITLB WRITE        ACCESS:          0 HIT:          0 MISS:          0 MSHR_MERGE:          0
cpu0->cpu0_ITLB TRANSLATION  ACCESS:          0 HIT:          0 MISS:          0 MSHR_MERGE:          0
cpu0->cpu0_ITLB PREFETCH REQUESTED:          0 ISSUED:          0 USEFUL:          0 USELESS:          0 LATE:          0 TOO_EARLY:          0
cpu0->cpu0_ITLB AVERAGE MISS LATENCY: 101.8 cycles
cpu0->cpu0_DTLB TOTAL        ACCESS:   17395205 HIT:   16584156 MISS:     811049 MSHR_MERGE:     229335
cpu0->cpu0_DTLB LOAD         ACCESS:   17395205 HIT:   16584156 MISS:     811049 MSHR_MERGE:     229335
cpu0->cpu0_DTLB RFO          ACCESS:          0 HIT:          0 MISS:          0 MSHR_MERGE:          0
cpu0->cpu0_DTLB PREFETCH     ACCESS:          0 HIT:          0 MISS:          0 MSHR_MERGE:          0
cpu0->cpu0_DTLB WRITE        ACCESS:          0 HIT:          0 MISS:          0 MSHR_MERGE:          0
cpu0->cpu0_DTLB TRANSLATION  ACCESS:          0 HIT:          0 MISS:          0 MSHR_MERGE:          0
cpu0->cpu0_DTLB PREFETCH REQUESTED:          0 ISSUED:          0 USEFUL:          0 USELESS:          0 LATE:          0 TOO_EARLY:          0
cpu0->cpu0_DTLB AVERAGE MISS LATENCY: 49.92 cycles
cpu0->LLC TOTAL        ACCESS:    2436662 HIT:    1232240 MISS:    1204422 MSHR_MERGE:       4765
cpu0->LLC LOAD         ACCESS:    1698650 HIT:     782324 MISS:     916326 MSHR_MERGE:        693
cpu0->LLC RFO          ACCESS:      19648 HIT:       8183 MISS:      11465 MSHR_MERGE:         21
cpu0->LLC PREFETCH     ACCESS:     557638 HIT:     324428 MISS:     233210 MSHR_MERGE:       4051
cpu0->LLC WRITE        ACCESS:      32894 HIT:      20346 MISS:      12548 MSHR_MERGE:          0
cpu0->LLC TRANSLATION  ACCESS:     127832 HIT:      96959 MISS:      30873 MSHR_MERGE:          0
cpu0->LLC PREFETCH REQUESTED:          0 ISSUED:          0 USEFUL:          0 USELESS:          0 LATE:          0 TOO_EARLY:          0
cpu0->LLC AVERAGE MISS LATENCY: 245.6 cycles

DRAM Statistics

Channel 0 RQ ROW_BUFFER_HIT:       4281
  ROW_BUFFER_MISS:    1182629
  AVG DBUS CONGESTED CYCLE: 3.272
Channel 0 WQ ROW_BUFFER_HIT:       2279
  ROW_BUFFER_MISS:      17270
  FULL:          0
Channel 0 REFRESHES ISSUED:       4659

[ROI Statistics]
[System Configuration]
num_cpus 1
cpu_freq 4000
fetch_width 6
decode_width 6
dispatch_width 6
execute_width 6
lq_width 2
sq_width 2
retire_width 6
scheduler_size 128
branch_mispredict_penalty 15
rob_size 352
lq_size 128
sq_size 72
ifetch_buffer_size 64
decode_buffer_size 32
dispatch_buffer_size 32
register_file_size 288
decode_latency 1
dispatch_latency 1
schedule_latency 1
execute_latency 1
page_size 4096
block_size 64
core_0_itlb_set 16
core_0_itlb_way 4
core_0_itlb_rq_size 16
core_0_itlb_wq_size 16
core_0_itlb_pq_size 0
core_0_itlb_mshr_size 8
core_0_itlb_hit_latency 1
core_0_itlb_fill_latency 1
core_0_itlb_max_tag_check 2
core_0_itlb_max_fill 2
core_0_dtlb_set 16
core_0_dtlb_way 4
core_0_dtlb_rq_size 16
core_0_dtlb_wq_size 16
core_0_dtlb_pq_size 0
core_0_dtlb_mshr_size 8
core_0_dtlb_hit_latency 1
core_0_dtlb_fill_latency 1
core_0_dtlb_max_tag_check 2
core_0_dtlb_max_fill 2
core_0_stlb_set 128
core_0_stlb_way 12
core_0_stlb_rq_size 32
core_0_stlb_wq_size 32
core_0_stlb_pq_size 0
core_0_stlb_mshr_size 16
core_0_stlb_hit_latency 4
core_0_stlb_fill_latency 4
core_0_stlb_max_tag_check 1
core_0_stlb_max_fill 1
core_0_l1i_set 64
core_0_l1i_way 8
core_0_l1i_rq_size 64
core_0_l1i_wq_size 64
core_0_l1i_pq_size 32
core_0_l1i_mshr_size 8
core_0_l1i_hit_latency 2
core_0_l1i_fill_latency 2
core_0_l1i_max_tag_check 2
core_0_l1i_max_fill 2
core_0_l1d_set 64
core_0_l1d_way 12
core_0_l1d_rq_size 64
core_0_l1d_wq_size 64
core_0_l1d_pq_size 8
core_0_l1d_mshr_size 16
core_0_l1d_hit_latency 2
core_0_l1d_fill_latency 3
core_0_l1d_max_tag_check 2
core_0_l1d_max_fill 2
core_0_l2c_set 1024
core_0_l2c_way 8
core_0_l2c_rq_size 32
core_0_l2c_wq_size 32
core_0_l2c_pq_size 16
core_0_l2c_mshr_size 32
core_0_l2c_hit_latency 5
core_0_l2c_fill_latency 5
core_0_l2c_max_tag_check 1
core_0_l2c_max_fill 1
llc_set 2048
llc_way 16
llc_rq_size 32
llc_wq_size 32
llc_pq_size 32
llc_mshr_size 64
llc_hit_latency 10
llc_fill_latency 10
llc_max_tag_check 1
llc_max_fill 1
dram_channels 1
dram_ranks 1
dram_bankgroups 8
dram_banks 4
dram_rows 65536
dram_columns 1024
dram_channel_width 8
dram_rq_size 64
dram_wq_size 64
dram_size 17179869184
core_0_itlb_prefetcher no
core_0_dtlb_prefetcher no
core_0_stlb_prefetcher no
core_0_l1i_prefetcher next_line
core_0_l1d_prefetcher vberti
core_0_l2c_prefetcher ip_stride
llc_prefetcher no
llc_replacement drrip

Core_0_instructions 100000001
Core_0_cycles 55903534
Core_0_IPC 1.7888
Core_0_branch_prediction_accuracy 99.7982
Core_0_branch_MPKI 0.57478
Core_0_average_ROB_occupancy_at_mispredict 172.123

Core_0_ITLB_total_access 5390081
Core_0_ITLB_total_hit 5386279
Core_0_ITLB_total_miss 3802
Core_0_ITLB_total_MPKI 0.03802
Core_0_ITLB_total_miss_rate 0.00070537
Core_0_ITLB_demand_access 5390081
Core_0_ITLB_demand_hit 5386279
Core_0_ITLB_demand_miss 3802
Core_0_ITLB_demand_MPKI 0.03802
Core_0_ITLB_demand_miss_rate 0.00070537
Core_0_ITLB_load_access 5390081
Core_0_ITLB_load_hit 5386279
Core_0_ITLB_load_miss 3802
Core_0_ITLB_load_MPKI 0.03802
Core_0_ITLB_load_miss_rate 0.00070537
Core_0_ITLB_rfo_access 0
Core_0_ITLB_rfo_hit 0
Core_0_ITLB_rfo_miss 0
Core_0_ITLB_rfo_MPKI 0
Core_0_ITLB_rfo_miss_rate 0
Core_0_ITLB_prefetch_access 0
Core_0_ITLB_prefetch_hit 0
Core_0_ITLB_prefetch_miss 0
Core_0_ITLB_prefetch_MPKI 0
Core_0_ITLB_prefetch_miss_rate 0
Core_0_ITLB_writeback_access 0
Core_0_ITLB_writeback_hit 0
Core_0_ITLB_writeback_miss 0
Core_0_ITLB_writeback_MPKI 0
Core_0_ITLB_writeback_miss_rate 0
Core_0_ITLB_prefetch_requested 0
Core_0_ITLB_prefetch_issued 0
Core_0_ITLB_prefetch_useful 0
Core_0_ITLB_prefetch_useless 0
Core_0_ITLB_prefetch_late 0
Core_0_ITLB_prefetch_fill 0
Core_0_ITLB_prefetch_too_early 0
Core_0_ITLB_prefetch_too_early_among_fill 0
Core_0_ITLB_prefetch_too_early_among_useless 0
Core_0_ITLB_prefetch_pollution_evict 0
Core_0_ITLB_prefetch_pollution_demand 0
Core_0_ITLB_prefetch_pollution_among_prefetch_fill 0
Core_0_ITLB_prefetch_accuracy 0
Core_0_ITLB_prefetch_coverage 0

Core_0_DTLB_total_access 17395205
Core_0_DTLB_total_hit 16584156
Core_0_DTLB_total_miss 811049
Core_0_DTLB_total_MPKI 8.11049
Core_0_DTLB_total_miss_rate 0.0466249
Core_0_DTLB_demand_access 17395205
Core_0_DTLB_demand_hit 16584156
Core_0_DTLB_demand_miss 811049
Core_0_DTLB_demand_MPKI 8.11049
Core_0_DTLB_demand_miss_rate 0.0466249
Core_0_DTLB_load_access 17395205
Core_0_DTLB_load_hit 16584156
Core_0_DTLB_load_miss 811049
Core_0_DTLB_load_MPKI 8.11049
Core_0_DTLB_load_miss_rate 0.0466249
Core_0_DTLB_rfo_access 0
Core_0_DTLB_rfo_hit 0
Core_0_DTLB_rfo_miss 0
Core_0_DTLB_rfo_MPKI 0
Core_0_DTLB_rfo_miss_rate 0
Core_0_DTLB_prefetch_access 0
Core_0_DTLB_prefetch_hit 0
Core_0_DTLB_prefetch_miss 0
Core_0_DTLB_prefetch_MPKI 0
Core_0_DTLB_prefetch_miss_rate 0
Core_0_DTLB_writeback_access 0
Core_0_DTLB_writeback_hit 0
Core_0_DTLB_writeback_miss 0
Core_0_DTLB_writeback_MPKI 0
Core_0_DTLB_writeback_miss_rate 0
Core_0_DTLB_prefetch_requested 0
Core_0_DTLB_prefetch_issued 0
Core_0_DTLB_prefetch_useful 0
Core_0_DTLB_prefetch_useless 0
Core_0_DTLB_prefetch_late 0
Core_0_DTLB_prefetch_fill 0
Core_0_DTLB_prefetch_too_early 0
Core_0_DTLB_prefetch_too_early_among_fill 0
Core_0_DTLB_prefetch_too_early_among_useless 0
Core_0_DTLB_prefetch_pollution_evict 0
Core_0_DTLB_prefetch_pollution_demand 0
Core_0_DTLB_prefetch_pollution_among_prefetch_fill 0
Core_0_DTLB_prefetch_accuracy 0
Core_0_DTLB_prefetch_coverage 0

Core_0_STLB_total_access 583074
Core_0_STLB_total_hit 25827
Core_0_STLB_total_miss 557247
Core_0_STLB_total_MPKI 5.57247
Core_0_STLB_total_miss_rate 0.955705
Core_0_STLB_demand_access 583074
Core_0_STLB_demand_hit 25827
Core_0_STLB_demand_miss 557247
Core_0_STLB_demand_MPKI 5.57247
Core_0_STLB_demand_miss_rate 0.955705
Core_0_STLB_load_access 583074
Core_0_STLB_load_hit 25827
Core_0_STLB_load_miss 557247
Core_0_STLB_load_MPKI 5.57247
Core_0_STLB_load_miss_rate 0.955705
Core_0_STLB_rfo_access 0
Core_0_STLB_rfo_hit 0
Core_0_STLB_rfo_miss 0
Core_0_STLB_rfo_MPKI 0
Core_0_STLB_rfo_miss_rate 0
Core_0_STLB_prefetch_access 0
Core_0_STLB_prefetch_hit 0
Core_0_STLB_prefetch_miss 0
Core_0_STLB_prefetch_MPKI 0
Core_0_STLB_prefetch_miss_rate 0
Core_0_STLB_writeback_access 0
Core_0_STLB_writeback_hit 0
Core_0_STLB_writeback_miss 0
Core_0_STLB_writeback_MPKI 0
Core_0_STLB_writeback_miss_rate 0
Core_0_STLB_prefetch_requested 0
Core_0_STLB_prefetch_issued 0
Core_0_STLB_prefetch_useful 0
Core_0_STLB_prefetch_useless 0
Core_0_STLB_prefetch_late 0
Core_0_STLB_prefetch_fill 0
Core_0_STLB_prefetch_too_early 0
Core_0_STLB_prefetch_too_early_among_fill 0
Core_0_STLB_prefetch_too_early_among_useless 0
Core_0_STLB_prefetch_pollution_evict 0
Core_0_STLB_prefetch_pollution_demand 0
Core_0_STLB_prefetch_pollution_among_prefetch_fill 0
Core_0_STLB_prefetch_accuracy 0
Core_0_STLB_prefetch_coverage 0

Core_0_L1I_total_access 7429091
Core_0_L1I_total_hit 7412981
Core_0_L1I_total_miss 16110
Core_0_L1I_total_MPKI 0.1611
Core_0_L1I_total_miss_rate 0.0021685
Core_0_L1I_demand_access 7429091
Core_0_L1I_demand_hit 7412981
Core_0_L1I_demand_miss 16110
Core_0_L1I_demand_MPKI 0.1611
Core_0_L1I_demand_miss_rate 0.0021685
Core_0_L1I_load_access 7429091
Core_0_L1I_load_hit 7412981
Core_0_L1I_load_miss 16110
Core_0_L1I_load_MPKI 0.1611
Core_0_L1I_load_miss_rate 0.0021685
Core_0_L1I_rfo_access 0
Core_0_L1I_rfo_hit 0
Core_0_L1I_rfo_miss 0
Core_0_L1I_rfo_MPKI 0
Core_0_L1I_rfo_miss_rate 0
Core_0_L1I_prefetch_access 0
Core_0_L1I_prefetch_hit 0
Core_0_L1I_prefetch_miss 0
Core_0_L1I_prefetch_MPKI 0
Core_0_L1I_prefetch_miss_rate 0
Core_0_L1I_writeback_access 0
Core_0_L1I_writeback_hit 0
Core_0_L1I_writeback_miss 0
Core_0_L1I_writeback_MPKI 0
Core_0_L1I_writeback_miss_rate 0
Core_0_L1I_prefetch_requested 0
Core_0_L1I_prefetch_issued 0
Core_0_L1I_prefetch_useful 0
Core_0_L1I_prefetch_useless 0
Core_0_L1I_prefetch_late 0
Core_0_L1I_prefetch_fill 0
Core_0_L1I_prefetch_too_early 0
Core_0_L1I_prefetch_too_early_among_fill 0
Core_0_L1I_prefetch_too_early_among_useless 0
Core_0_L1I_prefetch_pollution_evict 0
Core_0_L1I_prefetch_pollution_demand 0
Core_0_L1I_prefetch_pollution_among_prefetch_fill 0
Core_0_L1I_prefetch_accuracy 0
Core_0_L1I_prefetch_coverage 0

Core_0_L1D_total_access 21698132
Core_0_L1D_total_hit 18843590
Core_0_L1D_total_miss 2854542
Core_0_L1D_total_MPKI 28.5454
Core_0_L1D_total_miss_rate 0.131557
Core_0_L1D_demand_access 9667186
Core_0_L1D_demand_hit 7805442
Core_0_L1D_demand_miss 1861744
Core_0_L1D_demand_MPKI 18.6174
Core_0_L1D_demand_miss_rate 0.192584
Core_0_L1D_load_access 9667186
Core_0_L1D_load_hit 7805442
Core_0_L1D_load_miss 1861744
Core_0_L1D_load_MPKI 18.6174
Core_0_L1D_load_miss_rate 0.192584
Core_0_L1D_rfo_access 0
Core_0_L1D_rfo_hit 0
Core_0_L1D_rfo_miss 0
Core_0_L1D_rfo_MPKI 0
Core_0_L1D_rfo_miss_rate 0
Core_0_L1D_prefetch_access 9219115
Core_0_L1D_prefetch_hit 8267406
Core_0_L1D_prefetch_miss 951709
Core_0_L1D_prefetch_MPKI 9.51709
Core_0_L1D_prefetch_miss_rate 0.103232
Core_0_L1D_writeback_access 2811831
Core_0_L1D_writeback_hit 2770742
Core_0_L1D_writeback_miss 41089
Core_0_L1D_writeback_MPKI 0.41089
Core_0_L1D_writeback_miss_rate 0.0146129
Core_0_L1D_prefetch_requested 34067880
Core_0_L1D_prefetch_issued 9735567
Core_0_L1D_prefetch_useful 228845
Core_0_L1D_prefetch_useless 7669
Core_0_L1D_prefetch_late 5138
Core_0_L1D_prefetch_fill 231419
Core_0_L1D_prefetch_too_early 228
Core_0_L1D_prefetch_too_early_among_fill 0.000985226
Core_0_L1D_prefetch_too_early_among_useless 0.0297301
Core_0_L1D_prefetch_pollution_evict 766
Core_0_L1D_prefetch_pollution_demand 762
Core_0_L1D_cross_page_pf_translation_only_requested 4445599
Core_0_L1D_cross_page_pf_translation_only_issued 516459
Core_0_L1D_cross_page_pf_translation_only_dropped 516460
Core_0_L1D_prefetch_pollution_among_prefetch_fill 0.00331001
Core_0_L1D_prefetch_accuracy 0.0235061
Core_0_L1D_prefetch_coverage 0.109464

Core_0_L2C_total_access 3348537
Core_0_L2C_total_hit 904680
Core_0_L2C_total_miss 2443857
Core_0_L2C_total_MPKI 24.4386
Core_0_L2C_total_miss_rate 0.729828
Core_0_L2C_demand_access 1850269
Core_0_L2C_demand_hit 93882
Core_0_L2C_demand_miss 1756387
Core_0_L2C_demand_MPKI 17.5639
Core_0_L2C_demand_miss_rate 0.94926
Core_0_L2C_load_access 1828001
Core_0_L2C_load_hit 91598
Core_0_L2C_load_miss 1736403
Core_0_L2C_load_MPKI 17.364
Core_0_L2C_load_miss_rate 0.949892
Core_0_L2C_rfo_access 22268
Core_0_L2C_rfo_hit 2284
Core_0_L2C_rfo_miss 19984
Core_0_L2C_rfo_MPKI 0.19984
Core_0_L2C_rfo_miss_rate 0.897431
Core_0_L2C_prefetch_access 1463250
Core_0_L2C_prefetch_hit 775784
Core_0_L2C_prefetch_miss 687466
Core_0_L2C_prefetch_MPKI 6.87466
Core_0_L2C_prefetch_miss_rate 0.469821
Core_0_L2C_writeback_access 35018
Core_0_L2C_writeback_hit 35014
Core_0_L2C_writeback_miss 4
Core_0_L2C_writeback_MPKI 4e-05
Core_0_L2C_writeback_miss_rate 0.000114227
Core_0_L2C_prefetch_requested 545958
Core_0_L2C_prefetch_issued 533887
Core_0_L2C_prefetch_useful 163651
Core_0_L2C_prefetch_useless 7893
Core_0_L2C_prefetch_late 9400
Core_0_L2C_prefetch_fill 488106
Core_0_L2C_prefetch_too_early 222
Core_0_L2C_prefetch_too_early_among_fill 0.000454819
Core_0_L2C_prefetch_too_early_among_useless 0.0281262
Core_0_L2C_prefetch_pollution_evict 227485
Core_0_L2C_prefetch_pollution_demand 227434
Core_0_L2C_prefetch_pollution_among_prefetch_fill 0.466057
Core_0_L2C_prefetch_accuracy 0.306527
Core_0_L2C_prefetch_coverage 0.0852332

Core_0_LLC_total_access 2308830
Core_0_LLC_total_hit 1135281
Core_0_LLC_total_miss 1173549
Core_0_LLC_total_MPKI 11.7355
Core_0_LLC_total_miss_rate 0.508287
Core_0_LLC_demand_access 1718298
Core_0_LLC_demand_hit 790507
Core_0_LLC_demand_miss 927791
Core_0_LLC_demand_MPKI 9.27791
Core_0_LLC_demand_miss_rate 0.539948
Core_0_LLC_load_access 1698650
Core_0_LLC_load_hit 782324
Core_0_LLC_load_miss 916326
Core_0_LLC_load_MPKI 9.16326
Core_0_LLC_load_miss_rate 0.539444
Core_0_LLC_rfo_access 19648
Core_0_LLC_rfo_hit 8183
Core_0_LLC_rfo_miss 11465
Core_0_LLC_rfo_MPKI 0.11465
Core_0_LLC_rfo_miss_rate 0.58352
Core_0_LLC_prefetch_access 557638
Core_0_LLC_prefetch_hit 324428
Core_0_LLC_prefetch_miss 233210
Core_0_LLC_prefetch_MPKI 2.3321
Core_0_LLC_prefetch_miss_rate 0.41821
Core_0_LLC_writeback_access 32894
Core_0_LLC_writeback_hit 20346
Core_0_LLC_writeback_miss 12548
Core_0_LLC_writeback_MPKI 0.12548
Core_0_LLC_writeback_miss_rate 0.381468
Core_0_LLC_prefetch_requested 0
Core_0_LLC_prefetch_issued 0
Core_0_LLC_prefetch_useful 0
Core_0_LLC_prefetch_useless 0
Core_0_LLC_prefetch_late 0
Core_0_LLC_prefetch_fill 228445
Core_0_LLC_prefetch_too_early 0
Core_0_LLC_prefetch_too_early_among_fill 0
Core_0_LLC_prefetch_too_early_among_useless 0
Core_0_LLC_prefetch_pollution_evict 87392
Core_0_LLC_prefetch_pollution_demand 87392
Core_0_LLC_prefetch_pollution_among_prefetch_fill 0.382552
Core_0_LLC_prefetch_accuracy 0
Core_0_LLC_prefetch_coverage 0

[DRAM Statistics]
Channel_0_RQ_row_buffer_hit 4281
Channel_0_RQ_row_buffer_miss 1182629
Channel_0_WQ_row_buffer_hit 2279
Channel_0_WQ_row_buffer_miss 17270
Channel_0_WQ_full 0
Channel_0_dbus_congested 1931560
DRAM_total_RQ_row_buffer_hit 4281
DRAM_total_RQ_row_buffer_miss 1182629
DRAM_total_WQ_row_buffer_hit 2279
DRAM_total_WQ_row_buffer_miss 17270
DRAM_total_WQ_full 0
DRAM_total_dbus_congested 1931560
DRAM_avg_congested_cycle 3.27183

====== DRAM_RQ_TRAFFIC ========
DRAM_RQ_READ_TRAFFIC_BREAKDOWN:
data_demand_read.count = 922721
data_demand_read.share = 77.73%

inst_demand_read.count = 4356
inst_demand_read.share = 0.37%

cache_inst_prefetch.count = 0
cache_inst_prefetch.share = 0.00%

cache_data_prefetch.count = 229159
cache_data_prefetch.share = 19.30%

stlb_data_demand.count = 28771
stlb_data_demand.share = 2.42%

stlb_inst_demand.count = 411
stlb_inst_demand.share = 0.03%

stlb_l1i_pref.count = 0
stlb_l1i_pref.share = 0.00%

stlb_l1d_pref.count = 1691
stlb_l1d_pref.share = 0.14%

DRAM_RQ_READ_TRAFFIC_SUMMARY:
cache_demand.count = 927077
cache_demand.share = 78.10%

cache_prefetch.count = 229159
cache_prefetch.share = 19.30%

stlb_demand.count = 29182
stlb_demand.share = 2.46%

stlb_prefetch.count = 1691
stlb_prefetch.share = 0.14%

DRAM_RQ_READ_TRAFFIC_DEBUG:
total_classified_read.count = 1187109
unclassified_read.count = 0
total_read_with_other.count = 1187109

classified_plus_unclassified_check.count = 1187109
dram_rq_read_total_observed.count = 1187109
dram_rq_read_total_observed.per_1K_instructions = 11.8711

STLB_MISS_PTW_DRAM_TOUCH_BREAKDOWN:
stlb_miss_total.count = 557247

stlb_miss_touch_dram.count = 31018
stlb_miss_touch_dram.share = 5.57%

stlb_miss_no_dram_touch.count = 526229
stlb_miss_no_dram_touch.share = 94.43%

STLB_MISS_PTW_DRAM_TOUCH_DEBUG:
stlb_miss_touch_plus_no_touch.count = 557247
stlb_miss_total_check.count = 557247

======STLB miss causes ========
Core_0_STLB_miss_cause_breakdown
Core_0_STLB_cause_Demand_Data_miss 497584
Core_0_STLB_cause_Demand_Data_miss_rate 0.853381
Core_0_STLB_cause_Demand_Instruction_miss 1230
Core_0_STLB_cause_Demand_Instruction_miss_rate 0.00210951
Core_0_STLB_cause_L1D_Prefetch_miss 58433
Core_0_STLB_cause_L1D_Prefetch_miss_rate 0.100215
Core_0_STLB_cause_L1D_Prefetch_Same_Page_miss 0
Core_0_STLB_cause_L1D_Prefetch_Same_Page_miss_rate 0
Core_0_STLB_cause_L1D_Prefetch_Cross_Page_miss 58433
Core_0_STLB_cause_L1D_Prefetch_Cross_Page_miss_rate 0.100215
Core_0_STLB_cause_L1I_Prefetch_miss 0
Core_0_STLB_cause_L1I_Prefetch_miss_rate 0
Core_0_STLB_cause_Other_miss 0
Core_0_STLB_cause_Other_miss_rate 0
Core_0_STLB_Demand_miss 498814
Core_0_STLB_Demand_miss_rate 0.85549
Core_0_STLB_L1D_Prefetch_miss 58433
Core_0_STLB_L1D_Prefetch_miss_rate 0.100215
Core_0_STLB_Other_miss 0
Core_0_STLB_Other_miss_rate 0

========== vBerti-TLB Cross-page Flow Stats ==========

Core_0_vBerti_Requested 34067880
Core_0_vBerti_Cross_page_prefetch_in_Requested 4445599
Core_0_vBerti_Same_page_prefetch_in_Requested 29622281
Core_0_vBerti_Cross_page_prefetch_of_Requested 0.130492
Core_0_vBerti_Issued 9735567
Core_0_vBerti_InPQ_Same_page_prefetch 9219108
Core_0_vBerti_InPQ_Cross_page_prefetch 516459
Core_0_vBerti_PQ_Drop_Rate 0.71423
Core_0_vBerti_InPQ_Cross_page_prefetch_of_Requested 0.0151597
Core_0_vBerti_Cross_page_PQ_Drop_rate 0.883827
Core_0_vBerti_Cross_page_prefetch_of_Issued 0.0530487
Core_0_CP_PF_PQFULL_drop 3929140
Core_0_CP_PF_PQFULL_TLB_rescue_enqueued 0
Core_0_CP_PF_PQFULL_TLB_rescue_issued 0
Core_0_CP_PF_PQFULL_TLB_rescue_translated 0

========= DTLB_vBerti Prefetch Stats =========
Core_0_DTLB_demand_access 12019294
Core_0_DTLB_demand_hit 11283073
Core_0_DTLB_demand_miss 736221
Core_0_DTLB_demand_mshr_merge 214539
Core_0_DTLB_demand_fill 535543
Core_0_DTLB_demand_miss_rate 0.0612533
Core_0_DTLB_demand_mpki 7.36221
Core_0_DTLB_vberti_prefetch_access 5375911
Core_0_DTLB_vberti_prefetch_hit 5301083
Core_0_DTLB_vberti_prefetch_miss 74828
Core_0_DTLB_vberti_prefetch_mshr_merge 14796
Core_0_DTLB_vberti_prefetch_fill 46172
Core_0_DTLB_vberti_prefetch_miss_rate 0.0139191
Core_0_DTLB_vberti_prefetch_mpki 0.74828

=== DTLB_vBerti Same/Cross-page Prefetch Stats ===
Core_0_DTLB_vberti_same_page_prefetch 5000891
Core_0_DTLB_vberti_same_page_prefetch_hit 5000891
Core_0_DTLB_vberti_same_page_prefetch_miss 0
Core_0_DTLB_vberti_same_page_prefetch_mshr_merge 0
Core_0_DTLB_vberti_same_page_prefetch_fill 0
Core_0_DTLB_vberti_same_page_prefetch_miss_rate 0
Core_0_DTLB_vberti_same_page_prefetch_mpki 0
Core_0_DTLB_vberti_cross_page_prefetch 375020
Core_0_DTLB_vberti_cross_page_prefetch_hit 300192
Core_0_DTLB_vberti_cross_page_prefetch_miss 74828
Core_0_DTLB_vberti_cross_page_prefetch_mshr_merge 14796
Core_0_DTLB_vberti_cross_page_prefetch_fill 46172
Core_0_DTLB_vberti_cross_page_prefetch_miss_rate 0.199531
Core_0_DTLB_vberti_cross_page_prefetch_mpki 0.74828
Core_0_DTLB_same_page_prefetch_miss_rate 0
Core_0_DTLB_same_page_prefetch_mpki 0
Core_0_DTLB_cross_page_prefetch_miss_rate 0.199531
Core_0_DTLB_cross_page_prefetch_mpki 0.74828
Core_0_DTLB_cross_page_prefetch_issued 375020
Core_0_DTLB_cross_page_prefetch_lookups 375020
Core_0_DTLB_cross_page_prefetch_useful 45556
Core_0_DTLB_cross_page_prefetch_useless 14476
Core_0_DTLB_cross_page_prefetch_late 13860
Core_0_DTLB_cross_page_prefetch_too_early 724
Core_0_DTLB_cross_page_prefetch_too_early_among_fill 0.0156805
Core_0_DTLB_cross_page_prefetch_too_early_among_useless 0.0500138
Core_0_DTLB_cross_page_prefetch_pollution_evict 1264
Core_0_DTLB_cross_page_prefetch_pollution_demand 1080
Core_0_DTLB_cross_page_prefetch_pollution_among_prefetch_fill 0.0273759
Core_0_DTLB_cross_page_prefetch_accuracy 0.121476
Core_0_DTLB_cross_page_prefetch_coverage 0.0582724

========= STLB_vBerti Prefetch Stats =========
Core_0_STLB_demand_access 523042
Core_0_STLB_demand_hit 24228
Core_0_STLB_demand_miss 498814
Core_0_STLB_demand_mshr_merge 0
Core_0_STLB_demand_fill 498814
Core_0_STLB_demand_miss_rate 0.953679
Core_0_STLB_demand_mpki 4.98814
Core_0_STLB_vberti_prefetch_access 60032
Core_0_STLB_vberti_prefetch_hit 1599
Core_0_STLB_vberti_prefetch_miss 58433
Core_0_STLB_vberti_prefetch_mshr_merge 0
Core_0_STLB_vberti_prefetch_fill 58433
Core_0_STLB_vberti_prefetch_miss_rate 0.973364
Core_0_STLB_vberti_prefetch_mpki 0.58433

=== STLB_vBerti Same/Cross-page Prefetch Stats ===
Core_0_STLB_vberti_same_page_prefetch 0
Core_0_STLB_vberti_same_page_prefetch_hit 0
Core_0_STLB_vberti_same_page_prefetch_miss 0
Core_0_STLB_vberti_same_page_prefetch_mshr_merge 0
Core_0_STLB_vberti_same_page_prefetch_fill 0
Core_0_STLB_vberti_same_page_prefetch_miss_rate 0
Core_0_STLB_vberti_same_page_prefetch_mpki 0
Core_0_STLB_vberti_cross_page_prefetch 60032
Core_0_STLB_vberti_cross_page_prefetch_hit 1599
Core_0_STLB_vberti_cross_page_prefetch_miss 58433
Core_0_STLB_vberti_cross_page_prefetch_mshr_merge 0
Core_0_STLB_vberti_cross_page_prefetch_fill 58433
Core_0_STLB_vberti_cross_page_prefetch_miss_rate 0.973364
Core_0_STLB_vberti_cross_page_prefetch_mpki 0.58433
Core_0_STLB_same_page_prefetch_miss_rate 0
Core_0_STLB_same_page_prefetch_mpki 0
Core_0_STLB_cross_page_prefetch_miss_rate 0.973364
Core_0_STLB_cross_page_prefetch_mpki 0.58433
Core_0_STLB_cross_page_prefetch_issued 60032
Core_0_STLB_cross_page_prefetch_lookups 60032
Core_0_STLB_cross_page_prefetch_useful 1282
Core_0_STLB_cross_page_prefetch_useless 57151
Core_0_STLB_cross_page_prefetch_late 0
Core_0_STLB_cross_page_prefetch_too_early 25377
Core_0_STLB_cross_page_prefetch_too_early_among_fill 0.434292
Core_0_STLB_cross_page_prefetch_too_early_among_useless 0.444034
Core_0_STLB_cross_page_prefetch_pollution_evict 50016
Core_0_STLB_cross_page_prefetch_pollution_demand 46833
Core_0_STLB_cross_page_prefetch_pollution_among_prefetch_fill 0.855955
Core_0_STLB_cross_page_prefetch_accuracy 0.0213553
Core_0_STLB_cross_page_prefetch_coverage 0.00256351

========= STLB Cross-page Prefetch Buffer Stats =========
Core_0_STLB_raw_demand_miss 497584
Core_0_CP_PB_insert 0
Core_0_CP_PB_demand_hit 0
Core_0_STLB_PB_demand_miss 497584
Core_0_CP_PB_coverage 0
Core_0_STLB_raw_demand_mpki 4.97584
Core_0_STLB_PB_demand_mpki 4.97584
Core_0_CP_PB_demand_hit_mpki 0

Core_0_TLB_demand_miss_rate 0.0415011
Core_0_TLB_demand_mpki 4.98814
Core_0_TLB_same_page_prefetch_miss_rate 0
Core_0_TLB_same_page_prefetch_mpki 0
Core_0_TLB_cross_page_prefetch_miss_rate 0.155813
Core_0_TLB_cross_page_prefetch_mpki 0.58433
Core_0_TLB_cross_page_prefetch_issued 375020
Core_0_TLB_cross_page_prefetch_lookups 375020
Core_0_TLB_cross_page_prefetch_useful 44525
Core_0_TLB_cross_page_prefetch_useless 14279
Core_0_TLB_cross_page_prefetch_late 13761
Core_0_TLB_cross_page_prefetch_too_early 642
Core_0_TLB_cross_page_prefetch_too_early_among_fill 0.00613737
Core_0_TLB_cross_page_prefetch_too_early_among_useless 0.0449611
Core_0_TLB_cross_page_prefetch_accuracy 0.118727
Core_0_TLB_cross_page_prefetch_coverage 0.081947
====== vBerti internal metric ========
Core_0_vBerti_end_to_end_issued 9219108
Core_0_vBerti_end_to_end_useful 45099
Core_0_vBerti_end_to_end_late 31712
Core_0_vBerti_end_to_end_accuracy 0.0048919
Core_0_vBerti_end_to_end_timely_accuracy 0.00145209
BERTI TO_L1: 21084580 TO_L2: 8537701 TO_L2_BC_MSHR: 4428229
BERTI AVG_LAT: 139.916 NUM_TRACK_LATENCY: 2072409 NUM_CANT_TRACK_LATENCY: 0
BERTI CROSS_PAGE 4445599 NO_CROSS_PAGE: 29622281
BERTI FOUND_BERTI: 6834121 NO_FOUND_BERTI: 6930615
BERTI AVERAGE_ISSUED: 2.8674
