[VMEM] WARNING: physical memory size is smaller than virtual memory size.

*** ChampSim Multicore Out-of-Order Simulator ***
Warmup Instructions: 50000000
Simulation Instructions: 100000000
Number of CPUs: 1
Page size: 4096
Core 0: /data0/tzh/champsim_traces/QMM/compute_fp_7_new.xz
VBerti Prefetcher
BERTI HASH ENTANGLING
BERTI IP MASK ffff
Off-chip DRAM Size: 16 GiB Channels: 1 Width: 64-bit Data Rate: 3205 MT/s
*** Reached end of trace: (0, "/data0/tzh/champsim_traces/QMM/compute_fp_7_new.xz")
[BTB] WARNING: target of return is a lower address than the corresponding call. This is usually a problem with your trace.
Warmup halting CPU 0 at instruction 50000005 cycle 14250828 for remainder of phase
Warmup finished CPU 0 instructions: 50000005 cycles: 14250828 cumulative IPC: 3.509 (Simulation time: 00 hr 03 min 26 sec)
Warmup complete CPU 0 instructions: 50000005 cycles: 14250828 cumulative IPC: 3.509 (Simulation time: 00 hr 03 min 26 sec)
*** Reached end of trace: (0, "/data0/tzh/champsim_traces/QMM/compute_fp_7_new.xz")
[BTB] WARNING: target of return is a lower address than the corresponding call. This is usually a problem with your trace.
*** Reached end of trace: (0, "/data0/tzh/champsim_traces/QMM/compute_fp_7_new.xz")
[BTB] WARNING: target of return is a lower address than the corresponding call. This is usually a problem with your trace.
*** Reached end of trace: (0, "/data0/tzh/champsim_traces/QMM/compute_fp_7_new.xz")
[BTB] WARNING: target of return is a lower address than the corresponding call. This is usually a problem with your trace.
Simulation finished CPU 0 instructions: 100000002 cycles: 222591630 cumulative IPC: 0.4493 (Simulation time: 00 hr 27 min 21 sec)
Simulation complete CPU 0 instructions: 100000002 cycles: 222591630 cumulative IPC: 0.4493 (Simulation time: 00 hr 27 min 21 sec)

ChampSim completed all CPUs

=== Simulation ===
CPU 0 runs /data0/tzh/champsim_traces/QMM/compute_fp_7_new.xz

Region of Interest Statistics

CPU 0 cumulative IPC: 0.4493 instructions: 100000002 cycles: 222591630
CPU 0 Branch Prediction Accuracy: 93.53% MPKI: 10.54 Average ROB Occupancy at Mispredict: 67.01
Branch type MPKI
BRANCH_DIRECT_JUMP: 0
BRANCH_INDIRECT: 7e-05
BRANCH_CONDITIONAL: 10.54
BRANCH_DIRECT_CALL: 0
BRANCH_INDIRECT_CALL: 0
BRANCH_RETURN: 3e-05

cpu0->cpu0_STLB TOTAL        ACCESS:    1542515 HIT:    1344440 MISS:     198075 MSHR_MERGE:          0
cpu0->cpu0_STLB LOAD         ACCESS:    1542515 HIT:    1344440 MISS:     198075 MSHR_MERGE:          0
cpu0->cpu0_STLB RFO          ACCESS:          0 HIT:          0 MISS:          0 MSHR_MERGE:          0
cpu0->cpu0_STLB PREFETCH     ACCESS:          0 HIT:          0 MISS:          0 MSHR_MERGE:          0
cpu0->cpu0_STLB WRITE        ACCESS:          0 HIT:          0 MISS:          0 MSHR_MERGE:          0
cpu0->cpu0_STLB TRANSLATION  ACCESS:          0 HIT:          0 MISS:          0 MSHR_MERGE:          0
cpu0->cpu0_STLB PREFETCH REQUESTED:          0 ISSUED:          0 USEFUL:          0 USELESS:          0 LATE:          0 TOO_EARLY:          0
cpu0->cpu0_STLB AVERAGE MISS LATENCY: 58.1 cycles
cpu0->cpu0_L2C TOTAL        ACCESS:   15284946 HIT:    8159031 MISS:    7125915 MSHR_MERGE:    1298457
cpu0->cpu0_L2C LOAD         ACCESS:    4370913 HIT:    1726551 MISS:    2644362 MSHR_MERGE:     125009
cpu0->cpu0_L2C RFO          ACCESS:    1223658 HIT:     335619 MISS:     888039 MSHR_MERGE:      43626
cpu0->cpu0_L2C PREFETCH     ACCESS:    6311947 HIT:    2769388 MISS:    3542559 MSHR_MERGE:    1129822
cpu0->cpu0_L2C WRITE        ACCESS:    3280870 HIT:    3280740 MISS:        130 MSHR_MERGE:          0
cpu0->cpu0_L2C TRANSLATION  ACCESS:      97558 HIT:      46733 MISS:      50825 MSHR_MERGE:          0
cpu0->cpu0_L2C PREFETCH REQUESTED:    2460350 ISSUED:    2430699 USEFUL:     541506 USELESS:     192167 LATE:      99005 TOO_EARLY:      27542
cpu0->cpu0_L2C AVERAGE MISS LATENCY: 195.2 cycles
cpu0->cpu0_L1I TOTAL        ACCESS:    5164907 HIT:    5158253 MISS:       6654 MSHR_MERGE:       2741
cpu0->cpu0_L1I LOAD         ACCESS:    5164907 HIT:    5158253 MISS:       6654 MSHR_MERGE:       2741
cpu0->cpu0_L1I RFO          ACCESS:          0 HIT:          0 MISS:          0 MSHR_MERGE:          0
cpu0->cpu0_L1I PREFETCH     ACCESS:          0 HIT:          0 MISS:          0 MSHR_MERGE:          0
cpu0->cpu0_L1I WRITE        ACCESS:          0 HIT:          0 MISS:          0 MSHR_MERGE:          0
cpu0->cpu0_L1I TRANSLATION  ACCESS:          0 HIT:          0 MISS:          0 MSHR_MERGE:          0
cpu0->cpu0_L1I PREFETCH REQUESTED:          0 ISSUED:          0 USEFUL:          0 USELESS:          0 LATE:          0 TOO_EARLY:          0
cpu0->cpu0_L1I AVERAGE MISS LATENCY: 284 cycles
cpu0->cpu0_L1D TOTAL        ACCESS:   45527218 HIT:   32166330 MISS:   13360888 MSHR_MERGE:    3750946
cpu0->cpu0_L1D LOAD         ACCESS:   19174686 HIT:   13050175 MISS:    6124511 MSHR_MERGE:    1757346
cpu0->cpu0_L1D RFO          ACCESS:          0 HIT:          0 MISS:          0 MSHR_MERGE:          0
cpu0->cpu0_L1D PREFETCH     ACCESS:   15614439 HIT:   11582590 MISS:    4031849 MSHR_MERGE:     110409
cpu0->cpu0_L1D WRITE        ACCESS:   10345006 HIT:    7240016 MISS:    3104990 MSHR_MERGE:    1881211
cpu0->cpu0_L1D TRANSLATION  ACCESS:     393087 HIT:     293549 MISS:      99538 MSHR_MERGE:       1980
cpu0->cpu0_L1D PREFETCH REQUESTED:  163191743 ISSUED:   17078409 USEFUL:    1138625 USELESS:     211911 LATE:      66944 TOO_EARLY:      21796
cpu0->cpu0_L1D AVERAGE MISS LATENCY: 132.1 cycles
cpu0->cpu0_ITLB TOTAL        ACCESS:    4594222 HIT:    4593300 MISS:        922 MSHR_MERGE:        647
cpu0->cpu0_ITLB LOAD         ACCESS:    4594222 HIT:    4593300 MISS:        922 MSHR_MERGE:        647
cpu0->cpu0_ITLB RFO          ACCESS:          0 HIT:          0 MISS:          0 MSHR_MERGE:          0
cpu0->cpu0_ITLB PREFETCH     ACCESS:          0 HIT:          0 MISS:          0 MSHR_MERGE:          0
cpu0->cpu0_ITLB WRITE        ACCESS:          0 HIT:          0 MISS:          0 MSHR_MERGE:          0
cpu0->cpu0_ITLB TRANSLATION  ACCESS:          0 HIT:          0 MISS:          0 MSHR_MERGE:          0
cpu0->cpu0_ITLB PREFETCH REQUESTED:          0 ISSUED:          0 USEFUL:          0 USELESS:          0 LATE:          0 TOO_EARLY:          0
cpu0->cpu0_ITLB AVERAGE MISS LATENCY: 282.1 cycles
cpu0->cpu0_DTLB TOTAL        ACCESS:   40428867 HIT:   38335138 MISS:    2093729 MSHR_MERGE:     551489
cpu0->cpu0_DTLB LOAD         ACCESS:   40428867 HIT:   38335138 MISS:    2093729 MSHR_MERGE:     551489
cpu0->cpu0_DTLB RFO          ACCESS:          0 HIT:          0 MISS:          0 MSHR_MERGE:          0
cpu0->cpu0_DTLB PREFETCH     ACCESS:          0 HIT:          0 MISS:          0 MSHR_MERGE:          0
cpu0->cpu0_DTLB WRITE        ACCESS:          0 HIT:          0 MISS:          0 MSHR_MERGE:          0
cpu0->cpu0_DTLB TRANSLATION  ACCESS:          0 HIT:          0 MISS:          0 MSHR_MERGE:          0
cpu0->cpu0_DTLB PREFETCH REQUESTED:          0 ISSUED:          0 USEFUL:          0 USELESS:          0 LATE:          0 TOO_EARLY:          0
cpu0->cpu0_DTLB AVERAGE MISS LATENCY: 12.55 cycles
cpu0->LLC TOTAL        ACCESS:    8093490 HIT:    3721917 MISS:    4371573 MSHR_MERGE:      98681
cpu0->LLC LOAD         ACCESS:    2519347 HIT:    1037704 MISS:    1481643 MSHR_MERGE:      11024
cpu0->LLC RFO          ACCESS:     844407 HIT:     271534 MISS:     572873 MSHR_MERGE:       1523
cpu0->LLC PREFETCH     ACCESS:    2412656 HIT:     645449 MISS:    1767207 MSHR_MERGE:      86134
cpu0->LLC WRITE        ACCESS:    2266255 HIT:    1741744 MISS:     524511 MSHR_MERGE:          0
cpu0->LLC TRANSLATION  ACCESS:      50825 HIT:      25486 MISS:      25339 MSHR_MERGE:          0
cpu0->LLC PREFETCH REQUESTED:          0 ISSUED:          0 USEFUL:          0 USELESS:          0 LATE:          0 TOO_EARLY:          0
cpu0->LLC AVERAGE MISS LATENCY: 233.6 cycles

DRAM Statistics

Channel 0 RQ ROW_BUFFER_HIT:     145350
  ROW_BUFFER_MISS:    3599704
  AVG DBUS CONGESTED CYCLE: 6.801
Channel 0 WQ ROW_BUFFER_HIT:     229233
  ROW_BUFFER_MISS:     979978
  FULL:       2971
Channel 0 REFRESHES ISSUED:      18549

[ROI Statistics]
[System Configuration]
num_cpus 1
cpu_freq 4000
fetch_width 6
decode_width 6
dispatch_width 6
execute_width 6
lq_width 2
sq_width 2
retire_width 6
scheduler_size 128
branch_mispredict_penalty 15
rob_size 352
lq_size 128
sq_size 72
ifetch_buffer_size 64
decode_buffer_size 32
dispatch_buffer_size 32
register_file_size 288
decode_latency 1
dispatch_latency 1
schedule_latency 1
execute_latency 1
page_size 4096
block_size 64
core_0_itlb_set 16
core_0_itlb_way 4
core_0_itlb_rq_size 16
core_0_itlb_wq_size 16
core_0_itlb_pq_size 0
core_0_itlb_mshr_size 8
core_0_itlb_hit_latency 1
core_0_itlb_fill_latency 1
core_0_itlb_max_tag_check 2
core_0_itlb_max_fill 2
core_0_dtlb_set 16
core_0_dtlb_way 4
core_0_dtlb_rq_size 16
core_0_dtlb_wq_size 16
core_0_dtlb_pq_size 0
core_0_dtlb_mshr_size 8
core_0_dtlb_hit_latency 1
core_0_dtlb_fill_latency 1
core_0_dtlb_max_tag_check 2
core_0_dtlb_max_fill 2
core_0_stlb_set 128
core_0_stlb_way 12
core_0_stlb_rq_size 32
core_0_stlb_wq_size 32
core_0_stlb_pq_size 0
core_0_stlb_mshr_size 16
core_0_stlb_hit_latency 4
core_0_stlb_fill_latency 4
core_0_stlb_max_tag_check 1
core_0_stlb_max_fill 1
core_0_l1i_set 64
core_0_l1i_way 8
core_0_l1i_rq_size 64
core_0_l1i_wq_size 64
core_0_l1i_pq_size 32
core_0_l1i_mshr_size 8
core_0_l1i_hit_latency 2
core_0_l1i_fill_latency 2
core_0_l1i_max_tag_check 2
core_0_l1i_max_fill 2
core_0_l1d_set 64
core_0_l1d_way 12
core_0_l1d_rq_size 64
core_0_l1d_wq_size 64
core_0_l1d_pq_size 8
core_0_l1d_mshr_size 16
core_0_l1d_hit_latency 2
core_0_l1d_fill_latency 3
core_0_l1d_max_tag_check 2
core_0_l1d_max_fill 2
core_0_l2c_set 1024
core_0_l2c_way 8
core_0_l2c_rq_size 32
core_0_l2c_wq_size 32
core_0_l2c_pq_size 16
core_0_l2c_mshr_size 32
core_0_l2c_hit_latency 5
core_0_l2c_fill_latency 5
core_0_l2c_max_tag_check 1
core_0_l2c_max_fill 1
llc_set 2048
llc_way 16
llc_rq_size 32
llc_wq_size 32
llc_pq_size 32
llc_mshr_size 64
llc_hit_latency 10
llc_fill_latency 10
llc_max_tag_check 1
llc_max_fill 1
dram_channels 1
dram_ranks 1
dram_bankgroups 8
dram_banks 4
dram_rows 65536
dram_columns 1024
dram_channel_width 8
dram_rq_size 64
dram_wq_size 64
dram_size 17179869184
core_0_itlb_prefetcher no
core_0_dtlb_prefetcher no
core_0_stlb_prefetcher no
core_0_l1i_prefetcher next_line
core_0_l1d_prefetcher vberti
core_0_l2c_prefetcher ip_stride
llc_prefetcher no
llc_replacement drrip

Core_0_instructions 100000002
Core_0_cycles 222591630
Core_0_IPC 0.449253
Core_0_branch_prediction_accuracy 93.5273
Core_0_branch_MPKI 10.5389
Core_0_average_ROB_occupancy_at_mispredict 67.0068

Core_0_ITLB_total_access 4594222
Core_0_ITLB_total_hit 4593300
Core_0_ITLB_total_miss 922
Core_0_ITLB_total_MPKI 0.00922
Core_0_ITLB_total_miss_rate 0.000200687
Core_0_ITLB_demand_access 4594222
Core_0_ITLB_demand_hit 4593300
Core_0_ITLB_demand_miss 922
Core_0_ITLB_demand_MPKI 0.00922
Core_0_ITLB_demand_miss_rate 0.000200687
Core_0_ITLB_load_access 4594222
Core_0_ITLB_load_hit 4593300
Core_0_ITLB_load_miss 922
Core_0_ITLB_load_MPKI 0.00922
Core_0_ITLB_load_miss_rate 0.000200687
Core_0_ITLB_rfo_access 0
Core_0_ITLB_rfo_hit 0
Core_0_ITLB_rfo_miss 0
Core_0_ITLB_rfo_MPKI 0
Core_0_ITLB_rfo_miss_rate 0
Core_0_ITLB_prefetch_access 0
Core_0_ITLB_prefetch_hit 0
Core_0_ITLB_prefetch_miss 0
Core_0_ITLB_prefetch_MPKI 0
Core_0_ITLB_prefetch_miss_rate 0
Core_0_ITLB_writeback_access 0
Core_0_ITLB_writeback_hit 0
Core_0_ITLB_writeback_miss 0
Core_0_ITLB_writeback_MPKI 0
Core_0_ITLB_writeback_miss_rate 0
Core_0_ITLB_prefetch_requested 0
Core_0_ITLB_prefetch_issued 0
Core_0_ITLB_prefetch_useful 0
Core_0_ITLB_prefetch_useless 0
Core_0_ITLB_prefetch_late 0
Core_0_ITLB_prefetch_fill 0
Core_0_ITLB_prefetch_too_early 0
Core_0_ITLB_prefetch_too_early_among_fill 0
Core_0_ITLB_prefetch_too_early_among_useless 0
Core_0_ITLB_prefetch_pollution_evict 0
Core_0_ITLB_prefetch_pollution_demand 0
Core_0_ITLB_prefetch_pollution_among_prefetch_fill 0
Core_0_ITLB_prefetch_accuracy 0
Core_0_ITLB_prefetch_coverage 0

Core_0_DTLB_total_access 40428867
Core_0_DTLB_total_hit 38335138
Core_0_DTLB_total_miss 2093729
Core_0_DTLB_total_MPKI 20.9373
Core_0_DTLB_total_miss_rate 0.051788
Core_0_DTLB_demand_access 40428867
Core_0_DTLB_demand_hit 38335138
Core_0_DTLB_demand_miss 2093729
Core_0_DTLB_demand_MPKI 20.9373
Core_0_DTLB_demand_miss_rate 0.051788
Core_0_DTLB_load_access 40428867
Core_0_DTLB_load_hit 38335138
Core_0_DTLB_load_miss 2093729
Core_0_DTLB_load_MPKI 20.9373
Core_0_DTLB_load_miss_rate 0.051788
Core_0_DTLB_rfo_access 0
Core_0_DTLB_rfo_hit 0
Core_0_DTLB_rfo_miss 0
Core_0_DTLB_rfo_MPKI 0
Core_0_DTLB_rfo_miss_rate 0
Core_0_DTLB_prefetch_access 0
Core_0_DTLB_prefetch_hit 0
Core_0_DTLB_prefetch_miss 0
Core_0_DTLB_prefetch_MPKI 0
Core_0_DTLB_prefetch_miss_rate 0
Core_0_DTLB_writeback_access 0
Core_0_DTLB_writeback_hit 0
Core_0_DTLB_writeback_miss 0
Core_0_DTLB_writeback_MPKI 0
Core_0_DTLB_writeback_miss_rate 0
Core_0_DTLB_prefetch_requested 0
Core_0_DTLB_prefetch_issued 0
Core_0_DTLB_prefetch_useful 0
Core_0_DTLB_prefetch_useless 0
Core_0_DTLB_prefetch_late 0
Core_0_DTLB_prefetch_fill 0
Core_0_DTLB_prefetch_too_early 0
Core_0_DTLB_prefetch_too_early_among_fill 0
Core_0_DTLB_prefetch_too_early_among_useless 0
Core_0_DTLB_prefetch_pollution_evict 0
Core_0_DTLB_prefetch_pollution_demand 0
Core_0_DTLB_prefetch_pollution_among_prefetch_fill 0
Core_0_DTLB_prefetch_accuracy 0
Core_0_DTLB_prefetch_coverage 0

Core_0_STLB_total_access 1542515
Core_0_STLB_total_hit 1344440
Core_0_STLB_total_miss 198075
Core_0_STLB_total_MPKI 1.98075
Core_0_STLB_total_miss_rate 0.12841
Core_0_STLB_demand_access 1542515
Core_0_STLB_demand_hit 1344440
Core_0_STLB_demand_miss 198075
Core_0_STLB_demand_MPKI 1.98075
Core_0_STLB_demand_miss_rate 0.12841
Core_0_STLB_load_access 1542515
Core_0_STLB_load_hit 1344440
Core_0_STLB_load_miss 198075
Core_0_STLB_load_MPKI 1.98075
Core_0_STLB_load_miss_rate 0.12841
Core_0_STLB_rfo_access 0
Core_0_STLB_rfo_hit 0
Core_0_STLB_rfo_miss 0
Core_0_STLB_rfo_MPKI 0
Core_0_STLB_rfo_miss_rate 0
Core_0_STLB_prefetch_access 0
Core_0_STLB_prefetch_hit 0
Core_0_STLB_prefetch_miss 0
Core_0_STLB_prefetch_MPKI 0
Core_0_STLB_prefetch_miss_rate 0
Core_0_STLB_writeback_access 0
Core_0_STLB_writeback_hit 0
Core_0_STLB_writeback_miss 0
Core_0_STLB_writeback_MPKI 0
Core_0_STLB_writeback_miss_rate 0
Core_0_STLB_prefetch_requested 0
Core_0_STLB_prefetch_issued 0
Core_0_STLB_prefetch_useful 0
Core_0_STLB_prefetch_useless 0
Core_0_STLB_prefetch_late 0
Core_0_STLB_prefetch_fill 0
Core_0_STLB_prefetch_too_early 0
Core_0_STLB_prefetch_too_early_among_fill 0
Core_0_STLB_prefetch_too_early_among_useless 0
Core_0_STLB_prefetch_pollution_evict 0
Core_0_STLB_prefetch_pollution_demand 0
Core_0_STLB_prefetch_pollution_among_prefetch_fill 0
Core_0_STLB_prefetch_accuracy 0
Core_0_STLB_prefetch_coverage 0

Core_0_L1I_total_access 5164907
Core_0_L1I_total_hit 5158253
Core_0_L1I_total_miss 6654
Core_0_L1I_total_MPKI 0.06654
Core_0_L1I_total_miss_rate 0.00128831
Core_0_L1I_demand_access 5164907
Core_0_L1I_demand_hit 5158253
Core_0_L1I_demand_miss 6654
Core_0_L1I_demand_MPKI 0.06654
Core_0_L1I_demand_miss_rate 0.00128831
Core_0_L1I_load_access 5164907
Core_0_L1I_load_hit 5158253
Core_0_L1I_load_miss 6654
Core_0_L1I_load_MPKI 0.06654
Core_0_L1I_load_miss_rate 0.00128831
Core_0_L1I_rfo_access 0
Core_0_L1I_rfo_hit 0
Core_0_L1I_rfo_miss 0
Core_0_L1I_rfo_MPKI 0
Core_0_L1I_rfo_miss_rate 0
Core_0_L1I_prefetch_access 0
Core_0_L1I_prefetch_hit 0
Core_0_L1I_prefetch_miss 0
Core_0_L1I_prefetch_MPKI 0
Core_0_L1I_prefetch_miss_rate 0
Core_0_L1I_writeback_access 0
Core_0_L1I_writeback_hit 0
Core_0_L1I_writeback_miss 0
Core_0_L1I_writeback_MPKI 0
Core_0_L1I_writeback_miss_rate 0
Core_0_L1I_prefetch_requested 0
Core_0_L1I_prefetch_issued 0
Core_0_L1I_prefetch_useful 0
Core_0_L1I_prefetch_useless 0
Core_0_L1I_prefetch_late 0
Core_0_L1I_prefetch_fill 0
Core_0_L1I_prefetch_too_early 0
Core_0_L1I_prefetch_too_early_among_fill 0
Core_0_L1I_prefetch_too_early_among_useless 0
Core_0_L1I_prefetch_pollution_evict 0
Core_0_L1I_prefetch_pollution_demand 0
Core_0_L1I_prefetch_pollution_among_prefetch_fill 0
Core_0_L1I_prefetch_accuracy 0
Core_0_L1I_prefetch_coverage 0

Core_0_L1D_total_access 45134131
Core_0_L1D_total_hit 31872781
Core_0_L1D_total_miss 13261350
Core_0_L1D_total_MPKI 132.613
Core_0_L1D_total_miss_rate 0.293821
Core_0_L1D_demand_access 19174686
Core_0_L1D_demand_hit 13050175
Core_0_L1D_demand_miss 6124511
Core_0_L1D_demand_MPKI 61.2451
Core_0_L1D_demand_miss_rate 0.319406
Core_0_L1D_load_access 19174686
Core_0_L1D_load_hit 13050175
Core_0_L1D_load_miss 6124511
Core_0_L1D_load_MPKI 61.2451
Core_0_L1D_load_miss_rate 0.319406
Core_0_L1D_rfo_access 0
Core_0_L1D_rfo_hit 0
Core_0_L1D_rfo_miss 0
Core_0_L1D_rfo_MPKI 0
Core_0_L1D_rfo_miss_rate 0
Core_0_L1D_prefetch_access 15614439
Core_0_L1D_prefetch_hit 11582590
Core_0_L1D_prefetch_miss 4031849
Core_0_L1D_prefetch_MPKI 40.3185
Core_0_L1D_prefetch_miss_rate 0.258213
Core_0_L1D_writeback_access 10345006
Core_0_L1D_writeback_hit 7240016
Core_0_L1D_writeback_miss 3104990
Core_0_L1D_writeback_MPKI 31.0499
Core_0_L1D_writeback_miss_rate 0.300144
Core_0_L1D_prefetch_requested 163191743
Core_0_L1D_prefetch_issued 17078409
Core_0_L1D_prefetch_useful 1138625
Core_0_L1D_prefetch_useless 211911
Core_0_L1D_prefetch_late 66944
Core_0_L1D_prefetch_fill 1283628
Core_0_L1D_prefetch_too_early 21796
Core_0_L1D_prefetch_too_early_among_fill 0.01698
Core_0_L1D_prefetch_too_early_among_useless 0.102855
Core_0_L1D_prefetch_pollution_evict 90911
Core_0_L1D_prefetch_pollution_demand 89508
Core_0_L1D_cross_page_pf_translation_only_requested 22093389
Core_0_L1D_cross_page_pf_translation_only_issued 1463975
Core_0_L1D_cross_page_pf_translation_only_dropped 1463975
Core_0_L1D_prefetch_pollution_among_prefetch_fill 0.0708235
Core_0_L1D_prefetch_accuracy 0.0666704
Core_0_L1D_prefetch_coverage 0.156768

Core_0_L2C_total_access 15187388
Core_0_L2C_total_hit 8112298
Core_0_L2C_total_miss 7075090
Core_0_L2C_total_MPKI 70.7509
Core_0_L2C_total_miss_rate 0.465853
Core_0_L2C_demand_access 5594571
Core_0_L2C_demand_hit 2062170
Core_0_L2C_demand_miss 3532401
Core_0_L2C_demand_MPKI 35.324
Core_0_L2C_demand_miss_rate 0.631398
Core_0_L2C_load_access 4370913
Core_0_L2C_load_hit 1726551
Core_0_L2C_load_miss 2644362
Core_0_L2C_load_MPKI 26.4436
Core_0_L2C_load_miss_rate 0.604991
Core_0_L2C_rfo_access 1223658
Core_0_L2C_rfo_hit 335619
Core_0_L2C_rfo_miss 888039
Core_0_L2C_rfo_MPKI 8.88039
Core_0_L2C_rfo_miss_rate 0.725725
Core_0_L2C_prefetch_access 6311947
Core_0_L2C_prefetch_hit 2769388
Core_0_L2C_prefetch_miss 3542559
Core_0_L2C_prefetch_MPKI 35.4256
Core_0_L2C_prefetch_miss_rate 0.561247
Core_0_L2C_writeback_access 3280870
Core_0_L2C_writeback_hit 3280740
Core_0_L2C_writeback_miss 130
Core_0_L2C_writeback_MPKI 0.0013
Core_0_L2C_writeback_miss_rate 3.96236e-05
Core_0_L2C_prefetch_requested 2460350
Core_0_L2C_prefetch_issued 2430699
Core_0_L2C_prefetch_useful 541506
Core_0_L2C_prefetch_useless 192167
Core_0_L2C_prefetch_late 99005
Core_0_L2C_prefetch_fill 2062369
Core_0_L2C_prefetch_too_early 27542
Core_0_L2C_prefetch_too_early_among_fill 0.0133545
Core_0_L2C_prefetch_too_early_among_useless 0.143323
Core_0_L2C_prefetch_pollution_evict 294953
Core_0_L2C_prefetch_pollution_demand 292020
Core_0_L2C_prefetch_pollution_among_prefetch_fill 0.143017
Core_0_L2C_prefetch_accuracy 0.222778
Core_0_L2C_prefetch_coverage 0.132921

Core_0_LLC_total_access 8042665
Core_0_LLC_total_hit 3696431
Core_0_LLC_total_miss 4346234
Core_0_LLC_total_MPKI 43.4623
Core_0_LLC_total_miss_rate 0.540397
Core_0_LLC_demand_access 3363754
Core_0_LLC_demand_hit 1309238
Core_0_LLC_demand_miss 2054516
Core_0_LLC_demand_MPKI 20.5452
Core_0_LLC_demand_miss_rate 0.610781
Core_0_LLC_load_access 2519347
Core_0_LLC_load_hit 1037704
Core_0_LLC_load_miss 1481643
Core_0_LLC_load_MPKI 14.8164
Core_0_LLC_load_miss_rate 0.588106
Core_0_LLC_rfo_access 844407
Core_0_LLC_rfo_hit 271534
Core_0_LLC_rfo_miss 572873
Core_0_LLC_rfo_MPKI 5.72873
Core_0_LLC_rfo_miss_rate 0.678432
Core_0_LLC_prefetch_access 2412656
Core_0_LLC_prefetch_hit 645449
Core_0_LLC_prefetch_miss 1767207
Core_0_LLC_prefetch_MPKI 17.6721
Core_0_LLC_prefetch_miss_rate 0.732474
Core_0_LLC_writeback_access 2266255
Core_0_LLC_writeback_hit 1741744
Core_0_LLC_writeback_miss 524511
Core_0_LLC_writeback_MPKI 5.24511
Core_0_LLC_writeback_miss_rate 0.231444
Core_0_LLC_prefetch_requested 0
Core_0_LLC_prefetch_issued 0
Core_0_LLC_prefetch_useful 0
Core_0_LLC_prefetch_useless 0
Core_0_LLC_prefetch_late 0
Core_0_LLC_prefetch_fill 1668515
Core_0_LLC_prefetch_too_early 0
Core_0_LLC_prefetch_too_early_among_fill 0
Core_0_LLC_prefetch_too_early_among_useless 0
Core_0_LLC_prefetch_pollution_evict 237874
Core_0_LLC_prefetch_pollution_demand 237874
Core_0_LLC_prefetch_pollution_among_prefetch_fill 0.142566
Core_0_LLC_prefetch_accuracy 0
Core_0_LLC_prefetch_coverage 0

[DRAM Statistics]
Channel_0_RQ_row_buffer_hit 145350
Channel_0_RQ_row_buffer_miss 3599704
Channel_0_WQ_row_buffer_hit 229233
Channel_0_WQ_row_buffer_miss 979978
Channel_0_WQ_full 2971
Channel_0_dbus_congested 13605649
DRAM_total_RQ_row_buffer_hit 145350
DRAM_total_RQ_row_buffer_miss 3599704
DRAM_total_WQ_row_buffer_hit 229233
DRAM_total_WQ_row_buffer_miss 979978
DRAM_total_WQ_full 2971
DRAM_total_dbus_congested 13605649
DRAM_avg_congested_cycle 6.80075

====== DRAM_RQ_TRAFFIC ========
DRAM_RQ_READ_TRAFFIC_BREAKDOWN:
data_demand_read.count = 2038059
data_demand_read.share = 54.37%

inst_demand_read.count = 3910
inst_demand_read.share = 0.10%

cache_inst_prefetch.count = 0
cache_inst_prefetch.share = 0.00%

cache_data_prefetch.count = 1681073
cache_data_prefetch.share = 44.85%

stlb_data_demand.count = 21402
stlb_data_demand.share = 0.57%

stlb_inst_demand.count = 205
stlb_inst_demand.share = 0.01%

stlb_l1i_pref.count = 0
stlb_l1i_pref.share = 0.00%

stlb_l1d_pref.count = 3732
stlb_l1d_pref.share = 0.10%

DRAM_RQ_READ_TRAFFIC_SUMMARY:
cache_demand.count = 2041969
cache_demand.share = 54.48%

cache_prefetch.count = 1681073
cache_prefetch.share = 44.85%

stlb_demand.count = 21607
stlb_demand.share = 0.58%

stlb_prefetch.count = 3732
stlb_prefetch.share = 0.10%

DRAM_RQ_READ_TRAFFIC_DEBUG:
total_classified_read.count = 3748381
unclassified_read.count = 0
total_read_with_other.count = 3748381

classified_plus_unclassified_check.count = 3748381
dram_rq_read_total_observed.count = 3748381
dram_rq_read_total_observed.per_1K_instructions = 37.4838

STLB_MISS_PTW_DRAM_TOUCH_BREAKDOWN:
stlb_miss_total.count = 198075

stlb_miss_touch_dram.count = 25103
stlb_miss_touch_dram.share = 12.67%

stlb_miss_no_dram_touch.count = 172972
stlb_miss_no_dram_touch.share = 87.33%

STLB_MISS_PTW_DRAM_TOUCH_DEBUG:
stlb_miss_touch_plus_no_touch.count = 198075
stlb_miss_total_check.count = 198075

======STLB miss causes ========
Core_0_STLB_miss_cause_breakdown
Core_0_STLB_cause_Demand_Data_miss 160663
Core_0_STLB_cause_Demand_Data_miss_rate 0.104157
Core_0_STLB_cause_Demand_Instruction_miss 275
Core_0_STLB_cause_Demand_Instruction_miss_rate 0.00017828
Core_0_STLB_cause_L1D_Prefetch_miss 37137
Core_0_STLB_cause_L1D_Prefetch_miss_rate 0.0240756
Core_0_STLB_cause_L1D_Prefetch_Same_Page_miss 0
Core_0_STLB_cause_L1D_Prefetch_Same_Page_miss_rate 0
Core_0_STLB_cause_L1D_Prefetch_Cross_Page_miss 37137
Core_0_STLB_cause_L1D_Prefetch_Cross_Page_miss_rate 0.0240756
Core_0_STLB_cause_L1I_Prefetch_miss 0
Core_0_STLB_cause_L1I_Prefetch_miss_rate 0
Core_0_STLB_cause_Other_miss 0
Core_0_STLB_cause_Other_miss_rate 0
Core_0_STLB_Demand_miss 160938
Core_0_STLB_Demand_miss_rate 0.104335
Core_0_STLB_L1D_Prefetch_miss 37137
Core_0_STLB_L1D_Prefetch_miss_rate 0.0240756
Core_0_STLB_Other_miss 0
Core_0_STLB_Other_miss_rate 0

========== vBerti-TLB Cross-page Flow Stats ==========

Core_0_vBerti_Requested 163191743
Core_0_vBerti_Cross_page_prefetch_in_Requested 22093389
Core_0_vBerti_Same_page_prefetch_in_Requested 141098354
Core_0_vBerti_Cross_page_prefetch_of_Requested 0.135383
Core_0_vBerti_Issued 17078409
Core_0_vBerti_InPQ_Same_page_prefetch 15614434
Core_0_vBerti_InPQ_Cross_page_prefetch 1463975
Core_0_vBerti_PQ_Drop_Rate 0.895348
Core_0_vBerti_InPQ_Cross_page_prefetch_of_Requested 0.00897089
Core_0_vBerti_Cross_page_PQ_Drop_rate 0.933737
Core_0_vBerti_Cross_page_prefetch_of_Issued 0.0857208
Core_0_CP_PF_PQFULL_drop 20629414
Core_0_CP_PF_PQFULL_TLB_rescue_enqueued 0
Core_0_CP_PF_PQFULL_TLB_rescue_issued 0
Core_0_CP_PF_PQFULL_TLB_rescue_translated 0

========= DTLB_vBerti Prefetch Stats =========
Core_0_DTLB_demand_access 28562202
Core_0_DTLB_demand_hit 26612957
Core_0_DTLB_demand_miss 1949245
Core_0_DTLB_demand_mshr_merge 484458
Core_0_DTLB_demand_fill 1466024
Core_0_DTLB_demand_miss_rate 0.0682456
Core_0_DTLB_demand_mpki 19.4924
Core_0_DTLB_vberti_prefetch_access 11866665
Core_0_DTLB_vberti_prefetch_hit 11722181
Core_0_DTLB_vberti_prefetch_miss 144484
Core_0_DTLB_vberti_prefetch_mshr_merge 67031
Core_0_DTLB_vberti_prefetch_fill 76216
Core_0_DTLB_vberti_prefetch_miss_rate 0.0121756
Core_0_DTLB_vberti_prefetch_mpki 1.44484

=== DTLB_vBerti Same/Cross-page Prefetch Stats ===
Core_0_DTLB_vberti_same_page_prefetch 10863841
Core_0_DTLB_vberti_same_page_prefetch_hit 10862824
Core_0_DTLB_vberti_same_page_prefetch_miss 1017
Core_0_DTLB_vberti_same_page_prefetch_mshr_merge 518
Core_0_DTLB_vberti_same_page_prefetch_fill 471
Core_0_DTLB_vberti_same_page_prefetch_miss_rate 9.36133e-05
Core_0_DTLB_vberti_same_page_prefetch_mpki 0.01017
Core_0_DTLB_vberti_cross_page_prefetch 1002824
Core_0_DTLB_vberti_cross_page_prefetch_hit 859357
Core_0_DTLB_vberti_cross_page_prefetch_miss 143467
Core_0_DTLB_vberti_cross_page_prefetch_mshr_merge 66513
Core_0_DTLB_vberti_cross_page_prefetch_fill 75745
Core_0_DTLB_vberti_cross_page_prefetch_miss_rate 0.143063
Core_0_DTLB_vberti_cross_page_prefetch_mpki 1.43467
Core_0_DTLB_same_page_prefetch_miss_rate 9.36133e-05
Core_0_DTLB_same_page_prefetch_mpki 0.01017
Core_0_DTLB_cross_page_prefetch_miss_rate 0.143063
Core_0_DTLB_cross_page_prefetch_mpki 1.43467
Core_0_DTLB_cross_page_prefetch_issued 1002824
Core_0_DTLB_cross_page_prefetch_lookups 1002824
Core_0_DTLB_cross_page_prefetch_useful 46439
Core_0_DTLB_cross_page_prefetch_useless 30515
Core_0_DTLB_cross_page_prefetch_late 1209
Core_0_DTLB_cross_page_prefetch_too_early 7790
Core_0_DTLB_cross_page_prefetch_too_early_among_fill 0.102845
Core_0_DTLB_cross_page_prefetch_too_early_among_useless 0.255284
Core_0_DTLB_cross_page_prefetch_pollution_evict 26667
Core_0_DTLB_cross_page_prefetch_pollution_demand 24207
Core_0_DTLB_cross_page_prefetch_pollution_among_prefetch_fill 0.352063
Core_0_DTLB_cross_page_prefetch_accuracy 0.0463082
Core_0_DTLB_cross_page_prefetch_coverage 0.0232697

========= STLB_vBerti Prefetch Stats =========
Core_0_STLB_demand_access 1465062
Core_0_STLB_demand_hit 1304124
Core_0_STLB_demand_miss 160938
Core_0_STLB_demand_mshr_merge 0
Core_0_STLB_demand_fill 160938
Core_0_STLB_demand_miss_rate 0.109851
Core_0_STLB_demand_mpki 1.60938
Core_0_STLB_vberti_prefetch_access 77453
Core_0_STLB_vberti_prefetch_hit 40316
Core_0_STLB_vberti_prefetch_miss 37137
Core_0_STLB_vberti_prefetch_mshr_merge 0
Core_0_STLB_vberti_prefetch_fill 37137
Core_0_STLB_vberti_prefetch_miss_rate 0.479478
Core_0_STLB_vberti_prefetch_mpki 0.37137

=== STLB_vBerti Same/Cross-page Prefetch Stats ===
Core_0_STLB_vberti_same_page_prefetch 499
Core_0_STLB_vberti_same_page_prefetch_hit 499
Core_0_STLB_vberti_same_page_prefetch_miss 0
Core_0_STLB_vberti_same_page_prefetch_mshr_merge 0
Core_0_STLB_vberti_same_page_prefetch_fill 0
Core_0_STLB_vberti_same_page_prefetch_miss_rate 0
Core_0_STLB_vberti_same_page_prefetch_mpki 0
Core_0_STLB_vberti_cross_page_prefetch 76954
Core_0_STLB_vberti_cross_page_prefetch_hit 39817
Core_0_STLB_vberti_cross_page_prefetch_miss 37137
Core_0_STLB_vberti_cross_page_prefetch_mshr_merge 0
Core_0_STLB_vberti_cross_page_prefetch_fill 37137
Core_0_STLB_vberti_cross_page_prefetch_miss_rate 0.482587
Core_0_STLB_vberti_cross_page_prefetch_mpki 0.37137
Core_0_STLB_same_page_prefetch_miss_rate 0
Core_0_STLB_same_page_prefetch_mpki 0
Core_0_STLB_cross_page_prefetch_miss_rate 0.482587
Core_0_STLB_cross_page_prefetch_mpki 0.37137
Core_0_STLB_cross_page_prefetch_issued 76954
Core_0_STLB_cross_page_prefetch_lookups 76954
Core_0_STLB_cross_page_prefetch_useful 8849
Core_0_STLB_cross_page_prefetch_useless 28288
Core_0_STLB_cross_page_prefetch_late 0
Core_0_STLB_cross_page_prefetch_too_early 7937
Core_0_STLB_cross_page_prefetch_too_early_among_fill 0.213722
Core_0_STLB_cross_page_prefetch_too_early_among_useless 0.280578
Core_0_STLB_cross_page_prefetch_pollution_evict 15878
Core_0_STLB_cross_page_prefetch_pollution_demand 14269
Core_0_STLB_cross_page_prefetch_pollution_among_prefetch_fill 0.427552
Core_0_STLB_cross_page_prefetch_accuracy 0.114991
Core_0_STLB_cross_page_prefetch_coverage 0.0521182

========= STLB Cross-page Prefetch Buffer Stats =========
Core_0_STLB_raw_demand_miss 160663
Core_0_CP_PB_insert 0
Core_0_CP_PB_demand_hit 0
Core_0_STLB_PB_demand_miss 160663
Core_0_CP_PB_coverage 0
Core_0_STLB_raw_demand_mpki 1.60663
Core_0_STLB_PB_demand_mpki 1.60663
Core_0_CP_PB_demand_hit_mpki 0

Core_0_TLB_demand_miss_rate 0.00563465
Core_0_TLB_demand_mpki 1.60938
Core_0_TLB_same_page_prefetch_miss_rate 0
Core_0_TLB_same_page_prefetch_mpki 0
Core_0_TLB_cross_page_prefetch_miss_rate 0.0370324
Core_0_TLB_cross_page_prefetch_mpki 0.37137
Core_0_TLB_cross_page_prefetch_issued 1002824
Core_0_TLB_cross_page_prefetch_lookups 1002824
Core_0_TLB_cross_page_prefetch_useful 18786
Core_0_TLB_cross_page_prefetch_useless 18347
Core_0_TLB_cross_page_prefetch_late 576
Core_0_TLB_cross_page_prefetch_too_early 3911
Core_0_TLB_cross_page_prefetch_too_early_among_fill 0.0346468
Core_0_TLB_cross_page_prefetch_too_early_among_useless 0.213168
Core_0_TLB_cross_page_prefetch_accuracy 0.0187331
Core_0_TLB_cross_page_prefetch_coverage 0.104527
====== vBerti internal metric ========
Core_0_vBerti_end_to_end_issued 15614434
Core_0_vBerti_end_to_end_useful 587771
Core_0_vBerti_end_to_end_late 108537
Core_0_vBerti_end_to_end_accuracy 0.0376428
Core_0_vBerti_end_to_end_timely_accuracy 0.0306917
BERTI TO_L1: 60779847 TO_L2: 80318507 TO_L2_BC_MSHR: 49531509
BERTI AVG_LAT: 141.395 NUM_TRACK_LATENCY: 6926237 NUM_CANT_TRACK_LATENCY: 7
BERTI CROSS_PAGE 22093389 NO_CROSS_PAGE: 141098354
BERTI FOUND_BERTI: 34631405 NO_FOUND_BERTI: 12777284
BERTI AVERAGE_ISSUED: 2.49667
