[VMEM] WARNING: physical memory size is smaller than virtual memory size.

*** ChampSim Multicore Out-of-Order Simulator ***
Warmup Instructions: 50000000
Simulation Instructions: 100000000
Number of CPUs: 1
Page size: 4096
Core 0: /data0/tzh/champsim_traces/Ligra/ligra_PageRank.com-lj.ungraph.gcc_6.3.0_O3.drop_21750M.length_250M.champsimtrace.xz
VBerti Prefetcher
BERTI HASH ENTANGLING
BERTI IP MASK ffff
Off-chip DRAM Size: 16 GiB Channels: 1 Width: 64-bit Data Rate: 3205 MT/s
Warmup halting CPU 0 at instruction 50000003 cycle 13113747 for remainder of phase
Warmup finished CPU 0 instructions: 50000003 cycles: 13113747 cumulative IPC: 3.813 (Simulation time: 00 hr 03 min 55 sec)
Warmup complete CPU 0 instructions: 50000003 cycles: 13113747 cumulative IPC: 3.813 (Simulation time: 00 hr 03 min 55 sec)
Simulation finished CPU 0 instructions: 100000000 cycles: 169362252 cumulative IPC: 0.5905 (Simulation time: 00 hr 25 min 24 sec)
Simulation complete CPU 0 instructions: 100000000 cycles: 169362252 cumulative IPC: 0.5905 (Simulation time: 00 hr 25 min 24 sec)

ChampSim completed all CPUs

=== Simulation ===
CPU 0 runs /data0/tzh/champsim_traces/Ligra/ligra_PageRank.com-lj.ungraph.gcc_6.3.0_O3.drop_21750M.length_250M.champsimtrace.xz

Region of Interest Statistics

CPU 0 cumulative IPC: 0.5905 instructions: 100000000 cycles: 169362252
CPU 0 Branch Prediction Accuracy: 95.97% MPKI: 4.517 Average ROB Occupancy at Mispredict: 220.8
Branch type MPKI
BRANCH_DIRECT_JUMP: 0
BRANCH_INDIRECT: 0
BRANCH_CONDITIONAL: 4.517
BRANCH_DIRECT_CALL: 0
BRANCH_INDIRECT_CALL: 0
BRANCH_RETURN: 0

cpu0->cpu0_STLB TOTAL        ACCESS:    8138898 HIT:    5059992 MISS:    3078906 MSHR_MERGE:          0
cpu0->cpu0_STLB LOAD         ACCESS:    8138898 HIT:    5059992 MISS:    3078906 MSHR_MERGE:          0
cpu0->cpu0_STLB RFO          ACCESS:          0 HIT:          0 MISS:          0 MSHR_MERGE:          0
cpu0->cpu0_STLB PREFETCH     ACCESS:          0 HIT:          0 MISS:          0 MSHR_MERGE:          0
cpu0->cpu0_STLB WRITE        ACCESS:          0 HIT:          0 MISS:          0 MSHR_MERGE:          0
cpu0->cpu0_STLB TRANSLATION  ACCESS:          0 HIT:          0 MISS:          0 MSHR_MERGE:          0
cpu0->cpu0_STLB PREFETCH REQUESTED:          0 ISSUED:          0 USEFUL:          0 USELESS:          0 LATE:          0 TOO_EARLY:          0
cpu0->cpu0_STLB AVERAGE MISS LATENCY: 36.32 cycles
cpu0->cpu0_L2C TOTAL        ACCESS:   11988570 HIT:    4381533 MISS:    7607037 MSHR_MERGE:     283580
cpu0->cpu0_L2C LOAD         ACCESS:    7783538 HIT:    1503812 MISS:    6279726 MSHR_MERGE:       6123
cpu0->cpu0_L2C RFO          ACCESS:         48 HIT:         48 MISS:          0 MSHR_MERGE:          0
cpu0->cpu0_L2C PREFETCH     ACCESS:    1762906 HIT:     785034 MISS:     977872 MSHR_MERGE:     277457
cpu0->cpu0_L2C WRITE        ACCESS:      56580 HIT:      56580 MISS:          0 MSHR_MERGE:          0
cpu0->cpu0_L2C TRANSLATION  ACCESS:    2385498 HIT:    2036059 MISS:     349439 MSHR_MERGE:          0
cpu0->cpu0_L2C PREFETCH REQUESTED:     721117 ISSUED:     721076 USEFUL:     214515 USELESS:      79203 LATE:       5601 TOO_EARLY:      25884
cpu0->cpu0_L2C AVERAGE MISS LATENCY: 199.2 cycles
cpu0->cpu0_L1I TOTAL        ACCESS:    2979003 HIT:    2979003 MISS:          0 MSHR_MERGE:          0
cpu0->cpu0_L1I LOAD         ACCESS:    2979003 HIT:    2979003 MISS:          0 MSHR_MERGE:          0
cpu0->cpu0_L1I RFO          ACCESS:          0 HIT:          0 MISS:          0 MSHR_MERGE:          0
cpu0->cpu0_L1I PREFETCH     ACCESS:          0 HIT:          0 MISS:          0 MSHR_MERGE:          0
cpu0->cpu0_L1I WRITE        ACCESS:          0 HIT:          0 MISS:          0 MSHR_MERGE:          0
cpu0->cpu0_L1I TRANSLATION  ACCESS:          0 HIT:          0 MISS:          0 MSHR_MERGE:          0
cpu0->cpu0_L1I PREFETCH REQUESTED:          0 ISSUED:          0 USEFUL:          0 USELESS:          0 LATE:          0 TOO_EARLY:          0
cpu0->cpu0_L1I AVERAGE MISS LATENCY: - cycles
cpu0->cpu0_L1D TOTAL        ACCESS:   45236670 HIT:   33763538 MISS:   11473132 MSHR_MERGE:     255502
cpu0->cpu0_L1D LOAD         ACCESS:   22808670 HIT:   14799224 MISS:    8009446 MSHR_MERGE:     225908
cpu0->cpu0_L1D RFO          ACCESS:          0 HIT:          0 MISS:          0 MSHR_MERGE:          0
cpu0->cpu0_L1D PREFETCH     ACCESS:   11478959 HIT:   10429387 MISS:    1049572 MSHR_MERGE:       1026
cpu0->cpu0_L1D WRITE        ACCESS:    4859615 HIT:    4859532 MISS:         83 MSHR_MERGE:         35
cpu0->cpu0_L1D TRANSLATION  ACCESS:    6089426 HIT:    3675395 MISS:    2414031 MSHR_MERGE:      28533
cpu0->cpu0_L1D PREFETCH REQUESTED:   54250558 ISSUED:   12532916 USEFUL:     525889 USELESS:       2351 LATE:        766 TOO_EARLY:       1488
cpu0->cpu0_L1D AVERAGE MISS LATENCY: 138.6 cycles
cpu0->cpu0_ITLB TOTAL        ACCESS:    2861343 HIT:    2861343 MISS:          0 MSHR_MERGE:          0
cpu0->cpu0_ITLB LOAD         ACCESS:    2861343 HIT:    2861343 MISS:          0 MSHR_MERGE:          0
cpu0->cpu0_ITLB RFO          ACCESS:          0 HIT:          0 MISS:          0 MSHR_MERGE:          0
cpu0->cpu0_ITLB PREFETCH     ACCESS:          0 HIT:          0 MISS:          0 MSHR_MERGE:          0
cpu0->cpu0_ITLB WRITE        ACCESS:          0 HIT:          0 MISS:          0 MSHR_MERGE:          0
cpu0->cpu0_ITLB TRANSLATION  ACCESS:          0 HIT:          0 MISS:          0 MSHR_MERGE:          0
cpu0->cpu0_ITLB PREFETCH REQUESTED:          0 ISSUED:          0 USEFUL:          0 USELESS:          0 LATE:          0 TOO_EARLY:          0
cpu0->cpu0_ITLB AVERAGE MISS LATENCY: - cycles
cpu0->cpu0_DTLB TOTAL        ACCESS:   37411251 HIT:   28692570 MISS:    8718681 MSHR_MERGE:     579784
cpu0->cpu0_DTLB LOAD         ACCESS:   37411251 HIT:   28692570 MISS:    8718681 MSHR_MERGE:     579784
cpu0->cpu0_DTLB RFO          ACCESS:          0 HIT:          0 MISS:          0 MSHR_MERGE:          0
cpu0->cpu0_DTLB PREFETCH     ACCESS:          0 HIT:          0 MISS:          0 MSHR_MERGE:          0
cpu0->cpu0_DTLB WRITE        ACCESS:          0 HIT:          0 MISS:          0 MSHR_MERGE:          0
cpu0->cpu0_DTLB TRANSLATION  ACCESS:          0 HIT:          0 MISS:          0 MSHR_MERGE:          0
cpu0->cpu0_DTLB PREFETCH REQUESTED:          0 ISSUED:          0 USEFUL:          0 USELESS:          0 LATE:          0 TOO_EARLY:          0
cpu0->cpu0_DTLB AVERAGE MISS LATENCY: 19.14 cycles
cpu0->LLC TOTAL        ACCESS:    7379927 HIT:    1904155 MISS:    5475772 MSHR_MERGE:      36431
cpu0->LLC LOAD         ACCESS:    6273603 HIT:    1516920 MISS:    4756683 MSHR_MERGE:       1747
cpu0->LLC RFO          ACCESS:          0 HIT:          0 MISS:          0 MSHR_MERGE:          0
cpu0->LLC PREFETCH     ACCESS:     700413 HIT:      44755 MISS:     655658 MSHR_MERGE:      34684
cpu0->LLC WRITE        ACCESS:      56472 HIT:      16391 MISS:      40081 MSHR_MERGE:          0
cpu0->LLC TRANSLATION  ACCESS:     349439 HIT:     326089 MISS:      23350 MSHR_MERGE:          0
cpu0->LLC PREFETCH REQUESTED:          0 ISSUED:          0 USEFUL:          0 USELESS:          0 LATE:          0 TOO_EARLY:          0
cpu0->LLC AVERAGE MISS LATENCY: 252.2 cycles

DRAM Statistics

Channel 0 RQ ROW_BUFFER_HIT:       6145
  ROW_BUFFER_MISS:    5393114
  AVG DBUS CONGESTED CYCLE: 3.749
Channel 0 WQ ROW_BUFFER_HIT:      14889
  ROW_BUFFER_MISS:      41223
  FULL:          0
Channel 0 REFRESHES ISSUED:      14114

[ROI Statistics]
[System Configuration]
num_cpus 1
cpu_freq 4000
fetch_width 6
decode_width 6
dispatch_width 6
execute_width 6
lq_width 2
sq_width 2
retire_width 6
scheduler_size 128
branch_mispredict_penalty 15
rob_size 352
lq_size 128
sq_size 72
ifetch_buffer_size 64
decode_buffer_size 32
dispatch_buffer_size 32
register_file_size 288
decode_latency 1
dispatch_latency 1
schedule_latency 1
execute_latency 1
page_size 4096
block_size 64
core_0_itlb_set 16
core_0_itlb_way 4
core_0_itlb_rq_size 16
core_0_itlb_wq_size 16
core_0_itlb_pq_size 0
core_0_itlb_mshr_size 8
core_0_itlb_hit_latency 1
core_0_itlb_fill_latency 1
core_0_itlb_max_tag_check 2
core_0_itlb_max_fill 2
core_0_dtlb_set 16
core_0_dtlb_way 4
core_0_dtlb_rq_size 16
core_0_dtlb_wq_size 16
core_0_dtlb_pq_size 0
core_0_dtlb_mshr_size 8
core_0_dtlb_hit_latency 1
core_0_dtlb_fill_latency 1
core_0_dtlb_max_tag_check 2
core_0_dtlb_max_fill 2
core_0_stlb_set 128
core_0_stlb_way 12
core_0_stlb_rq_size 32
core_0_stlb_wq_size 32
core_0_stlb_pq_size 0
core_0_stlb_mshr_size 16
core_0_stlb_hit_latency 4
core_0_stlb_fill_latency 4
core_0_stlb_max_tag_check 1
core_0_stlb_max_fill 1
core_0_l1i_set 64
core_0_l1i_way 8
core_0_l1i_rq_size 64
core_0_l1i_wq_size 64
core_0_l1i_pq_size 32
core_0_l1i_mshr_size 8
core_0_l1i_hit_latency 2
core_0_l1i_fill_latency 2
core_0_l1i_max_tag_check 2
core_0_l1i_max_fill 2
core_0_l1d_set 64
core_0_l1d_way 12
core_0_l1d_rq_size 64
core_0_l1d_wq_size 64
core_0_l1d_pq_size 8
core_0_l1d_mshr_size 16
core_0_l1d_hit_latency 2
core_0_l1d_fill_latency 3
core_0_l1d_max_tag_check 2
core_0_l1d_max_fill 2
core_0_l2c_set 1024
core_0_l2c_way 8
core_0_l2c_rq_size 32
core_0_l2c_wq_size 32
core_0_l2c_pq_size 16
core_0_l2c_mshr_size 32
core_0_l2c_hit_latency 5
core_0_l2c_fill_latency 5
core_0_l2c_max_tag_check 1
core_0_l2c_max_fill 1
llc_set 2048
llc_way 16
llc_rq_size 32
llc_wq_size 32
llc_pq_size 32
llc_mshr_size 64
llc_hit_latency 10
llc_fill_latency 10
llc_max_tag_check 1
llc_max_fill 1
dram_channels 1
dram_ranks 1
dram_bankgroups 8
dram_banks 4
dram_rows 65536
dram_columns 1024
dram_channel_width 8
dram_rq_size 64
dram_wq_size 64
dram_size 17179869184
core_0_itlb_prefetcher no
core_0_dtlb_prefetcher no
core_0_stlb_prefetcher no
core_0_l1i_prefetcher next_line
core_0_l1d_prefetcher vberti
core_0_l2c_prefetcher ip_stride
llc_prefetcher no
llc_replacement drrip

Core_0_instructions 100000000
Core_0_cycles 169362252
Core_0_IPC 0.59045
Core_0_branch_prediction_accuracy 95.9732
Core_0_branch_MPKI 4.51667
Core_0_average_ROB_occupancy_at_mispredict 220.789

Core_0_ITLB_total_access 2861343
Core_0_ITLB_total_hit 2861343
Core_0_ITLB_total_miss 0
Core_0_ITLB_total_MPKI 0
Core_0_ITLB_total_miss_rate 0
Core_0_ITLB_demand_access 2861343
Core_0_ITLB_demand_hit 2861343
Core_0_ITLB_demand_miss 0
Core_0_ITLB_demand_MPKI 0
Core_0_ITLB_demand_miss_rate 0
Core_0_ITLB_load_access 2861343
Core_0_ITLB_load_hit 2861343
Core_0_ITLB_load_miss 0
Core_0_ITLB_load_MPKI 0
Core_0_ITLB_load_miss_rate 0
Core_0_ITLB_rfo_access 0
Core_0_ITLB_rfo_hit 0
Core_0_ITLB_rfo_miss 0
Core_0_ITLB_rfo_MPKI 0
Core_0_ITLB_rfo_miss_rate 0
Core_0_ITLB_prefetch_access 0
Core_0_ITLB_prefetch_hit 0
Core_0_ITLB_prefetch_miss 0
Core_0_ITLB_prefetch_MPKI 0
Core_0_ITLB_prefetch_miss_rate 0
Core_0_ITLB_writeback_access 0
Core_0_ITLB_writeback_hit 0
Core_0_ITLB_writeback_miss 0
Core_0_ITLB_writeback_MPKI 0
Core_0_ITLB_writeback_miss_rate 0
Core_0_ITLB_prefetch_requested 0
Core_0_ITLB_prefetch_issued 0
Core_0_ITLB_prefetch_useful 0
Core_0_ITLB_prefetch_useless 0
Core_0_ITLB_prefetch_late 0
Core_0_ITLB_prefetch_fill 0
Core_0_ITLB_prefetch_too_early 0
Core_0_ITLB_prefetch_too_early_among_fill 0
Core_0_ITLB_prefetch_too_early_among_useless 0
Core_0_ITLB_prefetch_pollution_evict 0
Core_0_ITLB_prefetch_pollution_demand 0
Core_0_ITLB_prefetch_pollution_among_prefetch_fill 0
Core_0_ITLB_prefetch_accuracy 0
Core_0_ITLB_prefetch_coverage 0

Core_0_DTLB_total_access 37411251
Core_0_DTLB_total_hit 28692570
Core_0_DTLB_total_miss 8718681
Core_0_DTLB_total_MPKI 87.1868
Core_0_DTLB_total_miss_rate 0.23305
Core_0_DTLB_demand_access 37411251
Core_0_DTLB_demand_hit 28692570
Core_0_DTLB_demand_miss 8718681
Core_0_DTLB_demand_MPKI 87.1868
Core_0_DTLB_demand_miss_rate 0.23305
Core_0_DTLB_load_access 37411251
Core_0_DTLB_load_hit 28692570
Core_0_DTLB_load_miss 8718681
Core_0_DTLB_load_MPKI 87.1868
Core_0_DTLB_load_miss_rate 0.23305
Core_0_DTLB_rfo_access 0
Core_0_DTLB_rfo_hit 0
Core_0_DTLB_rfo_miss 0
Core_0_DTLB_rfo_MPKI 0
Core_0_DTLB_rfo_miss_rate 0
Core_0_DTLB_prefetch_access 0
Core_0_DTLB_prefetch_hit 0
Core_0_DTLB_prefetch_miss 0
Core_0_DTLB_prefetch_MPKI 0
Core_0_DTLB_prefetch_miss_rate 0
Core_0_DTLB_writeback_access 0
Core_0_DTLB_writeback_hit 0
Core_0_DTLB_writeback_miss 0
Core_0_DTLB_writeback_MPKI 0
Core_0_DTLB_writeback_miss_rate 0
Core_0_DTLB_prefetch_requested 0
Core_0_DTLB_prefetch_issued 0
Core_0_DTLB_prefetch_useful 0
Core_0_DTLB_prefetch_useless 0
Core_0_DTLB_prefetch_late 0
Core_0_DTLB_prefetch_fill 0
Core_0_DTLB_prefetch_too_early 0
Core_0_DTLB_prefetch_too_early_among_fill 0
Core_0_DTLB_prefetch_too_early_among_useless 0
Core_0_DTLB_prefetch_pollution_evict 0
Core_0_DTLB_prefetch_pollution_demand 0
Core_0_DTLB_prefetch_pollution_among_prefetch_fill 0
Core_0_DTLB_prefetch_accuracy 0
Core_0_DTLB_prefetch_coverage 0

Core_0_STLB_total_access 8138898
Core_0_STLB_total_hit 5059992
Core_0_STLB_total_miss 3078906
Core_0_STLB_total_MPKI 30.7891
Core_0_STLB_total_miss_rate 0.378295
Core_0_STLB_demand_access 8138898
Core_0_STLB_demand_hit 5059992
Core_0_STLB_demand_miss 3078906
Core_0_STLB_demand_MPKI 30.7891
Core_0_STLB_demand_miss_rate 0.378295
Core_0_STLB_load_access 8138898
Core_0_STLB_load_hit 5059992
Core_0_STLB_load_miss 3078906
Core_0_STLB_load_MPKI 30.7891
Core_0_STLB_load_miss_rate 0.378295
Core_0_STLB_rfo_access 0
Core_0_STLB_rfo_hit 0
Core_0_STLB_rfo_miss 0
Core_0_STLB_rfo_MPKI 0
Core_0_STLB_rfo_miss_rate 0
Core_0_STLB_prefetch_access 0
Core_0_STLB_prefetch_hit 0
Core_0_STLB_prefetch_miss 0
Core_0_STLB_prefetch_MPKI 0
Core_0_STLB_prefetch_miss_rate 0
Core_0_STLB_writeback_access 0
Core_0_STLB_writeback_hit 0
Core_0_STLB_writeback_miss 0
Core_0_STLB_writeback_MPKI 0
Core_0_STLB_writeback_miss_rate 0
Core_0_STLB_prefetch_requested 0
Core_0_STLB_prefetch_issued 0
Core_0_STLB_prefetch_useful 0
Core_0_STLB_prefetch_useless 0
Core_0_STLB_prefetch_late 0
Core_0_STLB_prefetch_fill 0
Core_0_STLB_prefetch_too_early 0
Core_0_STLB_prefetch_too_early_among_fill 0
Core_0_STLB_prefetch_too_early_among_useless 0
Core_0_STLB_prefetch_pollution_evict 0
Core_0_STLB_prefetch_pollution_demand 0
Core_0_STLB_prefetch_pollution_among_prefetch_fill 0
Core_0_STLB_prefetch_accuracy 0
Core_0_STLB_prefetch_coverage 0

Core_0_L1I_total_access 2979003
Core_0_L1I_total_hit 2979003
Core_0_L1I_total_miss 0
Core_0_L1I_total_MPKI 0
Core_0_L1I_total_miss_rate 0
Core_0_L1I_demand_access 2979003
Core_0_L1I_demand_hit 2979003
Core_0_L1I_demand_miss 0
Core_0_L1I_demand_MPKI 0
Core_0_L1I_demand_miss_rate 0
Core_0_L1I_load_access 2979003
Core_0_L1I_load_hit 2979003
Core_0_L1I_load_miss 0
Core_0_L1I_load_MPKI 0
Core_0_L1I_load_miss_rate 0
Core_0_L1I_rfo_access 0
Core_0_L1I_rfo_hit 0
Core_0_L1I_rfo_miss 0
Core_0_L1I_rfo_MPKI 0
Core_0_L1I_rfo_miss_rate 0
Core_0_L1I_prefetch_access 0
Core_0_L1I_prefetch_hit 0
Core_0_L1I_prefetch_miss 0
Core_0_L1I_prefetch_MPKI 0
Core_0_L1I_prefetch_miss_rate 0
Core_0_L1I_writeback_access 0
Core_0_L1I_writeback_hit 0
Core_0_L1I_writeback_miss 0
Core_0_L1I_writeback_MPKI 0
Core_0_L1I_writeback_miss_rate 0
Core_0_L1I_prefetch_requested 0
Core_0_L1I_prefetch_issued 0
Core_0_L1I_prefetch_useful 0
Core_0_L1I_prefetch_useless 0
Core_0_L1I_prefetch_late 0
Core_0_L1I_prefetch_fill 0
Core_0_L1I_prefetch_too_early 0
Core_0_L1I_prefetch_too_early_among_fill 0
Core_0_L1I_prefetch_too_early_among_useless 0
Core_0_L1I_prefetch_pollution_evict 0
Core_0_L1I_prefetch_pollution_demand 0
Core_0_L1I_prefetch_pollution_among_prefetch_fill 0
Core_0_L1I_prefetch_accuracy 0
Core_0_L1I_prefetch_coverage 0

Core_0_L1D_total_access 39147244
Core_0_L1D_total_hit 30088143
Core_0_L1D_total_miss 9059101
Core_0_L1D_total_MPKI 90.591
Core_0_L1D_total_miss_rate 0.231411
Core_0_L1D_demand_access 22808670
Core_0_L1D_demand_hit 14799224
Core_0_L1D_demand_miss 8009446
Core_0_L1D_demand_MPKI 80.0945
Core_0_L1D_demand_miss_rate 0.351158
Core_0_L1D_load_access 22808670
Core_0_L1D_load_hit 14799224
Core_0_L1D_load_miss 8009446
Core_0_L1D_load_MPKI 80.0945
Core_0_L1D_load_miss_rate 0.351158
Core_0_L1D_rfo_access 0
Core_0_L1D_rfo_hit 0
Core_0_L1D_rfo_miss 0
Core_0_L1D_rfo_MPKI 0
Core_0_L1D_rfo_miss_rate 0
Core_0_L1D_prefetch_access 11478959
Core_0_L1D_prefetch_hit 10429387
Core_0_L1D_prefetch_miss 1049572
Core_0_L1D_prefetch_MPKI 10.4957
Core_0_L1D_prefetch_miss_rate 0.0914344
Core_0_L1D_writeback_access 4859615
Core_0_L1D_writeback_hit 4859532
Core_0_L1D_writeback_miss 83
Core_0_L1D_writeback_MPKI 0.00083
Core_0_L1D_writeback_miss_rate 1.70795e-05
Core_0_L1D_prefetch_requested 54250558
Core_0_L1D_prefetch_issued 12532916
Core_0_L1D_prefetch_useful 525889
Core_0_L1D_prefetch_useless 2351
Core_0_L1D_prefetch_late 766
Core_0_L1D_prefetch_fill 527481
Core_0_L1D_prefetch_too_early 1488
Core_0_L1D_prefetch_too_early_among_fill 0.00282095
Core_0_L1D_prefetch_too_early_among_useless 0.632922
Core_0_L1D_prefetch_pollution_evict 96735
Core_0_L1D_prefetch_pollution_demand 96718
Core_0_L1D_cross_page_pf_translation_only_requested 8908591
Core_0_L1D_cross_page_pf_translation_only_issued 1053963
Core_0_L1D_cross_page_pf_translation_only_dropped 1053963
Core_0_L1D_prefetch_pollution_among_prefetch_fill 0.18339
Core_0_L1D_prefetch_accuracy 0.0419606
Core_0_L1D_prefetch_coverage 0.0616132

Core_0_L2C_total_access 9603072
Core_0_L2C_total_hit 2345474
Core_0_L2C_total_miss 7257598
Core_0_L2C_total_MPKI 72.576
Core_0_L2C_total_miss_rate 0.755758
Core_0_L2C_demand_access 7783586
Core_0_L2C_demand_hit 1503860
Core_0_L2C_demand_miss 6279726
Core_0_L2C_demand_MPKI 62.7973
Core_0_L2C_demand_miss_rate 0.806791
Core_0_L2C_load_access 7783538
Core_0_L2C_load_hit 1503812
Core_0_L2C_load_miss 6279726
Core_0_L2C_load_MPKI 62.7973
Core_0_L2C_load_miss_rate 0.806796
Core_0_L2C_rfo_access 48
Core_0_L2C_rfo_hit 48
Core_0_L2C_rfo_miss 0
Core_0_L2C_rfo_MPKI 0
Core_0_L2C_rfo_miss_rate 0
Core_0_L2C_prefetch_access 1762906
Core_0_L2C_prefetch_hit 785034
Core_0_L2C_prefetch_miss 977872
Core_0_L2C_prefetch_MPKI 9.77872
Core_0_L2C_prefetch_miss_rate 0.554693
Core_0_L2C_writeback_access 56580
Core_0_L2C_writeback_hit 56580
Core_0_L2C_writeback_miss 0
Core_0_L2C_writeback_MPKI 0
Core_0_L2C_writeback_miss_rate 0
Core_0_L2C_prefetch_requested 721117
Core_0_L2C_prefetch_issued 721076
Core_0_L2C_prefetch_useful 214515
Core_0_L2C_prefetch_useless 79203
Core_0_L2C_prefetch_late 5601
Core_0_L2C_prefetch_fill 616394
Core_0_L2C_prefetch_too_early 25884
Core_0_L2C_prefetch_too_early_among_fill 0.0419926
Core_0_L2C_prefetch_too_early_among_useless 0.326806
Core_0_L2C_prefetch_pollution_evict 212189
Core_0_L2C_prefetch_pollution_demand 211299
Core_0_L2C_prefetch_pollution_among_prefetch_fill 0.344242
Core_0_L2C_prefetch_accuracy 0.297493
Core_0_L2C_prefetch_coverage 0.0330316

Core_0_LLC_total_access 7030488
Core_0_LLC_total_hit 1578066
Core_0_LLC_total_miss 5452422
Core_0_LLC_total_MPKI 54.5242
Core_0_LLC_total_miss_rate 0.77554
Core_0_LLC_demand_access 6273603
Core_0_LLC_demand_hit 1516920
Core_0_LLC_demand_miss 4756683
Core_0_LLC_demand_MPKI 47.5668
Core_0_LLC_demand_miss_rate 0.758206
Core_0_LLC_load_access 6273603
Core_0_LLC_load_hit 1516920
Core_0_LLC_load_miss 4756683
Core_0_LLC_load_MPKI 47.5668
Core_0_LLC_load_miss_rate 0.758206
Core_0_LLC_rfo_access 0
Core_0_LLC_rfo_hit 0
Core_0_LLC_rfo_miss 0
Core_0_LLC_rfo_MPKI 0
Core_0_LLC_rfo_miss_rate 0
Core_0_LLC_prefetch_access 700413
Core_0_LLC_prefetch_hit 44755
Core_0_LLC_prefetch_miss 655658
Core_0_LLC_prefetch_MPKI 6.55658
Core_0_LLC_prefetch_miss_rate 0.936102
Core_0_LLC_writeback_access 56472
Core_0_LLC_writeback_hit 16391
Core_0_LLC_writeback_miss 40081
Core_0_LLC_writeback_MPKI 0.40081
Core_0_LLC_writeback_miss_rate 0.70975
Core_0_LLC_prefetch_requested 0
Core_0_LLC_prefetch_issued 0
Core_0_LLC_prefetch_useful 0
Core_0_LLC_prefetch_useless 0
Core_0_LLC_prefetch_late 0
Core_0_LLC_prefetch_fill 619226
Core_0_LLC_prefetch_too_early 0
Core_0_LLC_prefetch_too_early_among_fill 0
Core_0_LLC_prefetch_too_early_among_useless 0
Core_0_LLC_prefetch_pollution_evict 309297
Core_0_LLC_prefetch_pollution_demand 309297
Core_0_LLC_prefetch_pollution_among_prefetch_fill 0.49949
Core_0_LLC_prefetch_accuracy 0
Core_0_LLC_prefetch_coverage 0

[DRAM Statistics]
Channel_0_RQ_row_buffer_hit 6145
Channel_0_RQ_row_buffer_miss 5393114
Channel_0_WQ_row_buffer_hit 14889
Channel_0_WQ_row_buffer_miss 41223
Channel_0_WQ_full 0
Channel_0_dbus_congested 8987030
DRAM_total_RQ_row_buffer_hit 6145
DRAM_total_RQ_row_buffer_miss 5393114
DRAM_total_WQ_row_buffer_hit 14889
DRAM_total_WQ_row_buffer_miss 41223
DRAM_total_WQ_full 0
DRAM_total_dbus_congested 8987030
DRAM_avg_congested_cycle 3.74942

====== DRAM_RQ_TRAFFIC ========
DRAM_RQ_READ_TRAFFIC_BREAKDOWN:
data_demand_read.count = 4754936
data_demand_read.share = 88.07%

inst_demand_read.count = 0
inst_demand_read.share = 0.00%

cache_inst_prefetch.count = 0
cache_inst_prefetch.share = 0.00%

cache_data_prefetch.count = 620974
cache_data_prefetch.share = 11.50%

stlb_data_demand.count = 19673
stlb_data_demand.share = 0.36%

stlb_inst_demand.count = 0
stlb_inst_demand.share = 0.00%

stlb_l1i_pref.count = 0
stlb_l1i_pref.share = 0.00%

stlb_l1d_pref.count = 3677
stlb_l1d_pref.share = 0.07%

DRAM_RQ_READ_TRAFFIC_SUMMARY:
cache_demand.count = 4754936
cache_demand.share = 88.07%

cache_prefetch.count = 620974
cache_prefetch.share = 11.50%

stlb_demand.count = 19673
stlb_demand.share = 0.36%

stlb_prefetch.count = 3677
stlb_prefetch.share = 0.07%

DRAM_RQ_READ_TRAFFIC_DEBUG:
total_classified_read.count = 5399260
unclassified_read.count = 0
total_read_with_other.count = 5399260

classified_plus_unclassified_check.count = 5399260
dram_rq_read_total_observed.count = 5399260
dram_rq_read_total_observed.per_1K_instructions = 53.9926

STLB_MISS_PTW_DRAM_TOUCH_BREAKDOWN:
stlb_miss_total.count = 3078906

stlb_miss_touch_dram.count = 23416
stlb_miss_touch_dram.share = 0.76%

stlb_miss_no_dram_touch.count = 3055490
stlb_miss_no_dram_touch.share = 99.24%

STLB_MISS_PTW_DRAM_TOUCH_DEBUG:
stlb_miss_touch_plus_no_touch.count = 3078906
stlb_miss_total_check.count = 3078906

======STLB miss causes ========
Core_0_STLB_miss_cause_breakdown
Core_0_STLB_cause_Demand_Data_miss 2988195
Core_0_STLB_cause_Demand_Data_miss_rate 0.36715
Core_0_STLB_cause_Demand_Instruction_miss 0
Core_0_STLB_cause_Demand_Instruction_miss_rate 0
Core_0_STLB_cause_L1D_Prefetch_miss 90711
Core_0_STLB_cause_L1D_Prefetch_miss_rate 0.0111454
Core_0_STLB_cause_L1D_Prefetch_Same_Page_miss 37
Core_0_STLB_cause_L1D_Prefetch_Same_Page_miss_rate 4.54607e-06
Core_0_STLB_cause_L1D_Prefetch_Cross_Page_miss 90674
Core_0_STLB_cause_L1D_Prefetch_Cross_Page_miss_rate 0.0111408
Core_0_STLB_cause_L1I_Prefetch_miss 0
Core_0_STLB_cause_L1I_Prefetch_miss_rate 0
Core_0_STLB_cause_Other_miss 0
Core_0_STLB_cause_Other_miss_rate 0
Core_0_STLB_Demand_miss 2988195
Core_0_STLB_Demand_miss_rate 0.36715
Core_0_STLB_L1D_Prefetch_miss 90711
Core_0_STLB_L1D_Prefetch_miss_rate 0.0111454
Core_0_STLB_Other_miss 0
Core_0_STLB_Other_miss_rate 0

========== vBerti-TLB Cross-page Flow Stats ==========

Core_0_vBerti_Requested 54250558
Core_0_vBerti_Cross_page_prefetch_in_Requested 8908591
Core_0_vBerti_Same_page_prefetch_in_Requested 45341967
Core_0_vBerti_Cross_page_prefetch_of_Requested 0.164212
Core_0_vBerti_Issued 12532916
Core_0_vBerti_InPQ_Same_page_prefetch 11478953
Core_0_vBerti_InPQ_Cross_page_prefetch 1053963
Core_0_vBerti_PQ_Drop_Rate 0.768981
Core_0_vBerti_InPQ_Cross_page_prefetch_of_Requested 0.0194277
Core_0_vBerti_Cross_page_PQ_Drop_rate 0.881691
Core_0_vBerti_Cross_page_prefetch_of_Issued 0.0840956
Core_0_CP_PF_PQFULL_drop 7854628
Core_0_CP_PF_PQFULL_TLB_rescue_enqueued 0
Core_0_CP_PF_PQFULL_TLB_rescue_issued 0
Core_0_CP_PF_PQFULL_TLB_rescue_translated 0

========= DTLB_vBerti Prefetch Stats =========
Core_0_DTLB_demand_access 27409196
Core_0_DTLB_demand_hit 18979150
Core_0_DTLB_demand_miss 8430046
Core_0_DTLB_demand_mshr_merge 500263
Core_0_DTLB_demand_fill 7930012
Core_0_DTLB_demand_miss_rate 0.307563
Core_0_DTLB_demand_mpki 84.3005
Core_0_DTLB_vberti_prefetch_access 10002055
Core_0_DTLB_vberti_prefetch_hit 9713420
Core_0_DTLB_vberti_prefetch_miss 288635
Core_0_DTLB_vberti_prefetch_mshr_merge 79521
Core_0_DTLB_vberti_prefetch_fill 208886
Core_0_DTLB_vberti_prefetch_miss_rate 0.0288576
Core_0_DTLB_vberti_prefetch_mpki 2.88635

=== DTLB_vBerti Same/Cross-page Prefetch Stats ===
Core_0_DTLB_vberti_same_page_prefetch 9112313
Core_0_DTLB_vberti_same_page_prefetch_hit 9109311
Core_0_DTLB_vberti_same_page_prefetch_miss 3002
Core_0_DTLB_vberti_same_page_prefetch_mshr_merge 1414
Core_0_DTLB_vberti_same_page_prefetch_fill 1540
Core_0_DTLB_vberti_same_page_prefetch_miss_rate 0.000329444
Core_0_DTLB_vberti_same_page_prefetch_mpki 0.03002
Core_0_DTLB_vberti_cross_page_prefetch 889742
Core_0_DTLB_vberti_cross_page_prefetch_hit 604109
Core_0_DTLB_vberti_cross_page_prefetch_miss 285633
Core_0_DTLB_vberti_cross_page_prefetch_mshr_merge 78107
Core_0_DTLB_vberti_cross_page_prefetch_fill 207346
Core_0_DTLB_vberti_cross_page_prefetch_miss_rate 0.321029
Core_0_DTLB_vberti_cross_page_prefetch_mpki 2.85633
Core_0_DTLB_same_page_prefetch_miss_rate 0.000329444
Core_0_DTLB_same_page_prefetch_mpki 0.03002
Core_0_DTLB_cross_page_prefetch_miss_rate 0.321029
Core_0_DTLB_cross_page_prefetch_mpki 2.85633
Core_0_DTLB_cross_page_prefetch_issued 889742
Core_0_DTLB_cross_page_prefetch_lookups 889742
Core_0_DTLB_cross_page_prefetch_useful 15760
Core_0_DTLB_cross_page_prefetch_useless 191766
Core_0_DTLB_cross_page_prefetch_late 177
Core_0_DTLB_cross_page_prefetch_too_early 76239
Core_0_DTLB_cross_page_prefetch_too_early_among_fill 0.36769
Core_0_DTLB_cross_page_prefetch_too_early_among_useless 0.397563
Core_0_DTLB_cross_page_prefetch_pollution_evict 104691
Core_0_DTLB_cross_page_prefetch_pollution_demand 97334
Core_0_DTLB_cross_page_prefetch_pollution_among_prefetch_fill 0.50491
Core_0_DTLB_cross_page_prefetch_accuracy 0.017713
Core_0_DTLB_cross_page_prefetch_coverage 0.00186601

========= STLB_vBerti Prefetch Stats =========
Core_0_STLB_demand_access 7929784
Core_0_STLB_demand_hit 4941589
Core_0_STLB_demand_miss 2988195
Core_0_STLB_demand_mshr_merge 0
Core_0_STLB_demand_fill 2988195
Core_0_STLB_demand_miss_rate 0.376832
Core_0_STLB_demand_mpki 29.8819
Core_0_STLB_vberti_prefetch_access 209114
Core_0_STLB_vberti_prefetch_hit 118403
Core_0_STLB_vberti_prefetch_miss 90711
Core_0_STLB_vberti_prefetch_mshr_merge 0
Core_0_STLB_vberti_prefetch_fill 90711
Core_0_STLB_vberti_prefetch_miss_rate 0.433787
Core_0_STLB_vberti_prefetch_mpki 0.90711

=== STLB_vBerti Same/Cross-page Prefetch Stats ===
Core_0_STLB_vberti_same_page_prefetch 1588
Core_0_STLB_vberti_same_page_prefetch_hit 1551
Core_0_STLB_vberti_same_page_prefetch_miss 37
Core_0_STLB_vberti_same_page_prefetch_mshr_merge 0
Core_0_STLB_vberti_same_page_prefetch_fill 37
Core_0_STLB_vberti_same_page_prefetch_miss_rate 0.0232997
Core_0_STLB_vberti_same_page_prefetch_mpki 0.00037
Core_0_STLB_vberti_cross_page_prefetch 207526
Core_0_STLB_vberti_cross_page_prefetch_hit 116852
Core_0_STLB_vberti_cross_page_prefetch_miss 90674
Core_0_STLB_vberti_cross_page_prefetch_mshr_merge 0
Core_0_STLB_vberti_cross_page_prefetch_fill 90674
Core_0_STLB_vberti_cross_page_prefetch_miss_rate 0.436928
Core_0_STLB_vberti_cross_page_prefetch_mpki 0.90674
Core_0_STLB_same_page_prefetch_miss_rate 0.0232997
Core_0_STLB_same_page_prefetch_mpki 0.00037
Core_0_STLB_cross_page_prefetch_miss_rate 0.436928
Core_0_STLB_cross_page_prefetch_mpki 0.90674
Core_0_STLB_cross_page_prefetch_issued 207526
Core_0_STLB_cross_page_prefetch_lookups 207526
Core_0_STLB_cross_page_prefetch_useful 24462
Core_0_STLB_cross_page_prefetch_useless 66212
Core_0_STLB_cross_page_prefetch_late 0
Core_0_STLB_cross_page_prefetch_too_early 43761
Core_0_STLB_cross_page_prefetch_too_early_among_fill 0.482619
Core_0_STLB_cross_page_prefetch_too_early_among_useless 0.660922
Core_0_STLB_cross_page_prefetch_pollution_evict 86012
Core_0_STLB_cross_page_prefetch_pollution_demand 84072
Core_0_STLB_cross_page_prefetch_pollution_among_prefetch_fill 0.948585
Core_0_STLB_cross_page_prefetch_accuracy 0.117874
Core_0_STLB_cross_page_prefetch_coverage 0.00811974

========= STLB Cross-page Prefetch Buffer Stats =========
Core_0_STLB_raw_demand_miss 2988195
Core_0_CP_PB_insert 0
Core_0_CP_PB_demand_hit 0
Core_0_STLB_PB_demand_miss 2988195
Core_0_CP_PB_coverage 0
Core_0_STLB_raw_demand_mpki 29.8819
Core_0_STLB_PB_demand_mpki 29.8819
Core_0_CP_PB_demand_hit_mpki 0

Core_0_TLB_demand_miss_rate 0.109022
Core_0_TLB_demand_mpki 29.8819
Core_0_TLB_same_page_prefetch_miss_rate 4.06044e-06
Core_0_TLB_same_page_prefetch_mpki 0.00037
Core_0_TLB_cross_page_prefetch_miss_rate 0.10191
Core_0_TLB_cross_page_prefetch_mpki 0.90674
Core_0_TLB_cross_page_prefetch_issued 889742
Core_0_TLB_cross_page_prefetch_lookups 889742
Core_0_TLB_cross_page_prefetch_useful 9791
Core_0_TLB_cross_page_prefetch_useless 118239
Core_0_TLB_cross_page_prefetch_late 74
Core_0_TLB_cross_page_prefetch_too_early 31960
Core_0_TLB_cross_page_prefetch_too_early_among_fill 0.107241
Core_0_TLB_cross_page_prefetch_too_early_among_useless 0.2703
Core_0_TLB_cross_page_prefetch_accuracy 0.0110043
Core_0_TLB_cross_page_prefetch_coverage 0.00326586
====== vBerti internal metric ========
Core_0_vBerti_end_to_end_issued 11478953
Core_0_vBerti_end_to_end_useful 210315
Core_0_vBerti_end_to_end_late 1135
Core_0_vBerti_end_to_end_accuracy 0.0183218
Core_0_vBerti_end_to_end_timely_accuracy 0.0182229
BERTI TO_L1: 35348252 TO_L2: 9993715 TO_L2_BC_MSHR: 6753208
BERTI AVG_LAT: 182.329 NUM_TRACK_LATENCY: 8288385 NUM_CANT_TRACK_LATENCY: 0
BERTI CROSS_PAGE 8908591 NO_CROSS_PAGE: 45341967
BERTI FOUND_BERTI: 49921562 NO_FOUND_BERTI: 9758023
BERTI AVERAGE_ISSUED: 3.64381
