[VMEM] WARNING: physical memory size is smaller than virtual memory size.

*** ChampSim Multicore Out-of-Order Simulator ***
Warmup Instructions: 50000000
Simulation Instructions: 100000000
Number of CPUs: 1
Page size: 4096
Core 0: /data0/tzh/champsim_traces/Ligra/ligra_Components-Shortcut.com-lj.ungraph.gcc_6.3.0_O3.drop_22000M.length_250M.champsimtrace.xz
VBerti Prefetcher
BERTI HASH ENTANGLING
BERTI IP MASK ffff
Off-chip DRAM Size: 16 GiB Channels: 1 Width: 64-bit Data Rate: 3205 MT/s
Warmup halting CPU 0 at instruction 50000001 cycle 13356347 for remainder of phase
Warmup finished CPU 0 instructions: 50000001 cycles: 13356347 cumulative IPC: 3.744 (Simulation time: 00 hr 02 min 58 sec)
Warmup complete CPU 0 instructions: 50000001 cycles: 13356347 cumulative IPC: 3.744 (Simulation time: 00 hr 02 min 58 sec)
Simulation finished CPU 0 instructions: 100000002 cycles: 214110445 cumulative IPC: 0.467 (Simulation time: 00 hr 23 min 14 sec)
Simulation complete CPU 0 instructions: 100000002 cycles: 214110445 cumulative IPC: 0.467 (Simulation time: 00 hr 23 min 14 sec)

ChampSim completed all CPUs

=== Simulation ===
CPU 0 runs /data0/tzh/champsim_traces/Ligra/ligra_Components-Shortcut.com-lj.ungraph.gcc_6.3.0_O3.drop_22000M.length_250M.champsimtrace.xz

Region of Interest Statistics

CPU 0 cumulative IPC: 0.467 instructions: 100000002 cycles: 214110445
CPU 0 Branch Prediction Accuracy: 97.13% MPKI: 7.534 Average ROB Occupancy at Mispredict: 92.86
Branch type MPKI
BRANCH_DIRECT_JUMP: 0
BRANCH_INDIRECT: 0
BRANCH_CONDITIONAL: 7.534
BRANCH_DIRECT_CALL: 0
BRANCH_INDIRECT_CALL: 0
BRANCH_RETURN: 0

cpu0->cpu0_STLB TOTAL        ACCESS:    7353953 HIT:    7221752 MISS:     132201 MSHR_MERGE:          0
cpu0->cpu0_STLB LOAD         ACCESS:    7353953 HIT:    7221752 MISS:     132201 MSHR_MERGE:          0
cpu0->cpu0_STLB RFO          ACCESS:          0 HIT:          0 MISS:          0 MSHR_MERGE:          0
cpu0->cpu0_STLB PREFETCH     ACCESS:          0 HIT:          0 MISS:          0 MSHR_MERGE:          0
cpu0->cpu0_STLB WRITE        ACCESS:          0 HIT:          0 MISS:          0 MSHR_MERGE:          0
cpu0->cpu0_STLB TRANSLATION  ACCESS:          0 HIT:          0 MISS:          0 MSHR_MERGE:          0
cpu0->cpu0_STLB PREFETCH REQUESTED:          0 ISSUED:          0 USEFUL:          0 USELESS:          0 LATE:          0 TOO_EARLY:          0
cpu0->cpu0_STLB AVERAGE MISS LATENCY: 65.34 cycles
cpu0->cpu0_L2C TOTAL        ACCESS:    9727750 HIT:    2856024 MISS:    6871726 MSHR_MERGE:     544216
cpu0->cpu0_L2C LOAD         ACCESS:    7423278 HIT:    2051179 MISS:    5372099 MSHR_MERGE:       1692
cpu0->cpu0_L2C RFO          ACCESS:          0 HIT:          0 MISS:          0 MSHR_MERGE:          0
cpu0->cpu0_L2C PREFETCH     ACCESS:    2145220 HIT:     672417 MISS:    1472803 MSHR_MERGE:     542524
cpu0->cpu0_L2C WRITE        ACCESS:      47151 HIT:      47131 MISS:         20 MSHR_MERGE:          0
cpu0->cpu0_L2C TRANSLATION  ACCESS:     112101 HIT:      85297 MISS:      26804 MSHR_MERGE:          0
cpu0->cpu0_L2C PREFETCH REQUESTED:    1016938 ISSUED:    1016740 USEFUL:     301428 USELESS:     122211 LATE:       1488 TOO_EARLY:      17788
cpu0->cpu0_L2C AVERAGE MISS LATENCY: 119.7 cycles
cpu0->cpu0_L1I TOTAL        ACCESS:     651009 HIT:     651009 MISS:          0 MSHR_MERGE:          0
cpu0->cpu0_L1I LOAD         ACCESS:     651009 HIT:     651009 MISS:          0 MSHR_MERGE:          0
cpu0->cpu0_L1I RFO          ACCESS:          0 HIT:          0 MISS:          0 MSHR_MERGE:          0
cpu0->cpu0_L1I PREFETCH     ACCESS:          0 HIT:          0 MISS:          0 MSHR_MERGE:          0
cpu0->cpu0_L1I WRITE        ACCESS:          0 HIT:          0 MISS:          0 MSHR_MERGE:          0
cpu0->cpu0_L1I TRANSLATION  ACCESS:          0 HIT:          0 MISS:          0 MSHR_MERGE:          0
cpu0->cpu0_L1I PREFETCH REQUESTED:          0 ISSUED:          0 USEFUL:          0 USELESS:          0 LATE:          0 TOO_EARLY:          0
cpu0->cpu0_L1I AVERAGE MISS LATENCY: - cycles
cpu0->cpu0_L1D TOTAL        ACCESS:   41068525 HIT:   32201319 MISS:    8867206 MSHR_MERGE:     199663
cpu0->cpu0_L1D LOAD         ACCESS:   25977433 HIT:   18355954 MISS:    7621479 MSHR_MERGE:     198199
cpu0->cpu0_L1D RFO          ACCESS:          0 HIT:          0 MISS:          0 MSHR_MERGE:          0
cpu0->cpu0_L1D PREFETCH     ACCESS:   14073770 HIT:   12940923 MISS:    1132847 MSHR_MERGE:        685
cpu0->cpu0_L1D WRITE        ACCESS:     754404 HIT:     754404 MISS:          0 MSHR_MERGE:          0
cpu0->cpu0_L1D TRANSLATION  ACCESS:     262918 HIT:     150038 MISS:     112880 MSHR_MERGE:        779
cpu0->cpu0_L1D PREFETCH REQUESTED:   83768689 ISSUED:   15487991 USEFUL:     814889 USELESS:        713 LATE:       3500 TOO_EARLY:        542
cpu0->cpu0_L1D AVERAGE MISS LATENCY: 94.52 cycles
cpu0->cpu0_ITLB TOTAL        ACCESS:     468903 HIT:     468903 MISS:          0 MSHR_MERGE:          0
cpu0->cpu0_ITLB LOAD         ACCESS:     468903 HIT:     468903 MISS:          0 MSHR_MERGE:          0
cpu0->cpu0_ITLB RFO          ACCESS:          0 HIT:          0 MISS:          0 MSHR_MERGE:          0
cpu0->cpu0_ITLB PREFETCH     ACCESS:          0 HIT:          0 MISS:          0 MSHR_MERGE:          0
cpu0->cpu0_ITLB WRITE        ACCESS:          0 HIT:          0 MISS:          0 MSHR_MERGE:          0
cpu0->cpu0_ITLB TRANSLATION  ACCESS:          0 HIT:          0 MISS:          0 MSHR_MERGE:          0
cpu0->cpu0_ITLB PREFETCH REQUESTED:          0 ISSUED:          0 USEFUL:          0 USELESS:          0 LATE:          0 TOO_EARLY:          0
cpu0->cpu0_ITLB AVERAGE MISS LATENCY: - cycles
cpu0->cpu0_DTLB TOTAL        ACCESS:   38505457 HIT:   30661469 MISS:    7843988 MSHR_MERGE:     490035
cpu0->cpu0_DTLB LOAD         ACCESS:   38505457 HIT:   30661469 MISS:    7843988 MSHR_MERGE:     490035
cpu0->cpu0_DTLB RFO          ACCESS:          0 HIT:          0 MISS:          0 MSHR_MERGE:          0
cpu0->cpu0_DTLB PREFETCH     ACCESS:          0 HIT:          0 MISS:          0 MSHR_MERGE:          0
cpu0->cpu0_DTLB WRITE        ACCESS:          0 HIT:          0 MISS:          0 MSHR_MERGE:          0
cpu0->cpu0_DTLB TRANSLATION  ACCESS:          0 HIT:          0 MISS:          0 MSHR_MERGE:          0
cpu0->cpu0_DTLB PREFETCH REQUESTED:          0 ISSUED:          0 USEFUL:          0 USELESS:          0 LATE:          0 TOO_EARLY:          0
cpu0->cpu0_DTLB AVERAGE MISS LATENCY: 6.216 cycles
cpu0->LLC TOTAL        ACCESS:    6374630 HIT:    3038610 MISS:    3336020 MSHR_MERGE:      48108
cpu0->LLC LOAD         ACCESS:    5370407 HIT:    2964543 MISS:    2405864 MSHR_MERGE:        321
cpu0->LLC RFO          ACCESS:          0 HIT:          0 MISS:          0 MSHR_MERGE:          0
cpu0->LLC PREFETCH     ACCESS:     930277 HIT:      44983 MISS:     885294 MSHR_MERGE:      47787
cpu0->LLC WRITE        ACCESS:      47142 HIT:      10901 MISS:      36241 MSHR_MERGE:          0
cpu0->LLC TRANSLATION  ACCESS:      26804 HIT:      18183 MISS:       8621 MSHR_MERGE:          0
cpu0->LLC PREFETCH REQUESTED:          0 ISSUED:          0 USEFUL:          0 USELESS:          0 LATE:          0 TOO_EARLY:          0
cpu0->LLC AVERAGE MISS LATENCY: 229.6 cycles

DRAM Statistics

Channel 0 RQ ROW_BUFFER_HIT:      10358
  ROW_BUFFER_MISS:    3241291
  AVG DBUS CONGESTED CYCLE: 7.156
Channel 0 WQ ROW_BUFFER_HIT:      11368
  ROW_BUFFER_MISS:      36445
  FULL:          0
Channel 0 REFRESHES ISSUED:      17842

[ROI Statistics]
[System Configuration]
num_cpus 1
cpu_freq 4000
fetch_width 6
decode_width 6
dispatch_width 6
execute_width 6
lq_width 2
sq_width 2
retire_width 6
scheduler_size 128
branch_mispredict_penalty 15
rob_size 352
lq_size 128
sq_size 72
ifetch_buffer_size 64
decode_buffer_size 32
dispatch_buffer_size 32
register_file_size 288
decode_latency 1
dispatch_latency 1
schedule_latency 1
execute_latency 1
page_size 4096
block_size 64
core_0_itlb_set 16
core_0_itlb_way 4
core_0_itlb_rq_size 16
core_0_itlb_wq_size 16
core_0_itlb_pq_size 0
core_0_itlb_mshr_size 8
core_0_itlb_hit_latency 1
core_0_itlb_fill_latency 1
core_0_itlb_max_tag_check 2
core_0_itlb_max_fill 2
core_0_dtlb_set 16
core_0_dtlb_way 4
core_0_dtlb_rq_size 16
core_0_dtlb_wq_size 16
core_0_dtlb_pq_size 0
core_0_dtlb_mshr_size 8
core_0_dtlb_hit_latency 1
core_0_dtlb_fill_latency 1
core_0_dtlb_max_tag_check 2
core_0_dtlb_max_fill 2
core_0_stlb_set 128
core_0_stlb_way 12
core_0_stlb_rq_size 32
core_0_stlb_wq_size 32
core_0_stlb_pq_size 0
core_0_stlb_mshr_size 16
core_0_stlb_hit_latency 4
core_0_stlb_fill_latency 4
core_0_stlb_max_tag_check 1
core_0_stlb_max_fill 1
core_0_l1i_set 64
core_0_l1i_way 8
core_0_l1i_rq_size 64
core_0_l1i_wq_size 64
core_0_l1i_pq_size 32
core_0_l1i_mshr_size 8
core_0_l1i_hit_latency 2
core_0_l1i_fill_latency 2
core_0_l1i_max_tag_check 2
core_0_l1i_max_fill 2
core_0_l1d_set 64
core_0_l1d_way 12
core_0_l1d_rq_size 64
core_0_l1d_wq_size 64
core_0_l1d_pq_size 8
core_0_l1d_mshr_size 16
core_0_l1d_hit_latency 2
core_0_l1d_fill_latency 3
core_0_l1d_max_tag_check 2
core_0_l1d_max_fill 2
core_0_l2c_set 1024
core_0_l2c_way 8
core_0_l2c_rq_size 32
core_0_l2c_wq_size 32
core_0_l2c_pq_size 16
core_0_l2c_mshr_size 32
core_0_l2c_hit_latency 5
core_0_l2c_fill_latency 5
core_0_l2c_max_tag_check 1
core_0_l2c_max_fill 1
llc_set 2048
llc_way 16
llc_rq_size 32
llc_wq_size 32
llc_pq_size 32
llc_mshr_size 64
llc_hit_latency 10
llc_fill_latency 10
llc_max_tag_check 1
llc_max_fill 1
dram_channels 1
dram_ranks 1
dram_bankgroups 8
dram_banks 4
dram_rows 65536
dram_columns 1024
dram_channel_width 8
dram_rq_size 64
dram_wq_size 64
dram_size 17179869184
core_0_itlb_prefetcher no
core_0_dtlb_prefetcher no
core_0_stlb_prefetcher no
core_0_l1i_prefetcher next_line
core_0_l1d_prefetcher vberti
core_0_l2c_prefetcher ip_stride
llc_prefetcher no
llc_replacement drrip

Core_0_instructions 100000002
Core_0_cycles 214110445
Core_0_IPC 0.467049
Core_0_branch_prediction_accuracy 97.1294
Core_0_branch_MPKI 7.53369
Core_0_average_ROB_occupancy_at_mispredict 92.8643

Core_0_ITLB_total_access 468903
Core_0_ITLB_total_hit 468903
Core_0_ITLB_total_miss 0
Core_0_ITLB_total_MPKI 0
Core_0_ITLB_total_miss_rate 0
Core_0_ITLB_demand_access 468903
Core_0_ITLB_demand_hit 468903
Core_0_ITLB_demand_miss 0
Core_0_ITLB_demand_MPKI 0
Core_0_ITLB_demand_miss_rate 0
Core_0_ITLB_load_access 468903
Core_0_ITLB_load_hit 468903
Core_0_ITLB_load_miss 0
Core_0_ITLB_load_MPKI 0
Core_0_ITLB_load_miss_rate 0
Core_0_ITLB_rfo_access 0
Core_0_ITLB_rfo_hit 0
Core_0_ITLB_rfo_miss 0
Core_0_ITLB_rfo_MPKI 0
Core_0_ITLB_rfo_miss_rate 0
Core_0_ITLB_prefetch_access 0
Core_0_ITLB_prefetch_hit 0
Core_0_ITLB_prefetch_miss 0
Core_0_ITLB_prefetch_MPKI 0
Core_0_ITLB_prefetch_miss_rate 0
Core_0_ITLB_writeback_access 0
Core_0_ITLB_writeback_hit 0
Core_0_ITLB_writeback_miss 0
Core_0_ITLB_writeback_MPKI 0
Core_0_ITLB_writeback_miss_rate 0
Core_0_ITLB_prefetch_requested 0
Core_0_ITLB_prefetch_issued 0
Core_0_ITLB_prefetch_useful 0
Core_0_ITLB_prefetch_useless 0
Core_0_ITLB_prefetch_late 0
Core_0_ITLB_prefetch_fill 0
Core_0_ITLB_prefetch_too_early 0
Core_0_ITLB_prefetch_too_early_among_fill 0
Core_0_ITLB_prefetch_too_early_among_useless 0
Core_0_ITLB_prefetch_pollution_evict 0
Core_0_ITLB_prefetch_pollution_demand 0
Core_0_ITLB_prefetch_pollution_among_prefetch_fill 0
Core_0_ITLB_prefetch_accuracy 0
Core_0_ITLB_prefetch_coverage 0

Core_0_DTLB_total_access 38505457
Core_0_DTLB_total_hit 30661469
Core_0_DTLB_total_miss 7843988
Core_0_DTLB_total_MPKI 78.4399
Core_0_DTLB_total_miss_rate 0.203711
Core_0_DTLB_demand_access 38505457
Core_0_DTLB_demand_hit 30661469
Core_0_DTLB_demand_miss 7843988
Core_0_DTLB_demand_MPKI 78.4399
Core_0_DTLB_demand_miss_rate 0.203711
Core_0_DTLB_load_access 38505457
Core_0_DTLB_load_hit 30661469
Core_0_DTLB_load_miss 7843988
Core_0_DTLB_load_MPKI 78.4399
Core_0_DTLB_load_miss_rate 0.203711
Core_0_DTLB_rfo_access 0
Core_0_DTLB_rfo_hit 0
Core_0_DTLB_rfo_miss 0
Core_0_DTLB_rfo_MPKI 0
Core_0_DTLB_rfo_miss_rate 0
Core_0_DTLB_prefetch_access 0
Core_0_DTLB_prefetch_hit 0
Core_0_DTLB_prefetch_miss 0
Core_0_DTLB_prefetch_MPKI 0
Core_0_DTLB_prefetch_miss_rate 0
Core_0_DTLB_writeback_access 0
Core_0_DTLB_writeback_hit 0
Core_0_DTLB_writeback_miss 0
Core_0_DTLB_writeback_MPKI 0
Core_0_DTLB_writeback_miss_rate 0
Core_0_DTLB_prefetch_requested 0
Core_0_DTLB_prefetch_issued 0
Core_0_DTLB_prefetch_useful 0
Core_0_DTLB_prefetch_useless 0
Core_0_DTLB_prefetch_late 0
Core_0_DTLB_prefetch_fill 0
Core_0_DTLB_prefetch_too_early 0
Core_0_DTLB_prefetch_too_early_among_fill 0
Core_0_DTLB_prefetch_too_early_among_useless 0
Core_0_DTLB_prefetch_pollution_evict 0
Core_0_DTLB_prefetch_pollution_demand 0
Core_0_DTLB_prefetch_pollution_among_prefetch_fill 0
Core_0_DTLB_prefetch_accuracy 0
Core_0_DTLB_prefetch_coverage 0

Core_0_STLB_total_access 7353953
Core_0_STLB_total_hit 7221752
Core_0_STLB_total_miss 132201
Core_0_STLB_total_MPKI 1.32201
Core_0_STLB_total_miss_rate 0.0179769
Core_0_STLB_demand_access 7353953
Core_0_STLB_demand_hit 7221752
Core_0_STLB_demand_miss 132201
Core_0_STLB_demand_MPKI 1.32201
Core_0_STLB_demand_miss_rate 0.0179769
Core_0_STLB_load_access 7353953
Core_0_STLB_load_hit 7221752
Core_0_STLB_load_miss 132201
Core_0_STLB_load_MPKI 1.32201
Core_0_STLB_load_miss_rate 0.0179769
Core_0_STLB_rfo_access 0
Core_0_STLB_rfo_hit 0
Core_0_STLB_rfo_miss 0
Core_0_STLB_rfo_MPKI 0
Core_0_STLB_rfo_miss_rate 0
Core_0_STLB_prefetch_access 0
Core_0_STLB_prefetch_hit 0
Core_0_STLB_prefetch_miss 0
Core_0_STLB_prefetch_MPKI 0
Core_0_STLB_prefetch_miss_rate 0
Core_0_STLB_writeback_access 0
Core_0_STLB_writeback_hit 0
Core_0_STLB_writeback_miss 0
Core_0_STLB_writeback_MPKI 0
Core_0_STLB_writeback_miss_rate 0
Core_0_STLB_prefetch_requested 0
Core_0_STLB_prefetch_issued 0
Core_0_STLB_prefetch_useful 0
Core_0_STLB_prefetch_useless 0
Core_0_STLB_prefetch_late 0
Core_0_STLB_prefetch_fill 0
Core_0_STLB_prefetch_too_early 0
Core_0_STLB_prefetch_too_early_among_fill 0
Core_0_STLB_prefetch_too_early_among_useless 0
Core_0_STLB_prefetch_pollution_evict 0
Core_0_STLB_prefetch_pollution_demand 0
Core_0_STLB_prefetch_pollution_among_prefetch_fill 0
Core_0_STLB_prefetch_accuracy 0
Core_0_STLB_prefetch_coverage 0

Core_0_L1I_total_access 651009
Core_0_L1I_total_hit 651009
Core_0_L1I_total_miss 0
Core_0_L1I_total_MPKI 0
Core_0_L1I_total_miss_rate 0
Core_0_L1I_demand_access 651009
Core_0_L1I_demand_hit 651009
Core_0_L1I_demand_miss 0
Core_0_L1I_demand_MPKI 0
Core_0_L1I_demand_miss_rate 0
Core_0_L1I_load_access 651009
Core_0_L1I_load_hit 651009
Core_0_L1I_load_miss 0
Core_0_L1I_load_MPKI 0
Core_0_L1I_load_miss_rate 0
Core_0_L1I_rfo_access 0
Core_0_L1I_rfo_hit 0
Core_0_L1I_rfo_miss 0
Core_0_L1I_rfo_MPKI 0
Core_0_L1I_rfo_miss_rate 0
Core_0_L1I_prefetch_access 0
Core_0_L1I_prefetch_hit 0
Core_0_L1I_prefetch_miss 0
Core_0_L1I_prefetch_MPKI 0
Core_0_L1I_prefetch_miss_rate 0
Core_0_L1I_writeback_access 0
Core_0_L1I_writeback_hit 0
Core_0_L1I_writeback_miss 0
Core_0_L1I_writeback_MPKI 0
Core_0_L1I_writeback_miss_rate 0
Core_0_L1I_prefetch_requested 0
Core_0_L1I_prefetch_issued 0
Core_0_L1I_prefetch_useful 0
Core_0_L1I_prefetch_useless 0
Core_0_L1I_prefetch_late 0
Core_0_L1I_prefetch_fill 0
Core_0_L1I_prefetch_too_early 0
Core_0_L1I_prefetch_too_early_among_fill 0
Core_0_L1I_prefetch_too_early_among_useless 0
Core_0_L1I_prefetch_pollution_evict 0
Core_0_L1I_prefetch_pollution_demand 0
Core_0_L1I_prefetch_pollution_among_prefetch_fill 0
Core_0_L1I_prefetch_accuracy 0
Core_0_L1I_prefetch_coverage 0

Core_0_L1D_total_access 40805607
Core_0_L1D_total_hit 32051281
Core_0_L1D_total_miss 8754326
Core_0_L1D_total_MPKI 87.5433
Core_0_L1D_total_miss_rate 0.214537
Core_0_L1D_demand_access 25977433
Core_0_L1D_demand_hit 18355954
Core_0_L1D_demand_miss 7621479
Core_0_L1D_demand_MPKI 76.2148
Core_0_L1D_demand_miss_rate 0.293388
Core_0_L1D_load_access 25977433
Core_0_L1D_load_hit 18355954
Core_0_L1D_load_miss 7621479
Core_0_L1D_load_MPKI 76.2148
Core_0_L1D_load_miss_rate 0.293388
Core_0_L1D_rfo_access 0
Core_0_L1D_rfo_hit 0
Core_0_L1D_rfo_miss 0
Core_0_L1D_rfo_MPKI 0
Core_0_L1D_rfo_miss_rate 0
Core_0_L1D_prefetch_access 14073770
Core_0_L1D_prefetch_hit 12940923
Core_0_L1D_prefetch_miss 1132847
Core_0_L1D_prefetch_MPKI 11.3285
Core_0_L1D_prefetch_miss_rate 0.0804935
Core_0_L1D_writeback_access 754404
Core_0_L1D_writeback_hit 754404
Core_0_L1D_writeback_miss 0
Core_0_L1D_writeback_MPKI 0
Core_0_L1D_writeback_miss_rate 0
Core_0_L1D_prefetch_requested 83768689
Core_0_L1D_prefetch_issued 15487991
Core_0_L1D_prefetch_useful 814889
Core_0_L1D_prefetch_useless 713
Core_0_L1D_prefetch_late 3500
Core_0_L1D_prefetch_fill 812112
Core_0_L1D_prefetch_too_early 542
Core_0_L1D_prefetch_too_early_among_fill 0.000667396
Core_0_L1D_prefetch_too_early_among_useless 0.760168
Core_0_L1D_prefetch_pollution_evict 193485
Core_0_L1D_prefetch_pollution_demand 193482
Core_0_L1D_cross_page_pf_translation_only_requested 17793965
Core_0_L1D_cross_page_pf_translation_only_issued 1414225
Core_0_L1D_cross_page_pf_translation_only_dropped 1414224
Core_0_L1D_prefetch_pollution_among_prefetch_fill 0.238249
Core_0_L1D_prefetch_accuracy 0.0526142
Core_0_L1D_prefetch_coverage 0.0965924

Core_0_L2C_total_access 9615649
Core_0_L2C_total_hit 2770727
Core_0_L2C_total_miss 6844922
Core_0_L2C_total_MPKI 68.4492
Core_0_L2C_total_miss_rate 0.711852
Core_0_L2C_demand_access 7423278
Core_0_L2C_demand_hit 2051179
Core_0_L2C_demand_miss 5372099
Core_0_L2C_demand_MPKI 53.721
Core_0_L2C_demand_miss_rate 0.723683
Core_0_L2C_load_access 7423278
Core_0_L2C_load_hit 2051179
Core_0_L2C_load_miss 5372099
Core_0_L2C_load_MPKI 53.721
Core_0_L2C_load_miss_rate 0.723683
Core_0_L2C_rfo_access 0
Core_0_L2C_rfo_hit 0
Core_0_L2C_rfo_miss 0
Core_0_L2C_rfo_MPKI 0
Core_0_L2C_rfo_miss_rate 0
Core_0_L2C_prefetch_access 2145220
Core_0_L2C_prefetch_hit 672417
Core_0_L2C_prefetch_miss 1472803
Core_0_L2C_prefetch_MPKI 14.728
Core_0_L2C_prefetch_miss_rate 0.686551
Core_0_L2C_writeback_access 47151
Core_0_L2C_writeback_hit 47131
Core_0_L2C_writeback_miss 20
Core_0_L2C_writeback_MPKI 0.0002
Core_0_L2C_writeback_miss_rate 0.000424169
Core_0_L2C_prefetch_requested 1016938
Core_0_L2C_prefetch_issued 1016740
Core_0_L2C_prefetch_useful 301428
Core_0_L2C_prefetch_useless 122211
Core_0_L2C_prefetch_late 1488
Core_0_L2C_prefetch_fill 846706
Core_0_L2C_prefetch_too_early 17788
Core_0_L2C_prefetch_too_early_among_fill 0.0210085
Core_0_L2C_prefetch_too_early_among_useless 0.145552
Core_0_L2C_prefetch_pollution_evict 441664
Core_0_L2C_prefetch_pollution_demand 440283
Core_0_L2C_prefetch_pollution_among_prefetch_fill 0.521626
Core_0_L2C_prefetch_accuracy 0.296465
Core_0_L2C_prefetch_coverage 0.0531289

Core_0_LLC_total_access 6347826
Core_0_LLC_total_hit 3020427
Core_0_LLC_total_miss 3327399
Core_0_LLC_total_MPKI 33.274
Core_0_LLC_total_miss_rate 0.524179
Core_0_LLC_demand_access 5370407
Core_0_LLC_demand_hit 2964543
Core_0_LLC_demand_miss 2405864
Core_0_LLC_demand_MPKI 24.0586
Core_0_LLC_demand_miss_rate 0.447985
Core_0_LLC_load_access 5370407
Core_0_LLC_load_hit 2964543
Core_0_LLC_load_miss 2405864
Core_0_LLC_load_MPKI 24.0586
Core_0_LLC_load_miss_rate 0.447985
Core_0_LLC_rfo_access 0
Core_0_LLC_rfo_hit 0
Core_0_LLC_rfo_miss 0
Core_0_LLC_rfo_MPKI 0
Core_0_LLC_rfo_miss_rate 0
Core_0_LLC_prefetch_access 930277
Core_0_LLC_prefetch_hit 44983
Core_0_LLC_prefetch_miss 885294
Core_0_LLC_prefetch_MPKI 8.85294
Core_0_LLC_prefetch_miss_rate 0.951646
Core_0_LLC_writeback_access 47142
Core_0_LLC_writeback_hit 10901
Core_0_LLC_writeback_miss 36241
Core_0_LLC_writeback_MPKI 0.36241
Core_0_LLC_writeback_miss_rate 0.768762
Core_0_LLC_prefetch_requested 0
Core_0_LLC_prefetch_issued 0
Core_0_LLC_prefetch_useful 0
Core_0_LLC_prefetch_useless 0
Core_0_LLC_prefetch_late 0
Core_0_LLC_prefetch_fill 837185
Core_0_LLC_prefetch_too_early 0
Core_0_LLC_prefetch_too_early_among_fill 0
Core_0_LLC_prefetch_too_early_among_useless 0
Core_0_LLC_prefetch_pollution_evict 491023
Core_0_LLC_prefetch_pollution_demand 491023
Core_0_LLC_prefetch_pollution_among_prefetch_fill 0.586517
Core_0_LLC_prefetch_accuracy 0
Core_0_LLC_prefetch_coverage 0

[DRAM Statistics]
Channel_0_RQ_row_buffer_hit 10358
Channel_0_RQ_row_buffer_miss 3241291
Channel_0_WQ_row_buffer_hit 11368
Channel_0_WQ_row_buffer_miss 36445
Channel_0_WQ_full 0
Channel_0_dbus_congested 5998768
DRAM_total_RQ_row_buffer_hit 10358
DRAM_total_RQ_row_buffer_miss 3241291
DRAM_total_WQ_row_buffer_hit 11368
DRAM_total_WQ_row_buffer_miss 36445
DRAM_total_WQ_full 0
DRAM_total_dbus_congested 5998768
DRAM_avg_congested_cycle 7.15602

====== DRAM_RQ_TRAFFIC ========
DRAM_RQ_READ_TRAFFIC_BREAKDOWN:
data_demand_read.count = 2405543
data_demand_read.share = 73.98%

inst_demand_read.count = 0
inst_demand_read.share = 0.00%

cache_inst_prefetch.count = 0
cache_inst_prefetch.share = 0.00%

cache_data_prefetch.count = 837507
cache_data_prefetch.share = 25.76%

stlb_data_demand.count = 5402
stlb_data_demand.share = 0.17%

stlb_inst_demand.count = 0
stlb_inst_demand.share = 0.00%

stlb_l1i_pref.count = 0
stlb_l1i_pref.share = 0.00%

stlb_l1d_pref.count = 3219
stlb_l1d_pref.share = 0.10%

DRAM_RQ_READ_TRAFFIC_SUMMARY:
cache_demand.count = 2405543
cache_demand.share = 73.98%

cache_prefetch.count = 837507
cache_prefetch.share = 25.76%

stlb_demand.count = 5402
stlb_demand.share = 0.17%

stlb_prefetch.count = 3219
stlb_prefetch.share = 0.10%

DRAM_RQ_READ_TRAFFIC_DEBUG:
total_classified_read.count = 3251671
unclassified_read.count = 0
total_read_with_other.count = 3251671

classified_plus_unclassified_check.count = 3251671
dram_rq_read_total_observed.count = 3251671
dram_rq_read_total_observed.per_1K_instructions = 32.5167

STLB_MISS_PTW_DRAM_TOUCH_BREAKDOWN:
stlb_miss_total.count = 132201

stlb_miss_touch_dram.count = 8615
stlb_miss_touch_dram.share = 6.52%

stlb_miss_no_dram_touch.count = 123586
stlb_miss_no_dram_touch.share = 93.48%

STLB_MISS_PTW_DRAM_TOUCH_DEBUG:
stlb_miss_touch_plus_no_touch.count = 132201
stlb_miss_total_check.count = 132201

======STLB miss causes ========
Core_0_STLB_miss_cause_breakdown
Core_0_STLB_cause_Demand_Data_miss 114832
Core_0_STLB_cause_Demand_Data_miss_rate 0.015615
Core_0_STLB_cause_Demand_Instruction_miss 0
Core_0_STLB_cause_Demand_Instruction_miss_rate 0
Core_0_STLB_cause_L1D_Prefetch_miss 17369
Core_0_STLB_cause_L1D_Prefetch_miss_rate 0.00236186
Core_0_STLB_cause_L1D_Prefetch_Same_Page_miss 0
Core_0_STLB_cause_L1D_Prefetch_Same_Page_miss_rate 0
Core_0_STLB_cause_L1D_Prefetch_Cross_Page_miss 17369
Core_0_STLB_cause_L1D_Prefetch_Cross_Page_miss_rate 0.00236186
Core_0_STLB_cause_L1I_Prefetch_miss 0
Core_0_STLB_cause_L1I_Prefetch_miss_rate 0
Core_0_STLB_cause_Other_miss 0
Core_0_STLB_cause_Other_miss_rate 0
Core_0_STLB_Demand_miss 114832
Core_0_STLB_Demand_miss_rate 0.015615
Core_0_STLB_L1D_Prefetch_miss 17369
Core_0_STLB_L1D_Prefetch_miss_rate 0.00236186
Core_0_STLB_Other_miss 0
Core_0_STLB_Other_miss_rate 0

========== vBerti-TLB Cross-page Flow Stats ==========

Core_0_vBerti_Requested 83768689
Core_0_vBerti_Cross_page_prefetch_in_Requested 17793965
Core_0_vBerti_Same_page_prefetch_in_Requested 65974724
Core_0_vBerti_Cross_page_prefetch_of_Requested 0.212418
Core_0_vBerti_Issued 15487991
Core_0_vBerti_InPQ_Same_page_prefetch 14073766
Core_0_vBerti_InPQ_Cross_page_prefetch 1414225
Core_0_vBerti_PQ_Drop_Rate 0.81511
Core_0_vBerti_InPQ_Cross_page_prefetch_of_Requested 0.0168825
Core_0_vBerti_Cross_page_PQ_Drop_rate 0.920522
Core_0_vBerti_Cross_page_prefetch_of_Issued 0.0913111
Core_0_CP_PF_PQFULL_drop 16379740
Core_0_CP_PF_PQFULL_TLB_rescue_enqueued 0
Core_0_CP_PF_PQFULL_TLB_rescue_issued 0
Core_0_CP_PF_PQFULL_TLB_rescue_translated 0

========= DTLB_vBerti Prefetch Stats =========
Core_0_DTLB_demand_access 26423305
Core_0_DTLB_demand_hit 18705341
Core_0_DTLB_demand_miss 7717964
Core_0_DTLB_demand_mshr_merge 451646
Core_0_DTLB_demand_fill 7266621
Core_0_DTLB_demand_miss_rate 0.292089
Core_0_DTLB_demand_mpki 77.1796
Core_0_DTLB_vberti_prefetch_access 12082152
Core_0_DTLB_vberti_prefetch_hit 11956128
Core_0_DTLB_vberti_prefetch_miss 126024
Core_0_DTLB_vberti_prefetch_mshr_merge 38389
Core_0_DTLB_vberti_prefetch_fill 87332
Core_0_DTLB_vberti_prefetch_miss_rate 0.0104306
Core_0_DTLB_vberti_prefetch_mpki 1.26024

=== DTLB_vBerti Same/Cross-page Prefetch Stats ===
Core_0_DTLB_vberti_same_page_prefetch 10805350
Core_0_DTLB_vberti_same_page_prefetch_hit 10802676
Core_0_DTLB_vberti_same_page_prefetch_miss 2674
Core_0_DTLB_vberti_same_page_prefetch_mshr_merge 1096
Core_0_DTLB_vberti_same_page_prefetch_fill 1392
Core_0_DTLB_vberti_same_page_prefetch_miss_rate 0.00024747
Core_0_DTLB_vberti_same_page_prefetch_mpki 0.02674
Core_0_DTLB_vberti_cross_page_prefetch 1276802
Core_0_DTLB_vberti_cross_page_prefetch_hit 1153452
Core_0_DTLB_vberti_cross_page_prefetch_miss 123350
Core_0_DTLB_vberti_cross_page_prefetch_mshr_merge 37293
Core_0_DTLB_vberti_cross_page_prefetch_fill 85940
Core_0_DTLB_vberti_cross_page_prefetch_miss_rate 0.0966086
Core_0_DTLB_vberti_cross_page_prefetch_mpki 1.2335
Core_0_DTLB_same_page_prefetch_miss_rate 0.00024747
Core_0_DTLB_same_page_prefetch_mpki 0.02674
Core_0_DTLB_cross_page_prefetch_miss_rate 0.0966086
Core_0_DTLB_cross_page_prefetch_mpki 1.2335
Core_0_DTLB_cross_page_prefetch_issued 1276802
Core_0_DTLB_cross_page_prefetch_lookups 1276802
Core_0_DTLB_cross_page_prefetch_useful 13526
Core_0_DTLB_cross_page_prefetch_useless 72531
Core_0_DTLB_cross_page_prefetch_late 116
Core_0_DTLB_cross_page_prefetch_too_early 15390
Core_0_DTLB_cross_page_prefetch_too_early_among_fill 0.179078
Core_0_DTLB_cross_page_prefetch_too_early_among_useless 0.212185
Core_0_DTLB_cross_page_prefetch_pollution_evict 77694
Core_0_DTLB_cross_page_prefetch_pollution_demand 75775
Core_0_DTLB_cross_page_prefetch_pollution_among_prefetch_fill 0.904049
Core_0_DTLB_cross_page_prefetch_accuracy 0.0105937
Core_0_DTLB_cross_page_prefetch_coverage 0.00174947

========= STLB_vBerti Prefetch Stats =========
Core_0_STLB_demand_access 7266318
Core_0_STLB_demand_hit 7151486
Core_0_STLB_demand_miss 114832
Core_0_STLB_demand_mshr_merge 0
Core_0_STLB_demand_fill 114832
Core_0_STLB_demand_miss_rate 0.0158033
Core_0_STLB_demand_mpki 1.14832
Core_0_STLB_vberti_prefetch_access 87635
Core_0_STLB_vberti_prefetch_hit 70266
Core_0_STLB_vberti_prefetch_miss 17369
Core_0_STLB_vberti_prefetch_mshr_merge 0
Core_0_STLB_vberti_prefetch_fill 17369
Core_0_STLB_vberti_prefetch_miss_rate 0.198197
Core_0_STLB_vberti_prefetch_mpki 0.17369

=== STLB_vBerti Same/Cross-page Prefetch Stats ===
Core_0_STLB_vberti_same_page_prefetch 1578
Core_0_STLB_vberti_same_page_prefetch_hit 1578
Core_0_STLB_vberti_same_page_prefetch_miss 0
Core_0_STLB_vberti_same_page_prefetch_mshr_merge 0
Core_0_STLB_vberti_same_page_prefetch_fill 0
Core_0_STLB_vberti_same_page_prefetch_miss_rate 0
Core_0_STLB_vberti_same_page_prefetch_mpki 0
Core_0_STLB_vberti_cross_page_prefetch 86057
Core_0_STLB_vberti_cross_page_prefetch_hit 68688
Core_0_STLB_vberti_cross_page_prefetch_miss 17369
Core_0_STLB_vberti_cross_page_prefetch_mshr_merge 0
Core_0_STLB_vberti_cross_page_prefetch_fill 17369
Core_0_STLB_vberti_cross_page_prefetch_miss_rate 0.201831
Core_0_STLB_vberti_cross_page_prefetch_mpki 0.17369
Core_0_STLB_same_page_prefetch_miss_rate 0
Core_0_STLB_same_page_prefetch_mpki 0
Core_0_STLB_cross_page_prefetch_miss_rate 0.201831
Core_0_STLB_cross_page_prefetch_mpki 0.17369
Core_0_STLB_cross_page_prefetch_issued 86057
Core_0_STLB_cross_page_prefetch_lookups 86057
Core_0_STLB_cross_page_prefetch_useful 6166
Core_0_STLB_cross_page_prefetch_useless 11203
Core_0_STLB_cross_page_prefetch_late 0
Core_0_STLB_cross_page_prefetch_too_early 703
Core_0_STLB_cross_page_prefetch_too_early_among_fill 0.0404744
Core_0_STLB_cross_page_prefetch_too_early_among_useless 0.062751
Core_0_STLB_cross_page_prefetch_pollution_evict 10709
Core_0_STLB_cross_page_prefetch_pollution_demand 10193
Core_0_STLB_cross_page_prefetch_pollution_among_prefetch_fill 0.616558
Core_0_STLB_cross_page_prefetch_accuracy 0.0716502
Core_0_STLB_cross_page_prefetch_coverage 0.0509595

========= STLB Cross-page Prefetch Buffer Stats =========
Core_0_STLB_raw_demand_miss 114832
Core_0_CP_PB_insert 0
Core_0_CP_PB_demand_hit 0
Core_0_STLB_PB_demand_miss 114832
Core_0_CP_PB_coverage 0
Core_0_STLB_raw_demand_mpki 1.14832
Core_0_STLB_PB_demand_mpki 1.14832
Core_0_CP_PB_demand_hit_mpki 0

Core_0_TLB_demand_miss_rate 0.00434586
Core_0_TLB_demand_mpki 1.14832
Core_0_TLB_same_page_prefetch_miss_rate 0
Core_0_TLB_same_page_prefetch_mpki 0
Core_0_TLB_cross_page_prefetch_miss_rate 0.0136035
Core_0_TLB_cross_page_prefetch_mpki 0.17369
Core_0_TLB_cross_page_prefetch_issued 1276802
Core_0_TLB_cross_page_prefetch_lookups 1276802
Core_0_TLB_cross_page_prefetch_useful 13256
Core_0_TLB_cross_page_prefetch_useless 62749
Core_0_TLB_cross_page_prefetch_late 108
Core_0_TLB_cross_page_prefetch_too_early 9787
Core_0_TLB_cross_page_prefetch_too_early_among_fill 0.0947352
Core_0_TLB_cross_page_prefetch_too_early_among_useless 0.155971
Core_0_TLB_cross_page_prefetch_accuracy 0.0103822
Core_0_TLB_cross_page_prefetch_coverage 0.103491
====== vBerti internal metric ========
Core_0_vBerti_end_to_end_issued 14073766
Core_0_vBerti_end_to_end_useful 343696
Core_0_vBerti_end_to_end_late 3482
Core_0_vBerti_end_to_end_accuracy 0.024421
Core_0_vBerti_end_to_end_timely_accuracy 0.0241736
BERTI TO_L1: 59837974 TO_L2: 6136750 TO_L2_BC_MSHR: 2442661
BERTI AVG_LAT: 103.111 NUM_TRACK_LATENCY: 8225217 NUM_CANT_TRACK_LATENCY: 0
BERTI CROSS_PAGE 17793965 NO_CROSS_PAGE: 65974724
BERTI FOUND_BERTI: 26751228 NO_FOUND_BERTI: 5340851
BERTI AVERAGE_ISSUED: 2.44401
