[VMEM] WARNING: physical memory size is smaller than virtual memory size.

*** ChampSim Multicore Out-of-Order Simulator ***
Warmup Instructions: 50000000
Simulation Instructions: 100000000
Number of CPUs: 1
Page size: 4096
Core 0: /data0/tzh/champsim_traces/Ligra/ligra_Components.com-lj.ungraph.gcc_6.3.0_O3.drop_22750M.length_250M.champsimtrace.xz
VBerti Prefetcher
BERTI HASH ENTANGLING
BERTI IP MASK ffff
Off-chip DRAM Size: 16 GiB Channels: 1 Width: 64-bit Data Rate: 3205 MT/s
Warmup halting CPU 0 at instruction 50000003 cycle 12502747 for remainder of phase
Warmup finished CPU 0 instructions: 50000003 cycles: 12502747 cumulative IPC: 3.999 (Simulation time: 00 hr 02 min 56 sec)
Warmup complete CPU 0 instructions: 50000003 cycles: 12502747 cumulative IPC: 3.999 (Simulation time: 00 hr 02 min 56 sec)
Simulation finished CPU 0 instructions: 100000000 cycles: 221222377 cumulative IPC: 0.452 (Simulation time: 00 hr 23 min 01 sec)
Simulation complete CPU 0 instructions: 100000000 cycles: 221222377 cumulative IPC: 0.452 (Simulation time: 00 hr 23 min 01 sec)

ChampSim completed all CPUs

=== Simulation ===
CPU 0 runs /data0/tzh/champsim_traces/Ligra/ligra_Components.com-lj.ungraph.gcc_6.3.0_O3.drop_22750M.length_250M.champsimtrace.xz

Region of Interest Statistics

CPU 0 cumulative IPC: 0.452 instructions: 100000000 cycles: 221222377
CPU 0 Branch Prediction Accuracy: 96.79% MPKI: 7.769 Average ROB Occupancy at Mispredict: 89.15
Branch type MPKI
BRANCH_DIRECT_JUMP: 0
BRANCH_INDIRECT: 0
BRANCH_CONDITIONAL: 7.769
BRANCH_DIRECT_CALL: 0
BRANCH_INDIRECT_CALL: 0
BRANCH_RETURN: 0

cpu0->cpu0_STLB TOTAL        ACCESS:    6813637 HIT:    6487236 MISS:     326401 MSHR_MERGE:          0
cpu0->cpu0_STLB LOAD         ACCESS:    6813637 HIT:    6487236 MISS:     326401 MSHR_MERGE:          0
cpu0->cpu0_STLB RFO          ACCESS:          0 HIT:          0 MISS:          0 MSHR_MERGE:          0
cpu0->cpu0_STLB PREFETCH     ACCESS:          0 HIT:          0 MISS:          0 MSHR_MERGE:          0
cpu0->cpu0_STLB WRITE        ACCESS:          0 HIT:          0 MISS:          0 MSHR_MERGE:          0
cpu0->cpu0_STLB TRANSLATION  ACCESS:          0 HIT:          0 MISS:          0 MSHR_MERGE:          0
cpu0->cpu0_STLB PREFETCH REQUESTED:          0 ISSUED:          0 USEFUL:          0 USELESS:          0 LATE:          0 TOO_EARLY:          0
cpu0->cpu0_STLB AVERAGE MISS LATENCY: 40.23 cycles
cpu0->cpu0_L2C TOTAL        ACCESS:    9158021 HIT:    2846513 MISS:    6311508 MSHR_MERGE:     295999
cpu0->cpu0_L2C LOAD         ACCESS:    6647943 HIT:    1531846 MISS:    5116097 MSHR_MERGE:       1799
cpu0->cpu0_L2C RFO          ACCESS:       5388 HIT:       5198 MISS:        190 MSHR_MERGE:          0
cpu0->cpu0_L2C PREFETCH     ACCESS:    2226494 HIT:    1075420 MISS:    1151074 MSHR_MERGE:     294200
cpu0->cpu0_L2C WRITE        ACCESS:      17360 HIT:      17360 MISS:          0 MSHR_MERGE:          0
cpu0->cpu0_L2C TRANSLATION  ACCESS:     260836 HIT:     216689 MISS:      44147 MSHR_MERGE:          0
cpu0->cpu0_L2C PREFETCH REQUESTED:     549106 ISSUED:     549104 USEFUL:     169560 USELESS:      63144 LATE:       1444 TOO_EARLY:      14955
cpu0->cpu0_L2C AVERAGE MISS LATENCY: 133.4 cycles
cpu0->cpu0_L1I TOTAL        ACCESS:     429026 HIT:     429026 MISS:          0 MSHR_MERGE:          0
cpu0->cpu0_L1I LOAD         ACCESS:     429026 HIT:     429026 MISS:          0 MSHR_MERGE:          0
cpu0->cpu0_L1I RFO          ACCESS:          0 HIT:          0 MISS:          0 MSHR_MERGE:          0
cpu0->cpu0_L1I PREFETCH     ACCESS:          0 HIT:          0 MISS:          0 MSHR_MERGE:          0
cpu0->cpu0_L1I WRITE        ACCESS:          0 HIT:          0 MISS:          0 MSHR_MERGE:          0
cpu0->cpu0_L1I TRANSLATION  ACCESS:          0 HIT:          0 MISS:          0 MSHR_MERGE:          0
cpu0->cpu0_L1I PREFETCH REQUESTED:          0 ISSUED:          0 USEFUL:          0 USELESS:          0 LATE:          0 TOO_EARLY:          0
cpu0->cpu0_L1I AVERAGE MISS LATENCY: - cycles
cpu0->cpu0_L1D TOTAL        ACCESS:   40802958 HIT:   32016097 MISS:    8786861 MSHR_MERGE:     193676
cpu0->cpu0_L1D LOAD         ACCESS:   25092357 HIT:   18253514 MISS:    6838843 MSHR_MERGE:     190900
cpu0->cpu0_L1D RFO          ACCESS:          0 HIT:          0 MISS:          0 MSHR_MERGE:          0
cpu0->cpu0_L1D PREFETCH     ACCESS:   14282754 HIT:   12602877 MISS:    1679877 MSHR_MERGE:        860
cpu0->cpu0_L1D WRITE        ACCESS:     778379 HIT:     772846 MISS:       5533 MSHR_MERGE:        144
cpu0->cpu0_L1D TRANSLATION  ACCESS:     649468 HIT:     386860 MISS:     262608 MSHR_MERGE:       1772
cpu0->cpu0_L1D PREFETCH REQUESTED:   83436836 ISSUED:   15115243 USEFUL:     793689 USELESS:      24001 LATE:       7281 TOO_EARLY:        559
cpu0->cpu0_L1D AVERAGE MISS LATENCY: 108.3 cycles
cpu0->cpu0_ITLB TOTAL        ACCESS:     429026 HIT:     429026 MISS:          0 MSHR_MERGE:          0
cpu0->cpu0_ITLB LOAD         ACCESS:     429026 HIT:     429026 MISS:          0 MSHR_MERGE:          0
cpu0->cpu0_ITLB RFO          ACCESS:          0 HIT:          0 MISS:          0 MSHR_MERGE:          0
cpu0->cpu0_ITLB PREFETCH     ACCESS:          0 HIT:          0 MISS:          0 MSHR_MERGE:          0
cpu0->cpu0_ITLB WRITE        ACCESS:          0 HIT:          0 MISS:          0 MSHR_MERGE:          0
cpu0->cpu0_ITLB TRANSLATION  ACCESS:          0 HIT:          0 MISS:          0 MSHR_MERGE:          0
cpu0->cpu0_ITLB PREFETCH REQUESTED:          0 ISSUED:          0 USEFUL:          0 USELESS:          0 LATE:          0 TOO_EARLY:          0
cpu0->cpu0_ITLB AVERAGE MISS LATENCY: - cycles
cpu0->cpu0_DTLB TOTAL        ACCESS:   37566961 HIT:   30398377 MISS:    7168584 MSHR_MERGE:     354947
cpu0->cpu0_DTLB LOAD         ACCESS:   37566961 HIT:   30398377 MISS:    7168584 MSHR_MERGE:     354947
cpu0->cpu0_DTLB RFO          ACCESS:          0 HIT:          0 MISS:          0 MSHR_MERGE:          0
cpu0->cpu0_DTLB PREFETCH     ACCESS:          0 HIT:          0 MISS:          0 MSHR_MERGE:          0
cpu0->cpu0_DTLB WRITE        ACCESS:          0 HIT:          0 MISS:          0 MSHR_MERGE:          0
cpu0->cpu0_DTLB TRANSLATION  ACCESS:          0 HIT:          0 MISS:          0 MSHR_MERGE:          0
cpu0->cpu0_DTLB PREFETCH REQUESTED:          0 ISSUED:          0 USEFUL:          0 USELESS:          0 LATE:          0 TOO_EARLY:          0
cpu0->cpu0_DTLB AVERAGE MISS LATENCY: 6.996 cycles
cpu0->LLC TOTAL        ACCESS:    6027660 HIT:    2588758 MISS:    3438902 MSHR_MERGE:      18010
cpu0->LLC LOAD         ACCESS:    5114298 HIT:    2526984 MISS:    2587314 MSHR_MERGE:        439
cpu0->LLC RFO          ACCESS:        190 HIT:          0 MISS:        190 MSHR_MERGE:          0
cpu0->LLC PREFETCH     ACCESS:     856874 HIT:      23593 MISS:     833281 MSHR_MERGE:      17571
cpu0->LLC WRITE        ACCESS:      12151 HIT:       2675 MISS:       9476 MSHR_MERGE:          0
cpu0->LLC TRANSLATION  ACCESS:      44147 HIT:      35506 MISS:       8641 MSHR_MERGE:          0
cpu0->LLC PREFETCH REQUESTED:          0 ISSUED:          0 USEFUL:          0 USELESS:          0 LATE:          0 TOO_EARLY:          0
cpu0->LLC AVERAGE MISS LATENCY: 233.4 cycles

DRAM Statistics

Channel 0 RQ ROW_BUFFER_HIT:      10188
  ROW_BUFFER_MISS:    3401228
  AVG DBUS CONGESTED CYCLE: 4.955
Channel 0 WQ ROW_BUFFER_HIT:       2784
  ROW_BUFFER_MISS:       9329
  FULL:          0
Channel 0 REFRESHES ISSUED:      18436

[ROI Statistics]
[System Configuration]
num_cpus 1
cpu_freq 4000
fetch_width 6
decode_width 6
dispatch_width 6
execute_width 6
lq_width 2
sq_width 2
retire_width 6
scheduler_size 128
branch_mispredict_penalty 15
rob_size 352
lq_size 128
sq_size 72
ifetch_buffer_size 64
decode_buffer_size 32
dispatch_buffer_size 32
register_file_size 288
decode_latency 1
dispatch_latency 1
schedule_latency 1
execute_latency 1
page_size 4096
block_size 64
core_0_itlb_set 16
core_0_itlb_way 4
core_0_itlb_rq_size 16
core_0_itlb_wq_size 16
core_0_itlb_pq_size 0
core_0_itlb_mshr_size 8
core_0_itlb_hit_latency 1
core_0_itlb_fill_latency 1
core_0_itlb_max_tag_check 2
core_0_itlb_max_fill 2
core_0_dtlb_set 16
core_0_dtlb_way 4
core_0_dtlb_rq_size 16
core_0_dtlb_wq_size 16
core_0_dtlb_pq_size 0
core_0_dtlb_mshr_size 8
core_0_dtlb_hit_latency 1
core_0_dtlb_fill_latency 1
core_0_dtlb_max_tag_check 2
core_0_dtlb_max_fill 2
core_0_stlb_set 128
core_0_stlb_way 12
core_0_stlb_rq_size 32
core_0_stlb_wq_size 32
core_0_stlb_pq_size 0
core_0_stlb_mshr_size 16
core_0_stlb_hit_latency 4
core_0_stlb_fill_latency 4
core_0_stlb_max_tag_check 1
core_0_stlb_max_fill 1
core_0_l1i_set 64
core_0_l1i_way 8
core_0_l1i_rq_size 64
core_0_l1i_wq_size 64
core_0_l1i_pq_size 32
core_0_l1i_mshr_size 8
core_0_l1i_hit_latency 2
core_0_l1i_fill_latency 2
core_0_l1i_max_tag_check 2
core_0_l1i_max_fill 2
core_0_l1d_set 64
core_0_l1d_way 12
core_0_l1d_rq_size 64
core_0_l1d_wq_size 64
core_0_l1d_pq_size 8
core_0_l1d_mshr_size 16
core_0_l1d_hit_latency 2
core_0_l1d_fill_latency 3
core_0_l1d_max_tag_check 2
core_0_l1d_max_fill 2
core_0_l2c_set 1024
core_0_l2c_way 8
core_0_l2c_rq_size 32
core_0_l2c_wq_size 32
core_0_l2c_pq_size 16
core_0_l2c_mshr_size 32
core_0_l2c_hit_latency 5
core_0_l2c_fill_latency 5
core_0_l2c_max_tag_check 1
core_0_l2c_max_fill 1
llc_set 2048
llc_way 16
llc_rq_size 32
llc_wq_size 32
llc_pq_size 32
llc_mshr_size 64
llc_hit_latency 10
llc_fill_latency 10
llc_max_tag_check 1
llc_max_fill 1
dram_channels 1
dram_ranks 1
dram_bankgroups 8
dram_banks 4
dram_rows 65536
dram_columns 1024
dram_channel_width 8
dram_rq_size 64
dram_wq_size 64
dram_size 17179869184
core_0_itlb_prefetcher no
core_0_dtlb_prefetcher no
core_0_stlb_prefetcher no
core_0_l1i_prefetcher next_line
core_0_l1d_prefetcher vberti
core_0_l2c_prefetcher ip_stride
llc_prefetcher no
llc_replacement drrip

Core_0_instructions 100000000
Core_0_cycles 221222377
Core_0_IPC 0.452034
Core_0_branch_prediction_accuracy 96.7926
Core_0_branch_MPKI 7.76887
Core_0_average_ROB_occupancy_at_mispredict 89.1494

Core_0_ITLB_total_access 429026
Core_0_ITLB_total_hit 429026
Core_0_ITLB_total_miss 0
Core_0_ITLB_total_MPKI 0
Core_0_ITLB_total_miss_rate 0
Core_0_ITLB_demand_access 429026
Core_0_ITLB_demand_hit 429026
Core_0_ITLB_demand_miss 0
Core_0_ITLB_demand_MPKI 0
Core_0_ITLB_demand_miss_rate 0
Core_0_ITLB_load_access 429026
Core_0_ITLB_load_hit 429026
Core_0_ITLB_load_miss 0
Core_0_ITLB_load_MPKI 0
Core_0_ITLB_load_miss_rate 0
Core_0_ITLB_rfo_access 0
Core_0_ITLB_rfo_hit 0
Core_0_ITLB_rfo_miss 0
Core_0_ITLB_rfo_MPKI 0
Core_0_ITLB_rfo_miss_rate 0
Core_0_ITLB_prefetch_access 0
Core_0_ITLB_prefetch_hit 0
Core_0_ITLB_prefetch_miss 0
Core_0_ITLB_prefetch_MPKI 0
Core_0_ITLB_prefetch_miss_rate 0
Core_0_ITLB_writeback_access 0
Core_0_ITLB_writeback_hit 0
Core_0_ITLB_writeback_miss 0
Core_0_ITLB_writeback_MPKI 0
Core_0_ITLB_writeback_miss_rate 0
Core_0_ITLB_prefetch_requested 0
Core_0_ITLB_prefetch_issued 0
Core_0_ITLB_prefetch_useful 0
Core_0_ITLB_prefetch_useless 0
Core_0_ITLB_prefetch_late 0
Core_0_ITLB_prefetch_fill 0
Core_0_ITLB_prefetch_too_early 0
Core_0_ITLB_prefetch_too_early_among_fill 0
Core_0_ITLB_prefetch_too_early_among_useless 0
Core_0_ITLB_prefetch_pollution_evict 0
Core_0_ITLB_prefetch_pollution_demand 0
Core_0_ITLB_prefetch_pollution_among_prefetch_fill 0
Core_0_ITLB_prefetch_accuracy 0
Core_0_ITLB_prefetch_coverage 0

Core_0_DTLB_total_access 37566961
Core_0_DTLB_total_hit 30398377
Core_0_DTLB_total_miss 7168584
Core_0_DTLB_total_MPKI 71.6858
Core_0_DTLB_total_miss_rate 0.190822
Core_0_DTLB_demand_access 37566961
Core_0_DTLB_demand_hit 30398377
Core_0_DTLB_demand_miss 7168584
Core_0_DTLB_demand_MPKI 71.6858
Core_0_DTLB_demand_miss_rate 0.190822
Core_0_DTLB_load_access 37566961
Core_0_DTLB_load_hit 30398377
Core_0_DTLB_load_miss 7168584
Core_0_DTLB_load_MPKI 71.6858
Core_0_DTLB_load_miss_rate 0.190822
Core_0_DTLB_rfo_access 0
Core_0_DTLB_rfo_hit 0
Core_0_DTLB_rfo_miss 0
Core_0_DTLB_rfo_MPKI 0
Core_0_DTLB_rfo_miss_rate 0
Core_0_DTLB_prefetch_access 0
Core_0_DTLB_prefetch_hit 0
Core_0_DTLB_prefetch_miss 0
Core_0_DTLB_prefetch_MPKI 0
Core_0_DTLB_prefetch_miss_rate 0
Core_0_DTLB_writeback_access 0
Core_0_DTLB_writeback_hit 0
Core_0_DTLB_writeback_miss 0
Core_0_DTLB_writeback_MPKI 0
Core_0_DTLB_writeback_miss_rate 0
Core_0_DTLB_prefetch_requested 0
Core_0_DTLB_prefetch_issued 0
Core_0_DTLB_prefetch_useful 0
Core_0_DTLB_prefetch_useless 0
Core_0_DTLB_prefetch_late 0
Core_0_DTLB_prefetch_fill 0
Core_0_DTLB_prefetch_too_early 0
Core_0_DTLB_prefetch_too_early_among_fill 0
Core_0_DTLB_prefetch_too_early_among_useless 0
Core_0_DTLB_prefetch_pollution_evict 0
Core_0_DTLB_prefetch_pollution_demand 0
Core_0_DTLB_prefetch_pollution_among_prefetch_fill 0
Core_0_DTLB_prefetch_accuracy 0
Core_0_DTLB_prefetch_coverage 0

Core_0_STLB_total_access 6813637
Core_0_STLB_total_hit 6487236
Core_0_STLB_total_miss 326401
Core_0_STLB_total_MPKI 3.26401
Core_0_STLB_total_miss_rate 0.0479041
Core_0_STLB_demand_access 6813637
Core_0_STLB_demand_hit 6487236
Core_0_STLB_demand_miss 326401
Core_0_STLB_demand_MPKI 3.26401
Core_0_STLB_demand_miss_rate 0.0479041
Core_0_STLB_load_access 6813637
Core_0_STLB_load_hit 6487236
Core_0_STLB_load_miss 326401
Core_0_STLB_load_MPKI 3.26401
Core_0_STLB_load_miss_rate 0.0479041
Core_0_STLB_rfo_access 0
Core_0_STLB_rfo_hit 0
Core_0_STLB_rfo_miss 0
Core_0_STLB_rfo_MPKI 0
Core_0_STLB_rfo_miss_rate 0
Core_0_STLB_prefetch_access 0
Core_0_STLB_prefetch_hit 0
Core_0_STLB_prefetch_miss 0
Core_0_STLB_prefetch_MPKI 0
Core_0_STLB_prefetch_miss_rate 0
Core_0_STLB_writeback_access 0
Core_0_STLB_writeback_hit 0
Core_0_STLB_writeback_miss 0
Core_0_STLB_writeback_MPKI 0
Core_0_STLB_writeback_miss_rate 0
Core_0_STLB_prefetch_requested 0
Core_0_STLB_prefetch_issued 0
Core_0_STLB_prefetch_useful 0
Core_0_STLB_prefetch_useless 0
Core_0_STLB_prefetch_late 0
Core_0_STLB_prefetch_fill 0
Core_0_STLB_prefetch_too_early 0
Core_0_STLB_prefetch_too_early_among_fill 0
Core_0_STLB_prefetch_too_early_among_useless 0
Core_0_STLB_prefetch_pollution_evict 0
Core_0_STLB_prefetch_pollution_demand 0
Core_0_STLB_prefetch_pollution_among_prefetch_fill 0
Core_0_STLB_prefetch_accuracy 0
Core_0_STLB_prefetch_coverage 0

Core_0_L1I_total_access 429026
Core_0_L1I_total_hit 429026
Core_0_L1I_total_miss 0
Core_0_L1I_total_MPKI 0
Core_0_L1I_total_miss_rate 0
Core_0_L1I_demand_access 429026
Core_0_L1I_demand_hit 429026
Core_0_L1I_demand_miss 0
Core_0_L1I_demand_MPKI 0
Core_0_L1I_demand_miss_rate 0
Core_0_L1I_load_access 429026
Core_0_L1I_load_hit 429026
Core_0_L1I_load_miss 0
Core_0_L1I_load_MPKI 0
Core_0_L1I_load_miss_rate 0
Core_0_L1I_rfo_access 0
Core_0_L1I_rfo_hit 0
Core_0_L1I_rfo_miss 0
Core_0_L1I_rfo_MPKI 0
Core_0_L1I_rfo_miss_rate 0
Core_0_L1I_prefetch_access 0
Core_0_L1I_prefetch_hit 0
Core_0_L1I_prefetch_miss 0
Core_0_L1I_prefetch_MPKI 0
Core_0_L1I_prefetch_miss_rate 0
Core_0_L1I_writeback_access 0
Core_0_L1I_writeback_hit 0
Core_0_L1I_writeback_miss 0
Core_0_L1I_writeback_MPKI 0
Core_0_L1I_writeback_miss_rate 0
Core_0_L1I_prefetch_requested 0
Core_0_L1I_prefetch_issued 0
Core_0_L1I_prefetch_useful 0
Core_0_L1I_prefetch_useless 0
Core_0_L1I_prefetch_late 0
Core_0_L1I_prefetch_fill 0
Core_0_L1I_prefetch_too_early 0
Core_0_L1I_prefetch_too_early_among_fill 0
Core_0_L1I_prefetch_too_early_among_useless 0
Core_0_L1I_prefetch_pollution_evict 0
Core_0_L1I_prefetch_pollution_demand 0
Core_0_L1I_prefetch_pollution_among_prefetch_fill 0
Core_0_L1I_prefetch_accuracy 0
Core_0_L1I_prefetch_coverage 0

Core_0_L1D_total_access 40153490
Core_0_L1D_total_hit 31629237
Core_0_L1D_total_miss 8524253
Core_0_L1D_total_MPKI 85.2425
Core_0_L1D_total_miss_rate 0.212292
Core_0_L1D_demand_access 25092357
Core_0_L1D_demand_hit 18253514
Core_0_L1D_demand_miss 6838843
Core_0_L1D_demand_MPKI 68.3884
Core_0_L1D_demand_miss_rate 0.272547
Core_0_L1D_load_access 25092357
Core_0_L1D_load_hit 18253514
Core_0_L1D_load_miss 6838843
Core_0_L1D_load_MPKI 68.3884
Core_0_L1D_load_miss_rate 0.272547
Core_0_L1D_rfo_access 0
Core_0_L1D_rfo_hit 0
Core_0_L1D_rfo_miss 0
Core_0_L1D_rfo_MPKI 0
Core_0_L1D_rfo_miss_rate 0
Core_0_L1D_prefetch_access 14282754
Core_0_L1D_prefetch_hit 12602877
Core_0_L1D_prefetch_miss 1679877
Core_0_L1D_prefetch_MPKI 16.7988
Core_0_L1D_prefetch_miss_rate 0.117616
Core_0_L1D_writeback_access 778379
Core_0_L1D_writeback_hit 772846
Core_0_L1D_writeback_miss 5533
Core_0_L1D_writeback_MPKI 0.05533
Core_0_L1D_writeback_miss_rate 0.00710836
Core_0_L1D_prefetch_requested 83436836
Core_0_L1D_prefetch_issued 15115243
Core_0_L1D_prefetch_useful 793689
Core_0_L1D_prefetch_useless 24001
Core_0_L1D_prefetch_late 7281
Core_0_L1D_prefetch_fill 810421
Core_0_L1D_prefetch_too_early 559
Core_0_L1D_prefetch_too_early_among_fill 0.000689765
Core_0_L1D_prefetch_too_early_among_useless 0.0232907
Core_0_L1D_prefetch_pollution_evict 151364
Core_0_L1D_prefetch_pollution_demand 151358
Core_0_L1D_cross_page_pf_translation_only_requested 10699907
Core_0_L1D_cross_page_pf_translation_only_issued 832488
Core_0_L1D_cross_page_pf_translation_only_dropped 832488
Core_0_L1D_prefetch_pollution_among_prefetch_fill 0.186772
Core_0_L1D_prefetch_accuracy 0.0525092
Core_0_L1D_prefetch_coverage 0.103988

Core_0_L2C_total_access 8897185
Core_0_L2C_total_hit 2629824
Core_0_L2C_total_miss 6267361
Core_0_L2C_total_MPKI 62.6736
Core_0_L2C_total_miss_rate 0.704421
Core_0_L2C_demand_access 6653331
Core_0_L2C_demand_hit 1537044
Core_0_L2C_demand_miss 5116287
Core_0_L2C_demand_MPKI 51.1629
Core_0_L2C_demand_miss_rate 0.768981
Core_0_L2C_load_access 6647943
Core_0_L2C_load_hit 1531846
Core_0_L2C_load_miss 5116097
Core_0_L2C_load_MPKI 51.161
Core_0_L2C_load_miss_rate 0.769576
Core_0_L2C_rfo_access 5388
Core_0_L2C_rfo_hit 5198
Core_0_L2C_rfo_miss 190
Core_0_L2C_rfo_MPKI 0.0019
Core_0_L2C_rfo_miss_rate 0.0352635
Core_0_L2C_prefetch_access 2226494
Core_0_L2C_prefetch_hit 1075420
Core_0_L2C_prefetch_miss 1151074
Core_0_L2C_prefetch_MPKI 11.5107
Core_0_L2C_prefetch_miss_rate 0.516989
Core_0_L2C_writeback_access 17360
Core_0_L2C_writeback_hit 17360
Core_0_L2C_writeback_miss 0
Core_0_L2C_writeback_MPKI 0
Core_0_L2C_writeback_miss_rate 0
Core_0_L2C_prefetch_requested 549106
Core_0_L2C_prefetch_issued 549104
Core_0_L2C_prefetch_useful 169560
Core_0_L2C_prefetch_useless 63144
Core_0_L2C_prefetch_late 1444
Core_0_L2C_prefetch_fill 822162
Core_0_L2C_prefetch_too_early 14955
Core_0_L2C_prefetch_too_early_among_fill 0.0181898
Core_0_L2C_prefetch_too_early_among_useless 0.23684
Core_0_L2C_prefetch_pollution_evict 379184
Core_0_L2C_prefetch_pollution_demand 378203
Core_0_L2C_prefetch_pollution_among_prefetch_fill 0.461204
Core_0_L2C_prefetch_accuracy 0.308794
Core_0_L2C_prefetch_coverage 0.0320781

Core_0_LLC_total_access 5983513
Core_0_LLC_total_hit 2553252
Core_0_LLC_total_miss 3430261
Core_0_LLC_total_MPKI 34.3026
Core_0_LLC_total_miss_rate 0.573285
Core_0_LLC_demand_access 5114488
Core_0_LLC_demand_hit 2526984
Core_0_LLC_demand_miss 2587504
Core_0_LLC_demand_MPKI 25.875
Core_0_LLC_demand_miss_rate 0.505917
Core_0_LLC_load_access 5114298
Core_0_LLC_load_hit 2526984
Core_0_LLC_load_miss 2587314
Core_0_LLC_load_MPKI 25.8731
Core_0_LLC_load_miss_rate 0.505898
Core_0_LLC_rfo_access 190
Core_0_LLC_rfo_hit 0
Core_0_LLC_rfo_miss 190
Core_0_LLC_rfo_MPKI 0.0019
Core_0_LLC_rfo_miss_rate 1
Core_0_LLC_prefetch_access 856874
Core_0_LLC_prefetch_hit 23593
Core_0_LLC_prefetch_miss 833281
Core_0_LLC_prefetch_MPKI 8.33281
Core_0_LLC_prefetch_miss_rate 0.972466
Core_0_LLC_writeback_access 12151
Core_0_LLC_writeback_hit 2675
Core_0_LLC_writeback_miss 9476
Core_0_LLC_writeback_MPKI 0.09476
Core_0_LLC_writeback_miss_rate 0.779854
Core_0_LLC_prefetch_requested 0
Core_0_LLC_prefetch_issued 0
Core_0_LLC_prefetch_useful 0
Core_0_LLC_prefetch_useless 0
Core_0_LLC_prefetch_late 0
Core_0_LLC_prefetch_fill 815271
Core_0_LLC_prefetch_too_early 0
Core_0_LLC_prefetch_too_early_among_fill 0
Core_0_LLC_prefetch_too_early_among_useless 0
Core_0_LLC_prefetch_pollution_evict 469471
Core_0_LLC_prefetch_pollution_demand 469471
Core_0_LLC_prefetch_pollution_among_prefetch_fill 0.575847
Core_0_LLC_prefetch_accuracy 0
Core_0_LLC_prefetch_coverage 0

[DRAM Statistics]
Channel_0_RQ_row_buffer_hit 10188
Channel_0_RQ_row_buffer_miss 3401228
Channel_0_WQ_row_buffer_hit 2784
Channel_0_WQ_row_buffer_miss 9329
Channel_0_WQ_full 0
Channel_0_dbus_congested 5228708
DRAM_total_RQ_row_buffer_hit 10188
DRAM_total_RQ_row_buffer_miss 3401228
DRAM_total_WQ_row_buffer_hit 2784
DRAM_total_WQ_row_buffer_miss 9329
DRAM_total_WQ_full 0
DRAM_total_dbus_congested 5228708
DRAM_avg_congested_cycle 4.95511

====== DRAM_RQ_TRAFFIC ========
DRAM_RQ_READ_TRAFFIC_BREAKDOWN:
data_demand_read.count = 2587065
data_demand_read.share = 75.84%

inst_demand_read.count = 0
inst_demand_read.share = 0.00%

cache_inst_prefetch.count = 0
cache_inst_prefetch.share = 0.00%

cache_data_prefetch.count = 815710
cache_data_prefetch.share = 23.91%

stlb_data_demand.count = 5733
stlb_data_demand.share = 0.17%

stlb_inst_demand.count = 0
stlb_inst_demand.share = 0.00%

stlb_l1i_pref.count = 0
stlb_l1i_pref.share = 0.00%

stlb_l1d_pref.count = 2908
stlb_l1d_pref.share = 0.09%

DRAM_RQ_READ_TRAFFIC_SUMMARY:
cache_demand.count = 2587065
cache_demand.share = 75.84%

cache_prefetch.count = 815710
cache_prefetch.share = 23.91%

stlb_demand.count = 5733
stlb_demand.share = 0.17%

stlb_prefetch.count = 2908
stlb_prefetch.share = 0.09%

DRAM_RQ_READ_TRAFFIC_DEBUG:
total_classified_read.count = 3411416
unclassified_read.count = 0
total_read_with_other.count = 3411416

classified_plus_unclassified_check.count = 3411416
dram_rq_read_total_observed.count = 3411416
dram_rq_read_total_observed.per_1K_instructions = 34.1142

STLB_MISS_PTW_DRAM_TOUCH_BREAKDOWN:
stlb_miss_total.count = 326401

stlb_miss_touch_dram.count = 8626
stlb_miss_touch_dram.share = 2.64%

stlb_miss_no_dram_touch.count = 317775
stlb_miss_no_dram_touch.share = 97.36%

STLB_MISS_PTW_DRAM_TOUCH_DEBUG:
stlb_miss_touch_plus_no_touch.count = 326401
stlb_miss_total_check.count = 326401

======STLB miss causes ========
Core_0_STLB_miss_cause_breakdown
Core_0_STLB_cause_Demand_Data_miss 307345
Core_0_STLB_cause_Demand_Data_miss_rate 0.0451073
Core_0_STLB_cause_Demand_Instruction_miss 0
Core_0_STLB_cause_Demand_Instruction_miss_rate 0
Core_0_STLB_cause_L1D_Prefetch_miss 19056
Core_0_STLB_cause_L1D_Prefetch_miss_rate 0.00279674
Core_0_STLB_cause_L1D_Prefetch_Same_Page_miss 6
Core_0_STLB_cause_L1D_Prefetch_Same_Page_miss_rate 8.80587e-07
Core_0_STLB_cause_L1D_Prefetch_Cross_Page_miss 19050
Core_0_STLB_cause_L1D_Prefetch_Cross_Page_miss_rate 0.00279586
Core_0_STLB_cause_L1I_Prefetch_miss 0
Core_0_STLB_cause_L1I_Prefetch_miss_rate 0
Core_0_STLB_cause_Other_miss 0
Core_0_STLB_cause_Other_miss_rate 0
Core_0_STLB_Demand_miss 307345
Core_0_STLB_Demand_miss_rate 0.0451073
Core_0_STLB_L1D_Prefetch_miss 19056
Core_0_STLB_L1D_Prefetch_miss_rate 0.00279674
Core_0_STLB_Other_miss 0
Core_0_STLB_Other_miss_rate 0

========== vBerti-TLB Cross-page Flow Stats ==========

Core_0_vBerti_Requested 83436836
Core_0_vBerti_Cross_page_prefetch_in_Requested 10699907
Core_0_vBerti_Same_page_prefetch_in_Requested 72736929
Core_0_vBerti_Cross_page_prefetch_of_Requested 0.12824
Core_0_vBerti_Issued 15115243
Core_0_vBerti_InPQ_Same_page_prefetch 14282755
Core_0_vBerti_InPQ_Cross_page_prefetch 832488
Core_0_vBerti_PQ_Drop_Rate 0.818842
Core_0_vBerti_InPQ_Cross_page_prefetch_of_Requested 0.00997746
Core_0_vBerti_Cross_page_PQ_Drop_rate 0.922197
Core_0_vBerti_Cross_page_prefetch_of_Issued 0.0550761
Core_0_CP_PF_PQFULL_drop 9867419
Core_0_CP_PF_PQFULL_TLB_rescue_enqueued 0
Core_0_CP_PF_PQFULL_TLB_rescue_issued 0
Core_0_CP_PF_PQFULL_TLB_rescue_translated 0

========= DTLB_vBerti Prefetch Stats =========
Core_0_DTLB_demand_access 25568859
Core_0_DTLB_demand_hit 18497885
Core_0_DTLB_demand_miss 7070974
Core_0_DTLB_demand_mshr_merge 324820
Core_0_DTLB_demand_fill 6746413
Core_0_DTLB_demand_miss_rate 0.276546
Core_0_DTLB_demand_mpki 70.7097
Core_0_DTLB_vberti_prefetch_access 11998102
Core_0_DTLB_vberti_prefetch_hit 11900492
Core_0_DTLB_vberti_prefetch_miss 97610
Core_0_DTLB_vberti_prefetch_mshr_merge 30127
Core_0_DTLB_vberti_prefetch_fill 67224
Core_0_DTLB_vberti_prefetch_miss_rate 0.00813545
Core_0_DTLB_vberti_prefetch_mpki 0.9761

=== DTLB_vBerti Same/Cross-page Prefetch Stats ===
Core_0_DTLB_vberti_same_page_prefetch 11320794
Core_0_DTLB_vberti_same_page_prefetch_hit 11318131
Core_0_DTLB_vberti_same_page_prefetch_miss 2663
Core_0_DTLB_vberti_same_page_prefetch_mshr_merge 675
Core_0_DTLB_vberti_same_page_prefetch_fill 1903
Core_0_DTLB_vberti_same_page_prefetch_miss_rate 0.000235231
Core_0_DTLB_vberti_same_page_prefetch_mpki 0.02663
Core_0_DTLB_vberti_cross_page_prefetch 677308
Core_0_DTLB_vberti_cross_page_prefetch_hit 582361
Core_0_DTLB_vberti_cross_page_prefetch_miss 94947
Core_0_DTLB_vberti_cross_page_prefetch_mshr_merge 29452
Core_0_DTLB_vberti_cross_page_prefetch_fill 65321
Core_0_DTLB_vberti_cross_page_prefetch_miss_rate 0.140183
Core_0_DTLB_vberti_cross_page_prefetch_mpki 0.94947
Core_0_DTLB_same_page_prefetch_miss_rate 0.000235231
Core_0_DTLB_same_page_prefetch_mpki 0.02663
Core_0_DTLB_cross_page_prefetch_miss_rate 0.140183
Core_0_DTLB_cross_page_prefetch_mpki 0.94947
Core_0_DTLB_cross_page_prefetch_issued 677308
Core_0_DTLB_cross_page_prefetch_lookups 677308
Core_0_DTLB_cross_page_prefetch_useful 13988
Core_0_DTLB_cross_page_prefetch_useless 51507
Core_0_DTLB_cross_page_prefetch_late 174
Core_0_DTLB_cross_page_prefetch_too_early 26163
Core_0_DTLB_cross_page_prefetch_too_early_among_fill 0.40053
Core_0_DTLB_cross_page_prefetch_too_early_among_useless 0.50795
Core_0_DTLB_cross_page_prefetch_pollution_evict 58183
Core_0_DTLB_cross_page_prefetch_pollution_demand 56120
Core_0_DTLB_cross_page_prefetch_pollution_among_prefetch_fill 0.890724
Core_0_DTLB_cross_page_prefetch_accuracy 0.0206523
Core_0_DTLB_cross_page_prefetch_coverage 0.00197432

========= STLB_vBerti Prefetch Stats =========
Core_0_STLB_demand_access 6746154
Core_0_STLB_demand_hit 6438809
Core_0_STLB_demand_miss 307345
Core_0_STLB_demand_mshr_merge 0
Core_0_STLB_demand_fill 307345
Core_0_STLB_demand_miss_rate 0.0455586
Core_0_STLB_demand_mpki 3.07345
Core_0_STLB_vberti_prefetch_access 67483
Core_0_STLB_vberti_prefetch_hit 48427
Core_0_STLB_vberti_prefetch_miss 19056
Core_0_STLB_vberti_prefetch_mshr_merge 0
Core_0_STLB_vberti_prefetch_fill 19056
Core_0_STLB_vberti_prefetch_miss_rate 0.282382
Core_0_STLB_vberti_prefetch_mpki 0.19056

=== STLB_vBerti Same/Cross-page Prefetch Stats ===
Core_0_STLB_vberti_same_page_prefetch 1988
Core_0_STLB_vberti_same_page_prefetch_hit 1982
Core_0_STLB_vberti_same_page_prefetch_miss 6
Core_0_STLB_vberti_same_page_prefetch_mshr_merge 0
Core_0_STLB_vberti_same_page_prefetch_fill 6
Core_0_STLB_vberti_same_page_prefetch_miss_rate 0.00301811
Core_0_STLB_vberti_same_page_prefetch_mpki 6e-05
Core_0_STLB_vberti_cross_page_prefetch 65495
Core_0_STLB_vberti_cross_page_prefetch_hit 46445
Core_0_STLB_vberti_cross_page_prefetch_miss 19050
Core_0_STLB_vberti_cross_page_prefetch_mshr_merge 0
Core_0_STLB_vberti_cross_page_prefetch_fill 19050
Core_0_STLB_vberti_cross_page_prefetch_miss_rate 0.290862
Core_0_STLB_vberti_cross_page_prefetch_mpki 0.1905
Core_0_STLB_same_page_prefetch_miss_rate 0.00301811
Core_0_STLB_same_page_prefetch_mpki 6e-05
Core_0_STLB_cross_page_prefetch_miss_rate 0.290862
Core_0_STLB_cross_page_prefetch_mpki 0.1905
Core_0_STLB_cross_page_prefetch_issued 65495
Core_0_STLB_cross_page_prefetch_lookups 65495
Core_0_STLB_cross_page_prefetch_useful 7941
Core_0_STLB_cross_page_prefetch_useless 11109
Core_0_STLB_cross_page_prefetch_late 0
Core_0_STLB_cross_page_prefetch_too_early 2097
Core_0_STLB_cross_page_prefetch_too_early_among_fill 0.110079
Core_0_STLB_cross_page_prefetch_too_early_among_useless 0.188766
Core_0_STLB_cross_page_prefetch_pollution_evict 16582
Core_0_STLB_cross_page_prefetch_pollution_demand 16039
Core_0_STLB_cross_page_prefetch_pollution_among_prefetch_fill 0.870446
Core_0_STLB_cross_page_prefetch_accuracy 0.121246
Core_0_STLB_cross_page_prefetch_coverage 0.0251867

========= STLB Cross-page Prefetch Buffer Stats =========
Core_0_STLB_raw_demand_miss 307345
Core_0_CP_PB_insert 0
Core_0_CP_PB_demand_hit 0
Core_0_STLB_PB_demand_miss 307345
Core_0_CP_PB_coverage 0
Core_0_STLB_raw_demand_mpki 3.07345
Core_0_STLB_PB_demand_mpki 3.07345
Core_0_CP_PB_demand_hit_mpki 0

Core_0_TLB_demand_miss_rate 0.0120203
Core_0_TLB_demand_mpki 3.07345
Core_0_TLB_same_page_prefetch_miss_rate 5.29998e-07
Core_0_TLB_same_page_prefetch_mpki 6e-05
Core_0_TLB_cross_page_prefetch_miss_rate 0.0281261
Core_0_TLB_cross_page_prefetch_mpki 0.1905
Core_0_TLB_cross_page_prefetch_issued 677308
Core_0_TLB_cross_page_prefetch_lookups 677308
Core_0_TLB_cross_page_prefetch_useful 13247
Core_0_TLB_cross_page_prefetch_useless 38687
Core_0_TLB_cross_page_prefetch_late 165
Core_0_TLB_cross_page_prefetch_too_early 16980
Core_0_TLB_cross_page_prefetch_too_early_among_fill 0.201254
Core_0_TLB_cross_page_prefetch_too_early_among_useless 0.438907
Core_0_TLB_cross_page_prefetch_accuracy 0.0195583
Core_0_TLB_cross_page_prefetch_coverage 0.0413204
====== vBerti internal metric ========
Core_0_vBerti_end_to_end_issued 14282755
Core_0_vBerti_end_to_end_useful 359367
Core_0_vBerti_end_to_end_late 7161
Core_0_vBerti_end_to_end_accuracy 0.0251609
Core_0_vBerti_end_to_end_timely_accuracy 0.0246595
BERTI TO_L1: 57357098 TO_L2: 15379831 TO_L2_BC_MSHR: 2973364
BERTI AVG_LAT: 116.54 NUM_TRACK_LATENCY: 7457204 NUM_CANT_TRACK_LATENCY: 0
BERTI CROSS_PAGE 10699907 NO_CROSS_PAGE: 72736929
BERTI FOUND_BERTI: 25434400 NO_FOUND_BERTI: 5353152
BERTI AVERAGE_ISSUED: 2.6308
