[VMEM] WARNING: physical memory size is smaller than virtual memory size.

*** ChampSim Multicore Out-of-Order Simulator ***
Warmup Instructions: 50000000
Simulation Instructions: 100000000
Number of CPUs: 1
Page size: 4096
Core 0: /data2/zcq/champsim_traces_gap/pr.twitter-3197B.champsimtrace.xz
VBerti Prefetcher
BERTI HASH ENTANGLING
BERTI IP MASK ffff
Off-chip DRAM Size: 16 GiB Channels: 1 Width: 64-bit Data Rate: 3205 MT/s
Warmup halting CPU 0 at instruction 50000005 cycle 22862357 for remainder of phase
Warmup finished CPU 0 instructions: 50000005 cycles: 22862357 cumulative IPC: 2.187 (Simulation time: 00 hr 06 min 55 sec)
Warmup complete CPU 0 instructions: 50000005 cycles: 22862357 cumulative IPC: 2.187 (Simulation time: 00 hr 06 min 55 sec)
Simulation CPU 0 warning: IPC 0.031731 < 0.05
Simulation CPU 0 warning: IPC 0.032707 < 0.05
Simulation CPU 0 warning: IPC 0.034485 < 0.05
Simulation CPU 0 warning: IPC 0.033252 < 0.05
Simulation CPU 0 warning: IPC 0.034182 < 0.05
Simulation CPU 0 warning: IPC 0.029703 < 0.05
Simulation CPU 0 warning: IPC 0.028089 < 0.05
Simulation CPU 0 warning: IPC 0.03243 < 0.05
Simulation CPU 0 warning: IPC 0.032286 < 0.05
Simulation CPU 0 warning: IPC 0.032865 < 0.05
Simulation CPU 0 warning: IPC 0.032373 < 0.05
Simulation CPU 0 warning: IPC 0.027525 < 0.05
Simulation CPU 0 warning: IPC 0.029485 < 0.05
Simulation CPU 0 warning: IPC 0.028546 < 0.05
Simulation CPU 0 warning: IPC 0.029854 < 0.05
Simulation CPU 0 warning: IPC 0.028369 < 0.05
Simulation CPU 0 warning: IPC 0.026752 < 0.05
Simulation CPU 0 warning: IPC 0.029058 < 0.05
Simulation CPU 0 warning: IPC 0.028755 < 0.05
Simulation CPU 0 warning: IPC 0.031077 < 0.05
Simulation CPU 0 warning: IPC 0.029041 < 0.05
Simulation CPU 0 warning: IPC 0.030389 < 0.05
Simulation CPU 0 warning: IPC 0.030207 < 0.05
Simulation CPU 0 warning: IPC 0.029633 < 0.05
Simulation CPU 0 warning: IPC 0.028307 < 0.05
Simulation CPU 0 warning: IPC 0.030631 < 0.05
Simulation CPU 0 warning: IPC 0.033313 < 0.05
Simulation CPU 0 warning: IPC 0.030105 < 0.05
Simulation CPU 0 warning: IPC 0.026737 < 0.05
Simulation CPU 0 warning: IPC 0.030114 < 0.05
Simulation CPU 0 warning: IPC 0.0304 < 0.05
Simulation CPU 0 warning: IPC 0.031255 < 0.05
Simulation CPU 0 warning: IPC 0.028499 < 0.05
Simulation CPU 0 warning: IPC 0.026842 < 0.05
Simulation CPU 0 warning: IPC 0.030965 < 0.05
Simulation CPU 0 warning: IPC 0.031019 < 0.05
Simulation CPU 0 warning: IPC 0.031626 < 0.05
Simulation CPU 0 warning: IPC 0.033391 < 0.05
Simulation CPU 0 warning: IPC 0.030577 < 0.05
Simulation CPU 0 warning: IPC 0.037706 < 0.05
Simulation CPU 0 warning: IPC 0.034513 < 0.05
Simulation CPU 0 warning: IPC 0.032025 < 0.05
Simulation CPU 0 warning: IPC 0.032515 < 0.05
Simulation CPU 0 warning: IPC 0.033501 < 0.05
Simulation CPU 0 warning: IPC 0.032599 < 0.05
Simulation CPU 0 warning: IPC 0.031073 < 0.05
Simulation CPU 0 warning: IPC 0.030785 < 0.05
Simulation CPU 0 warning: IPC 0.030798 < 0.05
Simulation CPU 0 warning: IPC 0.031541 < 0.05
Simulation CPU 0 warning: IPC 0.030804 < 0.05
Simulation CPU 0 warning: IPC 0.030782 < 0.05
Simulation CPU 0 warning: IPC 0.030189 < 0.05
Simulation CPU 0 warning: IPC 0.030301 < 0.05
Simulation CPU 0 warning: IPC 0.03013 < 0.05
Simulation CPU 0 warning: IPC 0.032866 < 0.05
Simulation CPU 0 warning: IPC 0.030537 < 0.05
Simulation CPU 0 warning: IPC 0.030189 < 0.05
Simulation CPU 0 warning: IPC 0.033087 < 0.05
Simulation CPU 0 warning: IPC 0.030169 < 0.05
Simulation CPU 0 warning: IPC 0.030741 < 0.05
Simulation CPU 0 warning: IPC 0.028645 < 0.05
Simulation CPU 0 warning: IPC 0.034372 < 0.05
Simulation CPU 0 warning: IPC 0.034271 < 0.05
Simulation CPU 0 warning: IPC 0.029543 < 0.05
Simulation CPU 0 warning: IPC 0.031844 < 0.05
Simulation CPU 0 warning: IPC 0.02983 < 0.05
Simulation CPU 0 warning: IPC 0.029085 < 0.05
Simulation CPU 0 warning: IPC 0.033025 < 0.05
Simulation CPU 0 warning: IPC 0.03307 < 0.05
Simulation CPU 0 warning: IPC 0.029596 < 0.05
Simulation CPU 0 warning: IPC 0.034806 < 0.05
Simulation CPU 0 warning: IPC 0.033095 < 0.05
Simulation CPU 0 warning: IPC 0.030879 < 0.05
Simulation CPU 0 warning: IPC 0.028176 < 0.05
Simulation CPU 0 warning: IPC 0.033996 < 0.05
Simulation CPU 0 warning: IPC 0.031089 < 0.05
Simulation CPU 0 warning: IPC 0.030616 < 0.05
Simulation CPU 0 warning: IPC 0.031004 < 0.05
Simulation CPU 0 warning: IPC 0.029274 < 0.05
Simulation CPU 0 warning: IPC 0.031391 < 0.05
Simulation CPU 0 warning: IPC 0.031688 < 0.05
Simulation CPU 0 warning: IPC 0.029097 < 0.05
Simulation CPU 0 warning: IPC 0.033759 < 0.05
Simulation CPU 0 warning: IPC 0.030659 < 0.05
Simulation CPU 0 warning: IPC 0.032488 < 0.05
Simulation CPU 0 warning: IPC 0.031726 < 0.05
Simulation CPU 0 warning: IPC 0.030889 < 0.05
Simulation CPU 0 warning: IPC 0.031648 < 0.05
Simulation CPU 0 warning: IPC 0.031344 < 0.05
Simulation CPU 0 warning: IPC 0.029858 < 0.05
Simulation CPU 0 warning: IPC 0.028303 < 0.05
Simulation CPU 0 warning: IPC 0.027716 < 0.05
Simulation CPU 0 warning: IPC 0.030596 < 0.05
Simulation CPU 0 warning: IPC 0.029407 < 0.05
Simulation CPU 0 warning: IPC 0.026013 < 0.05
Simulation CPU 0 warning: IPC 0.031599 < 0.05
Simulation CPU 0 warning: IPC 0.030632 < 0.05
Simulation CPU 0 warning: IPC 0.032057 < 0.05
Simulation CPU 0 warning: IPC 0.02861 < 0.05
Simulation CPU 0 warning: IPC 0.028502 < 0.05
Simulation CPU 0 warning: IPC 0.029849 < 0.05
Simulation CPU 0 warning: IPC 0.032501 < 0.05
Simulation CPU 0 warning: IPC 0.027588 < 0.05
Simulation CPU 0 warning: IPC 0.032841 < 0.05
Simulation CPU 0 warning: IPC 0.029691 < 0.05
Simulation CPU 0 warning: IPC 0.030163 < 0.05
Simulation CPU 0 warning: IPC 0.032557 < 0.05
Simulation CPU 0 warning: IPC 0.031404 < 0.05
Simulation CPU 0 warning: IPC 0.031578 < 0.05
Simulation CPU 0 warning: IPC 0.03073 < 0.05
Simulation CPU 0 warning: IPC 0.033592 < 0.05
Simulation CPU 0 warning: IPC 0.031009 < 0.05
Simulation CPU 0 warning: IPC 0.034194 < 0.05
Simulation CPU 0 warning: IPC 0.032815 < 0.05
Simulation CPU 0 warning: IPC 0.031152 < 0.05
Simulation CPU 0 warning: IPC 0.029976 < 0.05
Simulation CPU 0 warning: IPC 0.030268 < 0.05
Simulation CPU 0 warning: IPC 0.031915 < 0.05
Simulation CPU 0 warning: IPC 0.030068 < 0.05
Simulation CPU 0 warning: IPC 0.02834 < 0.05
Simulation CPU 0 warning: IPC 0.03153 < 0.05
Simulation CPU 0 warning: IPC 0.026777 < 0.05
Simulation CPU 0 warning: IPC 0.029534 < 0.05
Simulation CPU 0 warning: IPC 0.031441 < 0.05
Simulation CPU 0 warning: IPC 0.032 < 0.05
Simulation CPU 0 warning: IPC 0.025935 < 0.05
Simulation CPU 0 warning: IPC 0.030094 < 0.05
Simulation CPU 0 warning: IPC 0.028403 < 0.05
Simulation CPU 0 warning: IPC 0.029013 < 0.05
Simulation CPU 0 warning: IPC 0.031684 < 0.05
Simulation CPU 0 warning: IPC 0.030703 < 0.05
Simulation CPU 0 warning: IPC 0.031983 < 0.05
Simulation CPU 0 warning: IPC 0.028224 < 0.05
Simulation CPU 0 warning: IPC 0.030217 < 0.05
Simulation CPU 0 warning: IPC 0.030661 < 0.05
Simulation CPU 0 warning: IPC 0.02933 < 0.05
Simulation CPU 0 warning: IPC 0.032875 < 0.05
Simulation CPU 0 warning: IPC 0.032137 < 0.05
Simulation CPU 0 warning: IPC 0.033369 < 0.05
Simulation CPU 0 warning: IPC 0.026842 < 0.05
Simulation CPU 0 warning: IPC 0.027668 < 0.05
Simulation CPU 0 warning: IPC 0.031048 < 0.05
Simulation CPU 0 warning: IPC 0.029542 < 0.05
Simulation CPU 0 warning: IPC 0.03261 < 0.05
Simulation CPU 0 warning: IPC 0.033285 < 0.05
Simulation CPU 0 warning: IPC 0.032783 < 0.05
Simulation CPU 0 warning: IPC 0.030572 < 0.05
Simulation CPU 0 warning: IPC 0.033833 < 0.05
Simulation CPU 0 warning: IPC 0.031518 < 0.05
Simulation CPU 0 warning: IPC 0.030758 < 0.05
Simulation CPU 0 warning: IPC 0.031681 < 0.05
Simulation CPU 0 warning: IPC 0.0311 < 0.05
Simulation CPU 0 warning: IPC 0.030533 < 0.05
Simulation CPU 0 warning: IPC 0.030403 < 0.05
Simulation CPU 0 warning: IPC 0.028276 < 0.05
Simulation CPU 0 warning: IPC 0.033287 < 0.05
Simulation CPU 0 warning: IPC 0.031498 < 0.05
Simulation CPU 0 warning: IPC 0.032456 < 0.05
Simulation CPU 0 warning: IPC 0.029103 < 0.05
Simulation CPU 0 warning: IPC 0.032003 < 0.05
Simulation CPU 0 warning: IPC 0.032198 < 0.05
Simulation CPU 0 warning: IPC 0.029941 < 0.05
Simulation CPU 0 warning: IPC 0.035322 < 0.05
Simulation CPU 0 warning: IPC 0.033116 < 0.05
Simulation CPU 0 warning: IPC 0.034097 < 0.05
Simulation CPU 0 warning: IPC 0.034862 < 0.05
Simulation CPU 0 warning: IPC 0.032756 < 0.05
Simulation CPU 0 warning: IPC 0.032724 < 0.05
Simulation CPU 0 warning: IPC 0.032447 < 0.05
Simulation CPU 0 warning: IPC 0.032244 < 0.05
Simulation CPU 0 warning: IPC 0.032805 < 0.05
Simulation CPU 0 warning: IPC 0.033224 < 0.05
Simulation CPU 0 warning: IPC 0.033495 < 0.05
Simulation CPU 0 warning: IPC 0.027874 < 0.05
Simulation CPU 0 warning: IPC 0.028349 < 0.05
Simulation CPU 0 warning: IPC 0.028288 < 0.05
Simulation CPU 0 warning: IPC 0.031299 < 0.05
Simulation CPU 0 warning: IPC 0.033149 < 0.05
Simulation CPU 0 warning: IPC 0.029691 < 0.05
Simulation CPU 0 warning: IPC 0.031233 < 0.05
Simulation CPU 0 warning: IPC 0.032148 < 0.05
Simulation CPU 0 warning: IPC 0.029271 < 0.05
Simulation CPU 0 warning: IPC 0.031416 < 0.05
Simulation CPU 0 warning: IPC 0.032609 < 0.05
Simulation CPU 0 warning: IPC 0.032671 < 0.05
Simulation CPU 0 warning: IPC 0.031431 < 0.05
Simulation CPU 0 warning: IPC 0.034583 < 0.05
Simulation CPU 0 warning: IPC 0.030242 < 0.05
Simulation CPU 0 warning: IPC 0.034775 < 0.05
Simulation CPU 0 warning: IPC 0.034562 < 0.05
Simulation CPU 0 warning: IPC 0.030393 < 0.05
Simulation CPU 0 warning: IPC 0.02807 < 0.05
Simulation CPU 0 warning: IPC 0.034237 < 0.05
Simulation CPU 0 warning: IPC 0.030121 < 0.05
Simulation CPU 0 warning: IPC 0.032944 < 0.05
Simulation CPU 0 warning: IPC 0.033222 < 0.05
Simulation CPU 0 warning: IPC 0.034419 < 0.05
Simulation CPU 0 warning: IPC 0.033113 < 0.05
Simulation CPU 0 warning: IPC 0.031297 < 0.05
Simulation CPU 0 warning: IPC 0.03315 < 0.05
Simulation CPU 0 warning: IPC 0.034724 < 0.05
Simulation CPU 0 warning: IPC 0.036769 < 0.05
Simulation CPU 0 warning: IPC 0.037161 < 0.05
Simulation CPU 0 warning: IPC 0.035638 < 0.05
Simulation CPU 0 warning: IPC 0.035395 < 0.05
Simulation CPU 0 warning: IPC 0.032156 < 0.05
Simulation CPU 0 warning: IPC 0.032085 < 0.05
Simulation CPU 0 warning: IPC 0.033733 < 0.05
Simulation CPU 0 warning: IPC 0.033035 < 0.05
Simulation CPU 0 warning: IPC 0.03295 < 0.05
Simulation CPU 0 warning: IPC 0.035757 < 0.05
Simulation CPU 0 warning: IPC 0.034504 < 0.05
Simulation CPU 0 warning: IPC 0.029222 < 0.05
Simulation CPU 0 warning: IPC 0.033143 < 0.05
Simulation CPU 0 warning: IPC 0.031964 < 0.05
Simulation CPU 0 warning: IPC 0.033142 < 0.05
Simulation CPU 0 warning: IPC 0.030759 < 0.05
Simulation CPU 0 warning: IPC 0.032515 < 0.05
Simulation CPU 0 warning: IPC 0.031335 < 0.05
Simulation CPU 0 warning: IPC 0.032965 < 0.05
Simulation CPU 0 warning: IPC 0.032142 < 0.05
Simulation CPU 0 warning: IPC 0.031803 < 0.05
Simulation CPU 0 warning: IPC 0.033722 < 0.05
Simulation CPU 0 warning: IPC 0.032957 < 0.05
Simulation CPU 0 warning: IPC 0.032613 < 0.05
Simulation CPU 0 warning: IPC 0.03125 < 0.05
Simulation CPU 0 warning: IPC 0.030973 < 0.05
Simulation CPU 0 warning: IPC 0.02964 < 0.05
Simulation CPU 0 warning: IPC 0.029721 < 0.05
Simulation CPU 0 warning: IPC 0.033552 < 0.05
Simulation CPU 0 warning: IPC 0.031255 < 0.05
Simulation CPU 0 warning: IPC 0.030933 < 0.05
Simulation CPU 0 warning: IPC 0.032428 < 0.05
Simulation CPU 0 warning: IPC 0.029043 < 0.05
Simulation CPU 0 warning: IPC 0.031785 < 0.05
Simulation CPU 0 warning: IPC 0.031036 < 0.05
Simulation CPU 0 warning: IPC 0.025535 < 0.05
Simulation CPU 0 warning: IPC 0.03049 < 0.05
Simulation CPU 0 warning: IPC 0.031379 < 0.05
Simulation CPU 0 warning: IPC 0.029706 < 0.05
Simulation CPU 0 warning: IPC 0.02992 < 0.05
Simulation CPU 0 warning: IPC 0.030371 < 0.05
Simulation CPU 0 warning: IPC 0.036053 < 0.05
Simulation CPU 0 warning: IPC 0.034385 < 0.05
Simulation CPU 0 warning: IPC 0.028733 < 0.05
Simulation CPU 0 warning: IPC 0.030567 < 0.05
Simulation CPU 0 warning: IPC 0.032836 < 0.05
Simulation CPU 0 warning: IPC 0.026535 < 0.05
Simulation CPU 0 warning: IPC 0.029428 < 0.05
Simulation CPU 0 warning: IPC 0.034456 < 0.05
Simulation CPU 0 warning: IPC 0.034469 < 0.05
Simulation CPU 0 warning: IPC 0.034261 < 0.05
Simulation CPU 0 warning: IPC 0.035902 < 0.05
Simulation CPU 0 warning: IPC 0.032566 < 0.05
Simulation CPU 0 warning: IPC 0.034748 < 0.05
Simulation CPU 0 warning: IPC 0.035269 < 0.05
Simulation CPU 0 warning: IPC 0.033951 < 0.05
Simulation CPU 0 warning: IPC 0.033246 < 0.05
Simulation CPU 0 warning: IPC 0.032849 < 0.05
Simulation CPU 0 warning: IPC 0.032748 < 0.05
Simulation CPU 0 warning: IPC 0.028496 < 0.05
Simulation CPU 0 warning: IPC 0.028917 < 0.05
Simulation CPU 0 warning: IPC 0.032556 < 0.05
Simulation CPU 0 warning: IPC 0.031926 < 0.05
Simulation CPU 0 warning: IPC 0.032 < 0.05
Simulation CPU 0 warning: IPC 0.032399 < 0.05
Simulation CPU 0 warning: IPC 0.032861 < 0.05
Simulation CPU 0 warning: IPC 0.03246 < 0.05
Simulation CPU 0 warning: IPC 0.030641 < 0.05
Simulation CPU 0 warning: IPC 0.03329 < 0.05
Simulation CPU 0 warning: IPC 0.034986 < 0.05
Simulation CPU 0 warning: IPC 0.033328 < 0.05
Simulation CPU 0 warning: IPC 0.029416 < 0.05
Simulation CPU 0 warning: IPC 0.034036 < 0.05
Simulation CPU 0 warning: IPC 0.034039 < 0.05
Simulation CPU 0 warning: IPC 0.033621 < 0.05
Simulation CPU 0 warning: IPC 0.034088 < 0.05
Simulation CPU 0 warning: IPC 0.030229 < 0.05
Simulation CPU 0 warning: IPC 0.034241 < 0.05
Simulation CPU 0 warning: IPC 0.034289 < 0.05
Simulation CPU 0 warning: IPC 0.032221 < 0.05
Simulation CPU 0 warning: IPC 0.032556 < 0.05
Simulation CPU 0 warning: IPC 0.034551 < 0.05
Simulation CPU 0 warning: IPC 0.03515 < 0.05
Simulation CPU 0 warning: IPC 0.032664 < 0.05
Simulation CPU 0 warning: IPC 0.030334 < 0.05
Simulation CPU 0 warning: IPC 0.030116 < 0.05
Simulation CPU 0 warning: IPC 0.030079 < 0.05
Simulation CPU 0 warning: IPC 0.030885 < 0.05
Simulation CPU 0 warning: IPC 0.032746 < 0.05
Simulation CPU 0 warning: IPC 0.031543 < 0.05
Simulation CPU 0 warning: IPC 0.031742 < 0.05
Simulation CPU 0 warning: IPC 0.032344 < 0.05
Simulation CPU 0 warning: IPC 0.031225 < 0.05
Simulation CPU 0 warning: IPC 0.031337 < 0.05
Simulation CPU 0 warning: IPC 0.032437 < 0.05
Simulation CPU 0 warning: IPC 0.030701 < 0.05
Simulation CPU 0 warning: IPC 0.031307 < 0.05
Simulation CPU 0 warning: IPC 0.030482 < 0.05
Simulation CPU 0 warning: IPC 0.032624 < 0.05
Simulation CPU 0 warning: IPC 0.03169 < 0.05
Simulation CPU 0 warning: IPC 0.031531 < 0.05
Simulation CPU 0 warning: IPC 0.032097 < 0.05
Simulation CPU 0 warning: IPC 0.031227 < 0.05
Simulation CPU 0 warning: IPC 0.032413 < 0.05
Simulation CPU 0 warning: IPC 0.032931 < 0.05
Simulation CPU 0 warning: IPC 0.033598 < 0.05
Simulation CPU 0 warning: IPC 0.031357 < 0.05
Simulation CPU 0 warning: IPC 0.032534 < 0.05
Simulation CPU 0 warning: IPC 0.030283 < 0.05
Simulation CPU 0 warning: IPC 0.032597 < 0.05
Simulation CPU 0 warning: IPC 0.03095 < 0.05
Simulation CPU 0 warning: IPC 0.03153 < 0.05
Simulation CPU 0 warning: IPC 0.03352 < 0.05
Simulation CPU 0 warning: IPC 0.033342 < 0.05
Simulation CPU 0 warning: IPC 0.033978 < 0.05
Simulation CPU 0 warning: IPC 0.029196 < 0.05
Simulation finished CPU 0 instructions: 100000001 cycles: 3171789201 cumulative IPC: 0.03153 (Simulation time: 04 hr 30 min 51 sec)
Simulation complete CPU 0 instructions: 100000001 cycles: 3171789201 cumulative IPC: 0.03153 (Simulation time: 04 hr 30 min 51 sec)

ChampSim completed all CPUs

=== Simulation ===
CPU 0 runs /data2/zcq/champsim_traces_gap/pr.twitter-3197B.champsimtrace.xz

Region of Interest Statistics

CPU 0 cumulative IPC: 0.03153 instructions: 100000001 cycles: 3171789201
CPU 0 Branch Prediction Accuracy: 97.56% MPKI: 4.734 Average ROB Occupancy at Mispredict: 262.2
Branch type MPKI
BRANCH_DIRECT_JUMP: 0
BRANCH_INDIRECT: 0
BRANCH_CONDITIONAL: 4.734
BRANCH_DIRECT_CALL: 0
BRANCH_INDIRECT_CALL: 0
BRANCH_RETURN: 0

cpu0->cpu0_STLB TOTAL        ACCESS:   16895610 HIT:    2485702 MISS:   14409908 MSHR_MERGE:          0
cpu0->cpu0_STLB LOAD         ACCESS:   16895610 HIT:    2485702 MISS:   14409908 MSHR_MERGE:          0
cpu0->cpu0_STLB RFO          ACCESS:          0 HIT:          0 MISS:          0 MSHR_MERGE:          0
cpu0->cpu0_STLB PREFETCH     ACCESS:          0 HIT:          0 MISS:          0 MSHR_MERGE:          0
cpu0->cpu0_STLB WRITE        ACCESS:          0 HIT:          0 MISS:          0 MSHR_MERGE:          0
cpu0->cpu0_STLB TRANSLATION  ACCESS:          0 HIT:          0 MISS:          0 MSHR_MERGE:          0
cpu0->cpu0_STLB PREFETCH REQUESTED:          0 ISSUED:          0 USEFUL:          0 USELESS:          0 LATE:          0 TOO_EARLY:          0
cpu0->cpu0_STLB AVERAGE MISS LATENCY: 25.39 cycles
cpu0->cpu0_L2C TOTAL        ACCESS:   35981088 HIT:   13786790 MISS:   22194298 MSHR_MERGE:     182688
cpu0->cpu0_L2C LOAD         ACCESS:   17026998 HIT:    1670757 MISS:   15356241 MSHR_MERGE:       4455
cpu0->cpu0_L2C RFO          ACCESS:      14366 HIT:      12927 MISS:       1439 MSHR_MERGE:          0
cpu0->cpu0_L2C PREFETCH     ACCESS:    7448155 HIT:    5949963 MISS:    1498192 MSHR_MERGE:     178233
cpu0->cpu0_L2C WRITE        ACCESS:      57043 HIT:      57037 MISS:          6 MSHR_MERGE:          0
cpu0->cpu0_L2C TRANSLATION  ACCESS:   11434526 HIT:    6096106 MISS:    5338420 MSHR_MERGE:          0
cpu0->cpu0_L2C PREFETCH REQUESTED:    3045341 ISSUED:    3041178 USEFUL:     879797 USELESS:      35250 LATE:       2699 TOO_EARLY:      14280
cpu0->cpu0_L2C AVERAGE MISS LATENCY: 120.1 cycles
cpu0->cpu0_L1I TOTAL        ACCESS:   12677619 HIT:   12677619 MISS:          0 MSHR_MERGE:          0
cpu0->cpu0_L1I LOAD         ACCESS:   12677619 HIT:   12677619 MISS:          0 MSHR_MERGE:          0
cpu0->cpu0_L1I RFO          ACCESS:          0 HIT:          0 MISS:          0 MSHR_MERGE:          0
cpu0->cpu0_L1I PREFETCH     ACCESS:          0 HIT:          0 MISS:          0 MSHR_MERGE:          0
cpu0->cpu0_L1I WRITE        ACCESS:          0 HIT:          0 MISS:          0 MSHR_MERGE:          0
cpu0->cpu0_L1I TRANSLATION  ACCESS:          0 HIT:          0 MISS:          0 MSHR_MERGE:          0
cpu0->cpu0_L1I PREFETCH REQUESTED:          0 ISSUED:          0 USEFUL:          0 USELESS:          0 LATE:          0 TOO_EARLY:          0
cpu0->cpu0_L1I AVERAGE MISS LATENCY: - cycles
cpu0->cpu0_L1D TOTAL        ACCESS:   92393228 HIT:   59341658 MISS:   33051570 MSHR_MERGE:     161804
cpu0->cpu0_L1D LOAD         ACCESS:   37946924 HIT:   20803174 MISS:   17143750 MSHR_MERGE:     116752
cpu0->cpu0_L1D RFO          ACCESS:          0 HIT:          0 MISS:          0 MSHR_MERGE:          0
cpu0->cpu0_L1D PREFETCH     ACCESS:   22267141 HIT:   17851257 MISS:    4415884 MSHR_MERGE:       2006
cpu0->cpu0_L1D WRITE        ACCESS:     537486 HIT:     480078 MISS:      57408 MSHR_MERGE:      43042
cpu0->cpu0_L1D TRANSLATION  ACCESS:   31641677 HIT:   20207149 MISS:   11434528 MSHR_MERGE:          4
cpu0->cpu0_L1D PREFETCH REQUESTED:   24256654 ISSUED:   22963533 USEFUL:    1203139 USELESS:      41007 LATE:      11939 TOO_EARLY:       5239
cpu0->cpu0_L1D AVERAGE MISS LATENCY: 96.02 cycles
cpu0->cpu0_ITLB TOTAL        ACCESS:   12677618 HIT:   12677618 MISS:          0 MSHR_MERGE:          0
cpu0->cpu0_ITLB LOAD         ACCESS:   12677618 HIT:   12677618 MISS:          0 MSHR_MERGE:          0
cpu0->cpu0_ITLB RFO          ACCESS:          0 HIT:          0 MISS:          0 MSHR_MERGE:          0
cpu0->cpu0_ITLB PREFETCH     ACCESS:          0 HIT:          0 MISS:          0 MSHR_MERGE:          0
cpu0->cpu0_ITLB WRITE        ACCESS:          0 HIT:          0 MISS:          0 MSHR_MERGE:          0
cpu0->cpu0_ITLB TRANSLATION  ACCESS:          0 HIT:          0 MISS:          0 MSHR_MERGE:          0
cpu0->cpu0_ITLB PREFETCH REQUESTED:          0 ISSUED:          0 USEFUL:          0 USELESS:          0 LATE:          0 TOO_EARLY:          0
cpu0->cpu0_ITLB AVERAGE MISS LATENCY: - cycles
cpu0->cpu0_DTLB TOTAL        ACCESS:   58429648 HIT:   41465725 MISS:   16963923 MSHR_MERGE:      68313
cpu0->cpu0_DTLB LOAD         ACCESS:   58429648 HIT:   41465725 MISS:   16963923 MSHR_MERGE:      68313
cpu0->cpu0_DTLB RFO          ACCESS:          0 HIT:          0 MISS:          0 MSHR_MERGE:          0
cpu0->cpu0_DTLB PREFETCH     ACCESS:          0 HIT:          0 MISS:          0 MSHR_MERGE:          0
cpu0->cpu0_DTLB WRITE        ACCESS:          0 HIT:          0 MISS:          0 MSHR_MERGE:          0
cpu0->cpu0_DTLB TRANSLATION  ACCESS:          0 HIT:          0 MISS:          0 MSHR_MERGE:          0
cpu0->cpu0_DTLB PREFETCH REQUESTED:          0 ISSUED:          0 USEFUL:          0 USELESS:          0 LATE:          0 TOO_EARLY:          0
cpu0->cpu0_DTLB AVERAGE MISS LATENCY: 27.5 cycles
cpu0->LLC TOTAL        ACCESS:   22044085 HIT:    8648163 MISS:   13395922 MSHR_MERGE:        462
cpu0->LLC LOAD         ACCESS:   15351786 HIT:    3402303 MISS:   11949483 MSHR_MERGE:          6
cpu0->LLC RFO          ACCESS:       1439 HIT:       1435 MISS:          4 MSHR_MERGE:          0
cpu0->LLC PREFETCH     ACCESS:    1319959 HIT:       4314 MISS:    1315645 MSHR_MERGE:        456
cpu0->LLC WRITE        ACCESS:      32481 HIT:       9496 MISS:      22985 MSHR_MERGE:          0
cpu0->LLC TRANSLATION  ACCESS:    5338420 HIT:    5230615 MISS:     107805 MSHR_MERGE:          0
cpu0->LLC PREFETCH REQUESTED:          0 ISSUED:          0 USEFUL:          0 USELESS:          0 LATE:          0 TOO_EARLY:          0
cpu0->LLC AVERAGE MISS LATENCY: 179.1 cycles

DRAM Statistics

Channel 0 RQ ROW_BUFFER_HIT:      36708
  ROW_BUFFER_MISS:   13335766
  AVG DBUS CONGESTED CYCLE: 13.96
Channel 0 WQ ROW_BUFFER_HIT:       5703
  ROW_BUFFER_MISS:      23675
  FULL:          0
Channel 0 REFRESHES ISSUED:     264315

[ROI Statistics]
[System Configuration]
num_cpus 1
cpu_freq 4000
fetch_width 6
decode_width 6
dispatch_width 6
execute_width 6
lq_width 2
sq_width 2
retire_width 6
scheduler_size 128
branch_mispredict_penalty 15
rob_size 352
lq_size 128
sq_size 72
ifetch_buffer_size 64
decode_buffer_size 32
dispatch_buffer_size 32
register_file_size 288
decode_latency 1
dispatch_latency 1
schedule_latency 1
execute_latency 1
page_size 4096
block_size 64
core_0_itlb_set 16
core_0_itlb_way 4
core_0_itlb_rq_size 16
core_0_itlb_wq_size 16
core_0_itlb_pq_size 0
core_0_itlb_mshr_size 8
core_0_itlb_hit_latency 1
core_0_itlb_fill_latency 1
core_0_itlb_max_tag_check 2
core_0_itlb_max_fill 2
core_0_dtlb_set 16
core_0_dtlb_way 4
core_0_dtlb_rq_size 16
core_0_dtlb_wq_size 16
core_0_dtlb_pq_size 0
core_0_dtlb_mshr_size 8
core_0_dtlb_hit_latency 1
core_0_dtlb_fill_latency 1
core_0_dtlb_max_tag_check 2
core_0_dtlb_max_fill 2
core_0_stlb_set 128
core_0_stlb_way 12
core_0_stlb_rq_size 32
core_0_stlb_wq_size 32
core_0_stlb_pq_size 0
core_0_stlb_mshr_size 16
core_0_stlb_hit_latency 4
core_0_stlb_fill_latency 4
core_0_stlb_max_tag_check 1
core_0_stlb_max_fill 1
core_0_l1i_set 64
core_0_l1i_way 8
core_0_l1i_rq_size 64
core_0_l1i_wq_size 64
core_0_l1i_pq_size 32
core_0_l1i_mshr_size 8
core_0_l1i_hit_latency 2
core_0_l1i_fill_latency 2
core_0_l1i_max_tag_check 2
core_0_l1i_max_fill 2
core_0_l1d_set 64
core_0_l1d_way 12
core_0_l1d_rq_size 64
core_0_l1d_wq_size 64
core_0_l1d_pq_size 8
core_0_l1d_mshr_size 16
core_0_l1d_hit_latency 2
core_0_l1d_fill_latency 3
core_0_l1d_max_tag_check 2
core_0_l1d_max_fill 2
core_0_l2c_set 1024
core_0_l2c_way 8
core_0_l2c_rq_size 32
core_0_l2c_wq_size 32
core_0_l2c_pq_size 16
core_0_l2c_mshr_size 32
core_0_l2c_hit_latency 5
core_0_l2c_fill_latency 5
core_0_l2c_max_tag_check 1
core_0_l2c_max_fill 1
llc_set 2048
llc_way 16
llc_rq_size 32
llc_wq_size 32
llc_pq_size 32
llc_mshr_size 64
llc_hit_latency 10
llc_fill_latency 10
llc_max_tag_check 1
llc_max_fill 1
dram_channels 1
dram_ranks 1
dram_bankgroups 8
dram_banks 4
dram_rows 65536
dram_columns 1024
dram_channel_width 8
dram_rq_size 64
dram_wq_size 64
dram_size 17179869184
core_0_itlb_prefetcher no
core_0_dtlb_prefetcher no
core_0_stlb_prefetcher no
core_0_l1i_prefetcher next_line
core_0_l1d_prefetcher vberti
core_0_l2c_prefetcher ip_stride
llc_prefetcher no
llc_replacement drrip

Core_0_instructions 100000001
Core_0_cycles 3171789201
Core_0_IPC 0.0315279
Core_0_branch_prediction_accuracy 97.5573
Core_0_branch_MPKI 4.73448
Core_0_average_ROB_occupancy_at_mispredict 262.196

Core_0_ITLB_total_access 12677618
Core_0_ITLB_total_hit 12677618
Core_0_ITLB_total_miss 0
Core_0_ITLB_total_MPKI 0
Core_0_ITLB_total_miss_rate 0
Core_0_ITLB_demand_access 12677618
Core_0_ITLB_demand_hit 12677618
Core_0_ITLB_demand_miss 0
Core_0_ITLB_demand_MPKI 0
Core_0_ITLB_demand_miss_rate 0
Core_0_ITLB_load_access 12677618
Core_0_ITLB_load_hit 12677618
Core_0_ITLB_load_miss 0
Core_0_ITLB_load_MPKI 0
Core_0_ITLB_load_miss_rate 0
Core_0_ITLB_rfo_access 0
Core_0_ITLB_rfo_hit 0
Core_0_ITLB_rfo_miss 0
Core_0_ITLB_rfo_MPKI 0
Core_0_ITLB_rfo_miss_rate 0
Core_0_ITLB_prefetch_access 0
Core_0_ITLB_prefetch_hit 0
Core_0_ITLB_prefetch_miss 0
Core_0_ITLB_prefetch_MPKI 0
Core_0_ITLB_prefetch_miss_rate 0
Core_0_ITLB_writeback_access 0
Core_0_ITLB_writeback_hit 0
Core_0_ITLB_writeback_miss 0
Core_0_ITLB_writeback_MPKI 0
Core_0_ITLB_writeback_miss_rate 0
Core_0_ITLB_prefetch_requested 0
Core_0_ITLB_prefetch_issued 0
Core_0_ITLB_prefetch_useful 0
Core_0_ITLB_prefetch_useless 0
Core_0_ITLB_prefetch_late 0
Core_0_ITLB_prefetch_fill 0
Core_0_ITLB_prefetch_too_early 0
Core_0_ITLB_prefetch_too_early_among_fill 0
Core_0_ITLB_prefetch_too_early_among_useless 0
Core_0_ITLB_prefetch_pollution_evict 0
Core_0_ITLB_prefetch_pollution_demand 0
Core_0_ITLB_prefetch_pollution_among_prefetch_fill 0
Core_0_ITLB_prefetch_accuracy 0
Core_0_ITLB_prefetch_coverage 0

Core_0_DTLB_total_access 58429648
Core_0_DTLB_total_hit 41465725
Core_0_DTLB_total_miss 16963923
Core_0_DTLB_total_MPKI 169.639
Core_0_DTLB_total_miss_rate 0.290331
Core_0_DTLB_demand_access 58429648
Core_0_DTLB_demand_hit 41465725
Core_0_DTLB_demand_miss 16963923
Core_0_DTLB_demand_MPKI 169.639
Core_0_DTLB_demand_miss_rate 0.290331
Core_0_DTLB_load_access 58429648
Core_0_DTLB_load_hit 41465725
Core_0_DTLB_load_miss 16963923
Core_0_DTLB_load_MPKI 169.639
Core_0_DTLB_load_miss_rate 0.290331
Core_0_DTLB_rfo_access 0
Core_0_DTLB_rfo_hit 0
Core_0_DTLB_rfo_miss 0
Core_0_DTLB_rfo_MPKI 0
Core_0_DTLB_rfo_miss_rate 0
Core_0_DTLB_prefetch_access 0
Core_0_DTLB_prefetch_hit 0
Core_0_DTLB_prefetch_miss 0
Core_0_DTLB_prefetch_MPKI 0
Core_0_DTLB_prefetch_miss_rate 0
Core_0_DTLB_writeback_access 0
Core_0_DTLB_writeback_hit 0
Core_0_DTLB_writeback_miss 0
Core_0_DTLB_writeback_MPKI 0
Core_0_DTLB_writeback_miss_rate 0
Core_0_DTLB_prefetch_requested 0
Core_0_DTLB_prefetch_issued 0
Core_0_DTLB_prefetch_useful 0
Core_0_DTLB_prefetch_useless 0
Core_0_DTLB_prefetch_late 0
Core_0_DTLB_prefetch_fill 0
Core_0_DTLB_prefetch_too_early 0
Core_0_DTLB_prefetch_too_early_among_fill 0
Core_0_DTLB_prefetch_too_early_among_useless 0
Core_0_DTLB_prefetch_pollution_evict 0
Core_0_DTLB_prefetch_pollution_demand 0
Core_0_DTLB_prefetch_pollution_among_prefetch_fill 0
Core_0_DTLB_prefetch_accuracy 0
Core_0_DTLB_prefetch_coverage 0

Core_0_STLB_total_access 16895610
Core_0_STLB_total_hit 2485702
Core_0_STLB_total_miss 14409908
Core_0_STLB_total_MPKI 144.099
Core_0_STLB_total_miss_rate 0.852879
Core_0_STLB_demand_access 16895610
Core_0_STLB_demand_hit 2485702
Core_0_STLB_demand_miss 14409908
Core_0_STLB_demand_MPKI 144.099
Core_0_STLB_demand_miss_rate 0.852879
Core_0_STLB_load_access 16895610
Core_0_STLB_load_hit 2485702
Core_0_STLB_load_miss 14409908
Core_0_STLB_load_MPKI 144.099
Core_0_STLB_load_miss_rate 0.852879
Core_0_STLB_rfo_access 0
Core_0_STLB_rfo_hit 0
Core_0_STLB_rfo_miss 0
Core_0_STLB_rfo_MPKI 0
Core_0_STLB_rfo_miss_rate 0
Core_0_STLB_prefetch_access 0
Core_0_STLB_prefetch_hit 0
Core_0_STLB_prefetch_miss 0
Core_0_STLB_prefetch_MPKI 0
Core_0_STLB_prefetch_miss_rate 0
Core_0_STLB_writeback_access 0
Core_0_STLB_writeback_hit 0
Core_0_STLB_writeback_miss 0
Core_0_STLB_writeback_MPKI 0
Core_0_STLB_writeback_miss_rate 0
Core_0_STLB_prefetch_requested 0
Core_0_STLB_prefetch_issued 0
Core_0_STLB_prefetch_useful 0
Core_0_STLB_prefetch_useless 0
Core_0_STLB_prefetch_late 0
Core_0_STLB_prefetch_fill 0
Core_0_STLB_prefetch_too_early 0
Core_0_STLB_prefetch_too_early_among_fill 0
Core_0_STLB_prefetch_too_early_among_useless 0
Core_0_STLB_prefetch_pollution_evict 0
Core_0_STLB_prefetch_pollution_demand 0
Core_0_STLB_prefetch_pollution_among_prefetch_fill 0
Core_0_STLB_prefetch_accuracy 0
Core_0_STLB_prefetch_coverage 0

Core_0_L1I_total_access 12677619
Core_0_L1I_total_hit 12677619
Core_0_L1I_total_miss 0
Core_0_L1I_total_MPKI 0
Core_0_L1I_total_miss_rate 0
Core_0_L1I_demand_access 12677619
Core_0_L1I_demand_hit 12677619
Core_0_L1I_demand_miss 0
Core_0_L1I_demand_MPKI 0
Core_0_L1I_demand_miss_rate 0
Core_0_L1I_load_access 12677619
Core_0_L1I_load_hit 12677619
Core_0_L1I_load_miss 0
Core_0_L1I_load_MPKI 0
Core_0_L1I_load_miss_rate 0
Core_0_L1I_rfo_access 0
Core_0_L1I_rfo_hit 0
Core_0_L1I_rfo_miss 0
Core_0_L1I_rfo_MPKI 0
Core_0_L1I_rfo_miss_rate 0
Core_0_L1I_prefetch_access 0
Core_0_L1I_prefetch_hit 0
Core_0_L1I_prefetch_miss 0
Core_0_L1I_prefetch_MPKI 0
Core_0_L1I_prefetch_miss_rate 0
Core_0_L1I_writeback_access 0
Core_0_L1I_writeback_hit 0
Core_0_L1I_writeback_miss 0
Core_0_L1I_writeback_MPKI 0
Core_0_L1I_writeback_miss_rate 0
Core_0_L1I_prefetch_requested 0
Core_0_L1I_prefetch_issued 0
Core_0_L1I_prefetch_useful 0
Core_0_L1I_prefetch_useless 0
Core_0_L1I_prefetch_late 0
Core_0_L1I_prefetch_fill 0
Core_0_L1I_prefetch_too_early 0
Core_0_L1I_prefetch_too_early_among_fill 0
Core_0_L1I_prefetch_too_early_among_useless 0
Core_0_L1I_prefetch_pollution_evict 0
Core_0_L1I_prefetch_pollution_demand 0
Core_0_L1I_prefetch_pollution_among_prefetch_fill 0
Core_0_L1I_prefetch_accuracy 0
Core_0_L1I_prefetch_coverage 0

Core_0_L1D_total_access 60751551
Core_0_L1D_total_hit 39134509
Core_0_L1D_total_miss 21617042
Core_0_L1D_total_MPKI 216.17
Core_0_L1D_total_miss_rate 0.355827
Core_0_L1D_demand_access 37946924
Core_0_L1D_demand_hit 20803174
Core_0_L1D_demand_miss 17143750
Core_0_L1D_demand_MPKI 171.437
Core_0_L1D_demand_miss_rate 0.451782
Core_0_L1D_load_access 37946924
Core_0_L1D_load_hit 20803174
Core_0_L1D_load_miss 17143750
Core_0_L1D_load_MPKI 171.437
Core_0_L1D_load_miss_rate 0.451782
Core_0_L1D_rfo_access 0
Core_0_L1D_rfo_hit 0
Core_0_L1D_rfo_miss 0
Core_0_L1D_rfo_MPKI 0
Core_0_L1D_rfo_miss_rate 0
Core_0_L1D_prefetch_access 22267141
Core_0_L1D_prefetch_hit 17851257
Core_0_L1D_prefetch_miss 4415884
Core_0_L1D_prefetch_MPKI 44.1588
Core_0_L1D_prefetch_miss_rate 0.198314
Core_0_L1D_writeback_access 537486
Core_0_L1D_writeback_hit 480078
Core_0_L1D_writeback_miss 57408
Core_0_L1D_writeback_MPKI 0.57408
Core_0_L1D_writeback_miss_rate 0.106808
Core_0_L1D_prefetch_requested 24256654
Core_0_L1D_prefetch_issued 22963533
Core_0_L1D_prefetch_useful 1203139
Core_0_L1D_prefetch_useless 41007
Core_0_L1D_prefetch_late 11939
Core_0_L1D_prefetch_fill 1232201
Core_0_L1D_prefetch_too_early 5239
Core_0_L1D_prefetch_too_early_among_fill 0.00425174
Core_0_L1D_prefetch_too_early_among_useless 0.127759
Core_0_L1D_prefetch_pollution_evict 96844
Core_0_L1D_prefetch_pollution_demand 96693
Core_0_L1D_cross_page_pf_translation_only_requested 874481
Core_0_L1D_cross_page_pf_translation_only_issued 696397
Core_0_L1D_cross_page_pf_translation_only_dropped 696397
Core_0_L1D_prefetch_pollution_among_prefetch_fill 0.0785943
Core_0_L1D_prefetch_accuracy 0.0523935
Core_0_L1D_prefetch_coverage 0.0655773

Core_0_L2C_total_access 24546562
Core_0_L2C_total_hit 7690684
Core_0_L2C_total_miss 16855878
Core_0_L2C_total_MPKI 168.559
Core_0_L2C_total_miss_rate 0.68669
Core_0_L2C_demand_access 17041364
Core_0_L2C_demand_hit 1683684
Core_0_L2C_demand_miss 15357680
Core_0_L2C_demand_MPKI 153.577
Core_0_L2C_demand_miss_rate 0.9012
Core_0_L2C_load_access 17026998
Core_0_L2C_load_hit 1670757
Core_0_L2C_load_miss 15356241
Core_0_L2C_load_MPKI 153.562
Core_0_L2C_load_miss_rate 0.901876
Core_0_L2C_rfo_access 14366
Core_0_L2C_rfo_hit 12927
Core_0_L2C_rfo_miss 1439
Core_0_L2C_rfo_MPKI 0.01439
Core_0_L2C_rfo_miss_rate 0.100167
Core_0_L2C_prefetch_access 7448155
Core_0_L2C_prefetch_hit 5949963
Core_0_L2C_prefetch_miss 1498192
Core_0_L2C_prefetch_MPKI 14.9819
Core_0_L2C_prefetch_miss_rate 0.201149
Core_0_L2C_writeback_access 57043
Core_0_L2C_writeback_hit 57037
Core_0_L2C_writeback_miss 6
Core_0_L2C_writeback_MPKI 6e-05
Core_0_L2C_writeback_miss_rate 0.000105184
Core_0_L2C_prefetch_requested 3045341
Core_0_L2C_prefetch_issued 3041178
Core_0_L2C_prefetch_useful 879797
Core_0_L2C_prefetch_useless 35250
Core_0_L2C_prefetch_late 2699
Core_0_L2C_prefetch_fill 1314253
Core_0_L2C_prefetch_too_early 14280
Core_0_L2C_prefetch_too_early_among_fill 0.0108655
Core_0_L2C_prefetch_too_early_among_useless 0.405106
Core_0_L2C_prefetch_pollution_evict 273648
Core_0_L2C_prefetch_pollution_demand 273544
Core_0_L2C_prefetch_pollution_among_prefetch_fill 0.208216
Core_0_L2C_prefetch_accuracy 0.289295
Core_0_L2C_prefetch_coverage 0.0541831

Core_0_LLC_total_access 16705665
Core_0_LLC_total_hit 3417548
Core_0_LLC_total_miss 13288117
Core_0_LLC_total_MPKI 132.881
Core_0_LLC_total_miss_rate 0.795426
Core_0_LLC_demand_access 15353225
Core_0_LLC_demand_hit 3403738
Core_0_LLC_demand_miss 11949487
Core_0_LLC_demand_MPKI 119.495
Core_0_LLC_demand_miss_rate 0.778305
Core_0_LLC_load_access 15351786
Core_0_LLC_load_hit 3402303
Core_0_LLC_load_miss 11949483
Core_0_LLC_load_MPKI 119.495
Core_0_LLC_load_miss_rate 0.778377
Core_0_LLC_rfo_access 1439
Core_0_LLC_rfo_hit 1435
Core_0_LLC_rfo_miss 4
Core_0_LLC_rfo_MPKI 4e-05
Core_0_LLC_rfo_miss_rate 0.00277971
Core_0_LLC_prefetch_access 1319959
Core_0_LLC_prefetch_hit 4314
Core_0_LLC_prefetch_miss 1315645
Core_0_LLC_prefetch_MPKI 13.1564
Core_0_LLC_prefetch_miss_rate 0.996732
Core_0_LLC_writeback_access 32481
Core_0_LLC_writeback_hit 9496
Core_0_LLC_writeback_miss 22985
Core_0_LLC_writeback_MPKI 0.22985
Core_0_LLC_writeback_miss_rate 0.707644
Core_0_LLC_prefetch_requested 0
Core_0_LLC_prefetch_issued 0
Core_0_LLC_prefetch_useful 0
Core_0_LLC_prefetch_useless 0
Core_0_LLC_prefetch_late 0
Core_0_LLC_prefetch_fill 1315182
Core_0_LLC_prefetch_too_early 0
Core_0_LLC_prefetch_too_early_among_fill 0
Core_0_LLC_prefetch_too_early_among_useless 0
Core_0_LLC_prefetch_pollution_evict 467132
Core_0_LLC_prefetch_pollution_demand 467132
Core_0_LLC_prefetch_pollution_among_prefetch_fill 0.355184
Core_0_LLC_prefetch_accuracy 0
Core_0_LLC_prefetch_coverage 0

[DRAM Statistics]
Channel_0_RQ_row_buffer_hit 36708
Channel_0_RQ_row_buffer_miss 13335766
Channel_0_WQ_row_buffer_hit 5703
Channel_0_WQ_row_buffer_miss 23675
Channel_0_WQ_full 0
Channel_0_dbus_congested 3095732
DRAM_total_RQ_row_buffer_hit 36708
DRAM_total_RQ_row_buffer_miss 13335766
DRAM_total_WQ_row_buffer_hit 5703
DRAM_total_WQ_row_buffer_miss 23675
DRAM_total_WQ_full 0
DRAM_total_dbus_congested 3095732
DRAM_avg_congested_cycle 13.9626

====== DRAM_RQ_TRAFFIC ========
DRAM_RQ_READ_TRAFFIC_BREAKDOWN:
data_demand_read.count = 11949482
data_demand_read.share = 89.36%

inst_demand_read.count = 0
inst_demand_read.share = 0.00%

cache_inst_prefetch.count = 0
cache_inst_prefetch.share = 0.00%

cache_data_prefetch.count = 1315189
cache_data_prefetch.share = 9.84%

stlb_data_demand.count = 105092
stlb_data_demand.share = 0.79%

stlb_inst_demand.count = 0
stlb_inst_demand.share = 0.00%

stlb_l1i_pref.count = 0
stlb_l1i_pref.share = 0.00%

stlb_l1d_pref.count = 2713
stlb_l1d_pref.share = 0.02%

DRAM_RQ_READ_TRAFFIC_SUMMARY:
cache_demand.count = 11949482
cache_demand.share = 89.36%

cache_prefetch.count = 1315189
cache_prefetch.share = 9.84%

stlb_demand.count = 105092
stlb_demand.share = 0.79%

stlb_prefetch.count = 2713
stlb_prefetch.share = 0.02%

DRAM_RQ_READ_TRAFFIC_DEBUG:
total_classified_read.count = 13372476
unclassified_read.count = 0
total_read_with_other.count = 13372476

classified_plus_unclassified_check.count = 13372476
dram_rq_read_total_observed.count = 13372476
dram_rq_read_total_observed.per_1K_instructions = 133.725

STLB_MISS_PTW_DRAM_TOUCH_BREAKDOWN:
stlb_miss_total.count = 14409908

stlb_miss_touch_dram.count = 107797
stlb_miss_touch_dram.share = 0.75%

stlb_miss_no_dram_touch.count = 14302111
stlb_miss_no_dram_touch.share = 99.25%

STLB_MISS_PTW_DRAM_TOUCH_DEBUG:
stlb_miss_touch_plus_no_touch.count = 14409908
stlb_miss_total_check.count = 14409908

======STLB miss causes ========
Core_0_STLB_miss_cause_breakdown
Core_0_STLB_cause_Demand_Data_miss 14386212
Core_0_STLB_cause_Demand_Data_miss_rate 0.851476
Core_0_STLB_cause_Demand_Instruction_miss 0
Core_0_STLB_cause_Demand_Instruction_miss_rate 0
Core_0_STLB_cause_L1D_Prefetch_miss 23696
Core_0_STLB_cause_L1D_Prefetch_miss_rate 0.00140249
Core_0_STLB_cause_L1D_Prefetch_Same_Page_miss 0
Core_0_STLB_cause_L1D_Prefetch_Same_Page_miss_rate 0
Core_0_STLB_cause_L1D_Prefetch_Cross_Page_miss 23696
Core_0_STLB_cause_L1D_Prefetch_Cross_Page_miss_rate 0.00140249
Core_0_STLB_cause_L1I_Prefetch_miss 0
Core_0_STLB_cause_L1I_Prefetch_miss_rate 0
Core_0_STLB_cause_Other_miss 0
Core_0_STLB_cause_Other_miss_rate 0
Core_0_STLB_Demand_miss 14386212
Core_0_STLB_Demand_miss_rate 0.851476
Core_0_STLB_L1D_Prefetch_miss 23696
Core_0_STLB_L1D_Prefetch_miss_rate 0.00140249
Core_0_STLB_Other_miss 0
Core_0_STLB_Other_miss_rate 0

========== vBerti-TLB Cross-page Flow Stats ==========

Core_0_vBerti_Requested 24256654
Core_0_vBerti_Cross_page_prefetch_in_Requested 874481
Core_0_vBerti_Same_page_prefetch_in_Requested 23382173
Core_0_vBerti_Cross_page_prefetch_of_Requested 0.0360512
Core_0_vBerti_Issued 22963533
Core_0_vBerti_InPQ_Same_page_prefetch 22267136
Core_0_vBerti_InPQ_Cross_page_prefetch 696397
Core_0_vBerti_PQ_Drop_Rate 0.0533099
Core_0_vBerti_InPQ_Cross_page_prefetch_of_Requested 0.0287095
Core_0_vBerti_Cross_page_PQ_Drop_rate 0.203645
Core_0_vBerti_Cross_page_prefetch_of_Issued 0.0303262
Core_0_CP_PF_PQFULL_drop 178084
Core_0_CP_PF_PQFULL_TLB_rescue_enqueued 0
Core_0_CP_PF_PQFULL_TLB_rescue_issued 0
Core_0_CP_PF_PQFULL_TLB_rescue_translated 0

========= DTLB_vBerti Prefetch Stats =========
Core_0_DTLB_demand_access 38378697
Core_0_DTLB_demand_hit 21487759
Core_0_DTLB_demand_miss 16890938
Core_0_DTLB_demand_mshr_merge 26746
Core_0_DTLB_demand_fill 16864466
Core_0_DTLB_demand_miss_rate 0.440112
Core_0_DTLB_demand_mpki 168.909
Core_0_DTLB_vberti_prefetch_access 20050951
Core_0_DTLB_vberti_prefetch_hit 19977966
Core_0_DTLB_vberti_prefetch_miss 72985
Core_0_DTLB_vberti_prefetch_mshr_merge 41567
Core_0_DTLB_vberti_prefetch_fill 31152
Core_0_DTLB_vberti_prefetch_miss_rate 0.00363998
Core_0_DTLB_vberti_prefetch_mpki 0.72985

=== DTLB_vBerti Same/Cross-page Prefetch Stats ===
Core_0_DTLB_vberti_same_page_prefetch 19495752
Core_0_DTLB_vberti_same_page_prefetch_hit 19495752
Core_0_DTLB_vberti_same_page_prefetch_miss 0
Core_0_DTLB_vberti_same_page_prefetch_mshr_merge 0
Core_0_DTLB_vberti_same_page_prefetch_fill 0
Core_0_DTLB_vberti_same_page_prefetch_miss_rate 0
Core_0_DTLB_vberti_same_page_prefetch_mpki 0
Core_0_DTLB_vberti_cross_page_prefetch 555199
Core_0_DTLB_vberti_cross_page_prefetch_hit 482214
Core_0_DTLB_vberti_cross_page_prefetch_miss 72985
Core_0_DTLB_vberti_cross_page_prefetch_mshr_merge 41567
Core_0_DTLB_vberti_cross_page_prefetch_fill 31152
Core_0_DTLB_vberti_cross_page_prefetch_miss_rate 0.131457
Core_0_DTLB_vberti_cross_page_prefetch_mpki 0.72985
Core_0_DTLB_same_page_prefetch_miss_rate 0
Core_0_DTLB_same_page_prefetch_mpki 0
Core_0_DTLB_cross_page_prefetch_miss_rate 0.131457
Core_0_DTLB_cross_page_prefetch_mpki 0.72985
Core_0_DTLB_cross_page_prefetch_issued 555199
Core_0_DTLB_cross_page_prefetch_lookups 555199
Core_0_DTLB_cross_page_prefetch_useful 21082
Core_0_DTLB_cross_page_prefetch_useless 10336
Core_0_DTLB_cross_page_prefetch_late 266
Core_0_DTLB_cross_page_prefetch_too_early 1377
Core_0_DTLB_cross_page_prefetch_too_early_among_fill 0.0442026
Core_0_DTLB_cross_page_prefetch_too_early_among_useless 0.133224
Core_0_DTLB_cross_page_prefetch_pollution_evict 20307
Core_0_DTLB_cross_page_prefetch_pollution_demand 20260
Core_0_DTLB_cross_page_prefetch_pollution_among_prefetch_fill 0.651868
Core_0_DTLB_cross_page_prefetch_accuracy 0.037972
Core_0_DTLB_cross_page_prefetch_coverage 0.00124657

========= STLB_vBerti Prefetch Stats =========
Core_0_STLB_demand_access 16864192
Core_0_STLB_demand_hit 2477980
Core_0_STLB_demand_miss 14386212
Core_0_STLB_demand_mshr_merge 0
Core_0_STLB_demand_fill 14386220
Core_0_STLB_demand_miss_rate 0.853063
Core_0_STLB_demand_mpki 143.862
Core_0_STLB_vberti_prefetch_access 31418
Core_0_STLB_vberti_prefetch_hit 7722
Core_0_STLB_vberti_prefetch_miss 23696
Core_0_STLB_vberti_prefetch_mshr_merge 0
Core_0_STLB_vberti_prefetch_fill 23696
Core_0_STLB_vberti_prefetch_miss_rate 0.754217
Core_0_STLB_vberti_prefetch_mpki 0.23696

=== STLB_vBerti Same/Cross-page Prefetch Stats ===
Core_0_STLB_vberti_same_page_prefetch 0
Core_0_STLB_vberti_same_page_prefetch_hit 0
Core_0_STLB_vberti_same_page_prefetch_miss 0
Core_0_STLB_vberti_same_page_prefetch_mshr_merge 0
Core_0_STLB_vberti_same_page_prefetch_fill 0
Core_0_STLB_vberti_same_page_prefetch_miss_rate 0
Core_0_STLB_vberti_same_page_prefetch_mpki 0
Core_0_STLB_vberti_cross_page_prefetch 31418
Core_0_STLB_vberti_cross_page_prefetch_hit 7722
Core_0_STLB_vberti_cross_page_prefetch_miss 23696
Core_0_STLB_vberti_cross_page_prefetch_mshr_merge 0
Core_0_STLB_vberti_cross_page_prefetch_fill 23696
Core_0_STLB_vberti_cross_page_prefetch_miss_rate 0.754217
Core_0_STLB_vberti_cross_page_prefetch_mpki 0.23696
Core_0_STLB_same_page_prefetch_miss_rate 0
Core_0_STLB_same_page_prefetch_mpki 0
Core_0_STLB_cross_page_prefetch_miss_rate 0.754217
Core_0_STLB_cross_page_prefetch_mpki 0.23696
Core_0_STLB_cross_page_prefetch_issued 31418
Core_0_STLB_cross_page_prefetch_lookups 31418
Core_0_STLB_cross_page_prefetch_useful 3776
Core_0_STLB_cross_page_prefetch_useless 19920
Core_0_STLB_cross_page_prefetch_late 0
Core_0_STLB_cross_page_prefetch_too_early 3830
Core_0_STLB_cross_page_prefetch_too_early_among_fill 0.161631
Core_0_STLB_cross_page_prefetch_too_early_among_useless 0.192269
Core_0_STLB_cross_page_prefetch_pollution_evict 23477
Core_0_STLB_cross_page_prefetch_pollution_demand 23451
Core_0_STLB_cross_page_prefetch_pollution_among_prefetch_fill 0.990758
Core_0_STLB_cross_page_prefetch_accuracy 0.120186
Core_0_STLB_cross_page_prefetch_coverage 0.000262405

========= STLB Cross-page Prefetch Buffer Stats =========
Core_0_STLB_raw_demand_miss 14386212
Core_0_CP_PB_insert 0
Core_0_CP_PB_demand_hit 0
Core_0_STLB_PB_demand_miss 14386212
Core_0_CP_PB_coverage 0
Core_0_STLB_raw_demand_mpki 143.862
Core_0_STLB_PB_demand_mpki 143.862
Core_0_CP_PB_demand_hit_mpki 0

Core_0_TLB_demand_miss_rate 0.374849
Core_0_TLB_demand_mpki 143.862
Core_0_TLB_same_page_prefetch_miss_rate 0
Core_0_TLB_same_page_prefetch_mpki 0
Core_0_TLB_cross_page_prefetch_miss_rate 0.0426802
Core_0_TLB_cross_page_prefetch_mpki 0.23696
Core_0_TLB_cross_page_prefetch_issued 555199
Core_0_TLB_cross_page_prefetch_lookups 555199
Core_0_TLB_cross_page_prefetch_useful 20956
Core_0_TLB_cross_page_prefetch_useless 10319
Core_0_TLB_cross_page_prefetch_late 248
Core_0_TLB_cross_page_prefetch_too_early 1368
Core_0_TLB_cross_page_prefetch_too_early_among_fill 0.0249417
Core_0_TLB_cross_page_prefetch_too_early_among_useless 0.132571
Core_0_TLB_cross_page_prefetch_accuracy 0.037745
Core_0_TLB_cross_page_prefetch_coverage 0.00145455
====== vBerti internal metric ========
Core_0_vBerti_end_to_end_issued 22267136
Core_0_vBerti_end_to_end_useful 261775
Core_0_vBerti_end_to_end_late 12479
Core_0_vBerti_end_to_end_accuracy 0.0117561
Core_0_vBerti_end_to_end_timely_accuracy 0.0111957
BERTI TO_L1: 18585721 TO_L2: 4796452 TO_L2_BC_MSHR: 2151
BERTI AVG_LAT: 129.007 NUM_TRACK_LATENCY: 18245313 NUM_CANT_TRACK_LATENCY: 0
BERTI CROSS_PAGE 874481 NO_CROSS_PAGE: 23382173
BERTI FOUND_BERTI: 37504755 NO_FOUND_BERTI: 980476
BERTI AVERAGE_ISSUED: 1.25399
