[VMEM] WARNING: physical memory size is smaller than virtual memory size.

*** ChampSim Multicore Out-of-Order Simulator ***
Warmup Instructions: 50000000
Simulation Instructions: 100000000
Number of CPUs: 1
Page size: 4096
Core 0: /data2/zcq/champsim_traces_gap/pr.twitter-833B.champsimtrace.xz
VBerti Prefetcher
BERTI HASH ENTANGLING
BERTI IP MASK ffff
Off-chip DRAM Size: 16 GiB Channels: 1 Width: 64-bit Data Rate: 3205 MT/s
Warmup halting CPU 0 at instruction 50000000 cycle 23588468 for remainder of phase
Warmup finished CPU 0 instructions: 50000000 cycles: 23588468 cumulative IPC: 2.12 (Simulation time: 00 hr 07 min 03 sec)
Warmup complete CPU 0 instructions: 50000000 cycles: 23588468 cumulative IPC: 2.12 (Simulation time: 00 hr 07 min 03 sec)
Simulation CPU 0 warning: IPC 0.027109 < 0.05
Simulation CPU 0 warning: IPC 0.027123 < 0.05
Simulation CPU 0 warning: IPC 0.027347 < 0.05
Simulation CPU 0 warning: IPC 0.025077 < 0.05
Simulation CPU 0 warning: IPC 0.024019 < 0.05
Simulation CPU 0 warning: IPC 0.027427 < 0.05
Simulation CPU 0 warning: IPC 0.027818 < 0.05
Simulation CPU 0 warning: IPC 0.030485 < 0.05
Simulation CPU 0 warning: IPC 0.0286 < 0.05
Simulation CPU 0 warning: IPC 0.028268 < 0.05
Simulation CPU 0 warning: IPC 0.030589 < 0.05
Simulation CPU 0 warning: IPC 0.036326 < 0.05
Simulation CPU 0 warning: IPC 0.028912 < 0.05
Simulation CPU 0 warning: IPC 0.028927 < 0.05
Simulation CPU 0 warning: IPC 0.02909 < 0.05
Simulation CPU 0 warning: IPC 0.028597 < 0.05
Simulation CPU 0 warning: IPC 0.028617 < 0.05
Simulation CPU 0 warning: IPC 0.029469 < 0.05
Simulation CPU 0 warning: IPC 0.029786 < 0.05
Simulation CPU 0 warning: IPC 0.027907 < 0.05
Simulation CPU 0 warning: IPC 0.028956 < 0.05
Simulation CPU 0 warning: IPC 0.02943 < 0.05
Simulation CPU 0 warning: IPC 0.027815 < 0.05
Simulation CPU 0 warning: IPC 0.027774 < 0.05
Simulation CPU 0 warning: IPC 0.028074 < 0.05
Simulation CPU 0 warning: IPC 0.028483 < 0.05
Simulation CPU 0 warning: IPC 0.028923 < 0.05
Simulation CPU 0 warning: IPC 0.029019 < 0.05
Simulation CPU 0 warning: IPC 0.029557 < 0.05
Simulation CPU 0 warning: IPC 0.029555 < 0.05
Simulation CPU 0 warning: IPC 0.028761 < 0.05
Simulation CPU 0 warning: IPC 0.027928 < 0.05
Simulation CPU 0 warning: IPC 0.029721 < 0.05
Simulation CPU 0 warning: IPC 0.028756 < 0.05
Simulation CPU 0 warning: IPC 0.029098 < 0.05
Simulation CPU 0 warning: IPC 0.02958 < 0.05
Simulation CPU 0 warning: IPC 0.027708 < 0.05
Simulation CPU 0 warning: IPC 0.027912 < 0.05
Simulation CPU 0 warning: IPC 0.02592 < 0.05
Simulation CPU 0 warning: IPC 0.027985 < 0.05
Simulation CPU 0 warning: IPC 0.027584 < 0.05
Simulation CPU 0 warning: IPC 0.027511 < 0.05
Simulation CPU 0 warning: IPC 0.026089 < 0.05
Simulation CPU 0 warning: IPC 0.028736 < 0.05
Simulation CPU 0 warning: IPC 0.026931 < 0.05
Simulation CPU 0 warning: IPC 0.028908 < 0.05
Simulation CPU 0 warning: IPC 0.028108 < 0.05
Simulation CPU 0 warning: IPC 0.027495 < 0.05
Simulation CPU 0 warning: IPC 0.028117 < 0.05
Simulation CPU 0 warning: IPC 0.028237 < 0.05
Simulation CPU 0 warning: IPC 0.028172 < 0.05
Simulation CPU 0 warning: IPC 0.02991 < 0.05
Simulation CPU 0 warning: IPC 0.02977 < 0.05
Simulation CPU 0 warning: IPC 0.029393 < 0.05
Simulation CPU 0 warning: IPC 0.028153 < 0.05
Simulation CPU 0 warning: IPC 0.030709 < 0.05
Simulation CPU 0 warning: IPC 0.025902 < 0.05
Simulation CPU 0 warning: IPC 0.028171 < 0.05
Simulation CPU 0 warning: IPC 0.027955 < 0.05
Simulation CPU 0 warning: IPC 0.027194 < 0.05
Simulation CPU 0 warning: IPC 0.028032 < 0.05
Simulation CPU 0 warning: IPC 0.026071 < 0.05
Simulation CPU 0 warning: IPC 0.027048 < 0.05
Simulation CPU 0 warning: IPC 0.027571 < 0.05
Simulation CPU 0 warning: IPC 0.02809 < 0.05
Simulation CPU 0 warning: IPC 0.035921 < 0.05
Simulation CPU 0 warning: IPC 0.026882 < 0.05
Simulation CPU 0 warning: IPC 0.028614 < 0.05
Simulation CPU 0 warning: IPC 0.029257 < 0.05
Simulation CPU 0 warning: IPC 0.029688 < 0.05
Simulation CPU 0 warning: IPC 0.028595 < 0.05
Simulation CPU 0 warning: IPC 0.028711 < 0.05
Simulation CPU 0 warning: IPC 0.0283 < 0.05
Simulation CPU 0 warning: IPC 0.027116 < 0.05
Simulation CPU 0 warning: IPC 0.029164 < 0.05
Simulation CPU 0 warning: IPC 0.027675 < 0.05
Simulation CPU 0 warning: IPC 0.030253 < 0.05
Simulation CPU 0 warning: IPC 0.028584 < 0.05
Simulation CPU 0 warning: IPC 0.027347 < 0.05
Simulation CPU 0 warning: IPC 0.028116 < 0.05
Simulation CPU 0 warning: IPC 0.028343 < 0.05
Simulation CPU 0 warning: IPC 0.028752 < 0.05
Simulation CPU 0 warning: IPC 0.027179 < 0.05
Simulation CPU 0 warning: IPC 0.025517 < 0.05
Simulation CPU 0 warning: IPC 0.02584 < 0.05
Simulation CPU 0 warning: IPC 0.028448 < 0.05
Simulation CPU 0 warning: IPC 0.029049 < 0.05
Simulation CPU 0 warning: IPC 0.027341 < 0.05
Simulation CPU 0 warning: IPC 0.027515 < 0.05
Simulation CPU 0 warning: IPC 0.026995 < 0.05
Simulation CPU 0 warning: IPC 0.027735 < 0.05
Simulation CPU 0 warning: IPC 0.026681 < 0.05
Simulation CPU 0 warning: IPC 0.024684 < 0.05
Simulation CPU 0 warning: IPC 0.02651 < 0.05
Simulation CPU 0 warning: IPC 0.026078 < 0.05
Simulation CPU 0 warning: IPC 0.026541 < 0.05
Simulation CPU 0 warning: IPC 0.028374 < 0.05
Simulation CPU 0 warning: IPC 0.027892 < 0.05
Simulation CPU 0 warning: IPC 0.028524 < 0.05
Simulation CPU 0 warning: IPC 0.028163 < 0.05
Simulation CPU 0 warning: IPC 0.028959 < 0.05
Simulation CPU 0 warning: IPC 0.028624 < 0.05
Simulation CPU 0 warning: IPC 0.029077 < 0.05
Simulation CPU 0 warning: IPC 0.028244 < 0.05
Simulation CPU 0 warning: IPC 0.027647 < 0.05
Simulation CPU 0 warning: IPC 0.026982 < 0.05
Simulation CPU 0 warning: IPC 0.027986 < 0.05
Simulation CPU 0 warning: IPC 0.028003 < 0.05
Simulation CPU 0 warning: IPC 0.027663 < 0.05
Simulation CPU 0 warning: IPC 0.02716 < 0.05
Simulation CPU 0 warning: IPC 0.028435 < 0.05
Simulation CPU 0 warning: IPC 0.026606 < 0.05
Simulation CPU 0 warning: IPC 0.02714 < 0.05
Simulation CPU 0 warning: IPC 0.026894 < 0.05
Simulation CPU 0 warning: IPC 0.027883 < 0.05
Simulation CPU 0 warning: IPC 0.028583 < 0.05
Simulation CPU 0 warning: IPC 0.028636 < 0.05
Simulation CPU 0 warning: IPC 0.027065 < 0.05
Simulation CPU 0 warning: IPC 0.029607 < 0.05
Simulation CPU 0 warning: IPC 0.027786 < 0.05
Simulation CPU 0 warning: IPC 0.029534 < 0.05
Simulation CPU 0 warning: IPC 0.030294 < 0.05
Simulation CPU 0 warning: IPC 0.026914 < 0.05
Simulation CPU 0 warning: IPC 0.028529 < 0.05
Simulation CPU 0 warning: IPC 0.026543 < 0.05
Simulation CPU 0 warning: IPC 0.027072 < 0.05
Simulation CPU 0 warning: IPC 0.026658 < 0.05
Simulation CPU 0 warning: IPC 0.027493 < 0.05
Simulation CPU 0 warning: IPC 0.026674 < 0.05
Simulation CPU 0 warning: IPC 0.02843 < 0.05
Simulation CPU 0 warning: IPC 0.02777 < 0.05
Simulation CPU 0 warning: IPC 0.026745 < 0.05
Simulation CPU 0 warning: IPC 0.027049 < 0.05
Simulation CPU 0 warning: IPC 0.02751 < 0.05
Simulation CPU 0 warning: IPC 0.028155 < 0.05
Simulation CPU 0 warning: IPC 0.026726 < 0.05
Simulation CPU 0 warning: IPC 0.026685 < 0.05
Simulation CPU 0 warning: IPC 0.027583 < 0.05
Simulation CPU 0 warning: IPC 0.029381 < 0.05
Simulation CPU 0 warning: IPC 0.02808 < 0.05
Simulation CPU 0 warning: IPC 0.028276 < 0.05
Simulation CPU 0 warning: IPC 0.029777 < 0.05
Simulation CPU 0 warning: IPC 0.030691 < 0.05
Simulation CPU 0 warning: IPC 0.030225 < 0.05
Simulation CPU 0 warning: IPC 0.028079 < 0.05
Simulation CPU 0 warning: IPC 0.028831 < 0.05
Simulation CPU 0 warning: IPC 0.028693 < 0.05
Simulation CPU 0 warning: IPC 0.027812 < 0.05
Simulation CPU 0 warning: IPC 0.027046 < 0.05
Simulation CPU 0 warning: IPC 0.028306 < 0.05
Simulation CPU 0 warning: IPC 0.028362 < 0.05
Simulation CPU 0 warning: IPC 0.028366 < 0.05
Simulation CPU 0 warning: IPC 0.028407 < 0.05
Simulation CPU 0 warning: IPC 0.028943 < 0.05
Simulation CPU 0 warning: IPC 0.027745 < 0.05
Simulation CPU 0 warning: IPC 0.029856 < 0.05
Simulation CPU 0 warning: IPC 0.02689 < 0.05
Simulation CPU 0 warning: IPC 0.02811 < 0.05
Simulation CPU 0 warning: IPC 0.027386 < 0.05
Simulation CPU 0 warning: IPC 0.0295 < 0.05
Simulation CPU 0 warning: IPC 0.028231 < 0.05
Simulation CPU 0 warning: IPC 0.029074 < 0.05
Simulation CPU 0 warning: IPC 0.028903 < 0.05
Simulation CPU 0 warning: IPC 0.027433 < 0.05
Simulation CPU 0 warning: IPC 0.029506 < 0.05
Simulation CPU 0 warning: IPC 0.027225 < 0.05
Simulation CPU 0 warning: IPC 0.02958 < 0.05
Simulation CPU 0 warning: IPC 0.029831 < 0.05
Simulation CPU 0 warning: IPC 0.029202 < 0.05
Simulation CPU 0 warning: IPC 0.029389 < 0.05
Simulation CPU 0 warning: IPC 0.028003 < 0.05
Simulation CPU 0 warning: IPC 0.028272 < 0.05
Simulation CPU 0 warning: IPC 0.028909 < 0.05
Simulation CPU 0 warning: IPC 0.027539 < 0.05
Simulation CPU 0 warning: IPC 0.02669 < 0.05
Simulation CPU 0 warning: IPC 0.028207 < 0.05
Simulation CPU 0 warning: IPC 0.027613 < 0.05
Simulation CPU 0 warning: IPC 0.02581 < 0.05
Simulation CPU 0 warning: IPC 0.026693 < 0.05
Simulation CPU 0 warning: IPC 0.027227 < 0.05
Simulation CPU 0 warning: IPC 0.026488 < 0.05
Simulation CPU 0 warning: IPC 0.028635 < 0.05
Simulation CPU 0 warning: IPC 0.028388 < 0.05
Simulation CPU 0 warning: IPC 0.02854 < 0.05
Simulation CPU 0 warning: IPC 0.027945 < 0.05
Simulation CPU 0 warning: IPC 0.027759 < 0.05
Simulation CPU 0 warning: IPC 0.028381 < 0.05
Simulation CPU 0 warning: IPC 0.028231 < 0.05
Simulation CPU 0 warning: IPC 0.028349 < 0.05
Simulation CPU 0 warning: IPC 0.030202 < 0.05
Simulation CPU 0 warning: IPC 0.026994 < 0.05
Simulation CPU 0 warning: IPC 0.030112 < 0.05
Simulation CPU 0 warning: IPC 0.027815 < 0.05
Simulation CPU 0 warning: IPC 0.027969 < 0.05
Simulation CPU 0 warning: IPC 0.026332 < 0.05
Simulation CPU 0 warning: IPC 0.027242 < 0.05
Simulation CPU 0 warning: IPC 0.027871 < 0.05
Simulation CPU 0 warning: IPC 0.027628 < 0.05
Simulation CPU 0 warning: IPC 0.026967 < 0.05
Simulation CPU 0 warning: IPC 0.028005 < 0.05
Simulation CPU 0 warning: IPC 0.026876 < 0.05
Simulation CPU 0 warning: IPC 0.02782 < 0.05
Simulation CPU 0 warning: IPC 0.028508 < 0.05
Simulation CPU 0 warning: IPC 0.025785 < 0.05
Simulation CPU 0 warning: IPC 0.028047 < 0.05
Simulation CPU 0 warning: IPC 0.028774 < 0.05
Simulation CPU 0 warning: IPC 0.0276 < 0.05
Simulation CPU 0 warning: IPC 0.027804 < 0.05
Simulation CPU 0 warning: IPC 0.027902 < 0.05
Simulation CPU 0 warning: IPC 0.026948 < 0.05
Simulation CPU 0 warning: IPC 0.027923 < 0.05
Simulation CPU 0 warning: IPC 0.027667 < 0.05
Simulation CPU 0 warning: IPC 0.028085 < 0.05
Simulation CPU 0 warning: IPC 0.027354 < 0.05
Simulation CPU 0 warning: IPC 0.028947 < 0.05
Simulation CPU 0 warning: IPC 0.026296 < 0.05
Simulation CPU 0 warning: IPC 0.028001 < 0.05
Simulation CPU 0 warning: IPC 0.02692 < 0.05
Simulation CPU 0 warning: IPC 0.027481 < 0.05
Simulation CPU 0 warning: IPC 0.024993 < 0.05
Simulation CPU 0 warning: IPC 0.026627 < 0.05
Simulation CPU 0 warning: IPC 0.028341 < 0.05
Simulation CPU 0 warning: IPC 0.028495 < 0.05
Simulation CPU 0 warning: IPC 0.02704 < 0.05
Simulation CPU 0 warning: IPC 0.025431 < 0.05
Simulation CPU 0 warning: IPC 0.028592 < 0.05
Simulation CPU 0 warning: IPC 0.027217 < 0.05
Simulation CPU 0 warning: IPC 0.028119 < 0.05
Simulation CPU 0 warning: IPC 0.029249 < 0.05
Simulation CPU 0 warning: IPC 0.028083 < 0.05
Simulation CPU 0 warning: IPC 0.02712 < 0.05
Simulation CPU 0 warning: IPC 0.027273 < 0.05
Simulation CPU 0 warning: IPC 0.024994 < 0.05
Simulation CPU 0 warning: IPC 0.027706 < 0.05
Simulation CPU 0 warning: IPC 0.029131 < 0.05
Simulation CPU 0 warning: IPC 0.028159 < 0.05
Simulation CPU 0 warning: IPC 0.029262 < 0.05
Simulation CPU 0 warning: IPC 0.0292 < 0.05
Simulation CPU 0 warning: IPC 0.028583 < 0.05
Simulation CPU 0 warning: IPC 0.029353 < 0.05
Simulation CPU 0 warning: IPC 0.028903 < 0.05
Simulation CPU 0 warning: IPC 0.027439 < 0.05
Simulation CPU 0 warning: IPC 0.025989 < 0.05
Simulation CPU 0 warning: IPC 0.028815 < 0.05
Simulation CPU 0 warning: IPC 0.028642 < 0.05
Simulation CPU 0 warning: IPC 0.028071 < 0.05
Simulation CPU 0 warning: IPC 0.027159 < 0.05
Simulation CPU 0 warning: IPC 0.028692 < 0.05
Simulation CPU 0 warning: IPC 0.02894 < 0.05
Simulation CPU 0 warning: IPC 0.027732 < 0.05
Simulation CPU 0 warning: IPC 0.027445 < 0.05
Simulation CPU 0 warning: IPC 0.026934 < 0.05
Simulation CPU 0 warning: IPC 0.028486 < 0.05
Simulation CPU 0 warning: IPC 0.029793 < 0.05
Simulation CPU 0 warning: IPC 0.029072 < 0.05
Simulation CPU 0 warning: IPC 0.028501 < 0.05
Simulation CPU 0 warning: IPC 0.027805 < 0.05
Simulation CPU 0 warning: IPC 0.028633 < 0.05
Simulation CPU 0 warning: IPC 0.028158 < 0.05
Simulation CPU 0 warning: IPC 0.02626 < 0.05
Simulation CPU 0 warning: IPC 0.030053 < 0.05
Simulation CPU 0 warning: IPC 0.029567 < 0.05
Simulation CPU 0 warning: IPC 0.028605 < 0.05
Simulation CPU 0 warning: IPC 0.029806 < 0.05
Simulation CPU 0 warning: IPC 0.029115 < 0.05
Simulation CPU 0 warning: IPC 0.028214 < 0.05
Simulation CPU 0 warning: IPC 0.028661 < 0.05
Simulation CPU 0 warning: IPC 0.027002 < 0.05
Simulation CPU 0 warning: IPC 0.029175 < 0.05
Simulation CPU 0 warning: IPC 0.028373 < 0.05
Simulation CPU 0 warning: IPC 0.028845 < 0.05
Simulation CPU 0 warning: IPC 0.028664 < 0.05
Simulation CPU 0 warning: IPC 0.028811 < 0.05
Simulation CPU 0 warning: IPC 0.02799 < 0.05
Simulation CPU 0 warning: IPC 0.029272 < 0.05
Simulation CPU 0 warning: IPC 0.027053 < 0.05
Simulation CPU 0 warning: IPC 0.026574 < 0.05
Simulation CPU 0 warning: IPC 0.027842 < 0.05
Simulation CPU 0 warning: IPC 0.027652 < 0.05
Simulation CPU 0 warning: IPC 0.028925 < 0.05
Simulation CPU 0 warning: IPC 0.029408 < 0.05
Simulation CPU 0 warning: IPC 0.026675 < 0.05
Simulation CPU 0 warning: IPC 0.028233 < 0.05
Simulation CPU 0 warning: IPC 0.028109 < 0.05
Simulation CPU 0 warning: IPC 0.02684 < 0.05
Simulation CPU 0 warning: IPC 0.029263 < 0.05
Simulation CPU 0 warning: IPC 0.028567 < 0.05
Simulation CPU 0 warning: IPC 0.028199 < 0.05
Simulation CPU 0 warning: IPC 0.028713 < 0.05
Simulation CPU 0 warning: IPC 0.029841 < 0.05
Simulation CPU 0 warning: IPC 0.028041 < 0.05
Simulation CPU 0 warning: IPC 0.028374 < 0.05
Simulation CPU 0 warning: IPC 0.028386 < 0.05
Simulation CPU 0 warning: IPC 0.029717 < 0.05
Simulation CPU 0 warning: IPC 0.028473 < 0.05
Simulation CPU 0 warning: IPC 0.028288 < 0.05
Simulation CPU 0 warning: IPC 0.02858 < 0.05
Simulation CPU 0 warning: IPC 0.029513 < 0.05
Simulation CPU 0 warning: IPC 0.027895 < 0.05
Simulation CPU 0 warning: IPC 0.030091 < 0.05
Simulation CPU 0 warning: IPC 0.028027 < 0.05
Simulation CPU 0 warning: IPC 0.029387 < 0.05
Simulation CPU 0 warning: IPC 0.029552 < 0.05
Simulation CPU 0 warning: IPC 0.026933 < 0.05
Simulation CPU 0 warning: IPC 0.028197 < 0.05
Simulation CPU 0 warning: IPC 0.028118 < 0.05
Simulation CPU 0 warning: IPC 0.029238 < 0.05
Simulation CPU 0 warning: IPC 0.028236 < 0.05
Simulation CPU 0 warning: IPC 0.028386 < 0.05
Simulation CPU 0 warning: IPC 0.028502 < 0.05
Simulation CPU 0 warning: IPC 0.028372 < 0.05
Simulation CPU 0 warning: IPC 0.030225 < 0.05
Simulation CPU 0 warning: IPC 0.027142 < 0.05
Simulation CPU 0 warning: IPC 0.028291 < 0.05
Simulation CPU 0 warning: IPC 0.028811 < 0.05
Simulation CPU 0 warning: IPC 0.02796 < 0.05
Simulation CPU 0 warning: IPC 0.028124 < 0.05
Simulation CPU 0 warning: IPC 0.027495 < 0.05
Simulation CPU 0 warning: IPC 0.028574 < 0.05
Simulation CPU 0 warning: IPC 0.02587 < 0.05
Simulation CPU 0 warning: IPC 0.024374 < 0.05
Simulation CPU 0 warning: IPC 0.027039 < 0.05
Simulation CPU 0 warning: IPC 0.027691 < 0.05
Simulation CPU 0 warning: IPC 0.030182 < 0.05
Simulation CPU 0 warning: IPC 0.02832 < 0.05
Simulation CPU 0 warning: IPC 0.028175 < 0.05
Simulation CPU 0 warning: IPC 0.026451 < 0.05
Simulation CPU 0 warning: IPC 0.027015 < 0.05
Simulation CPU 0 warning: IPC 0.024342 < 0.05
Simulation CPU 0 warning: IPC 0.02992 < 0.05
Simulation CPU 0 warning: IPC 0.030815 < 0.05
Simulation CPU 0 warning: IPC 0.028924 < 0.05
Simulation CPU 0 warning: IPC 0.032186 < 0.05
Simulation CPU 0 warning: IPC 0.030589 < 0.05
Simulation CPU 0 warning: IPC 0.028809 < 0.05
Simulation CPU 0 warning: IPC 0.02933 < 0.05
Simulation CPU 0 warning: IPC 0.029181 < 0.05
Simulation CPU 0 warning: IPC 0.029552 < 0.05
Simulation CPU 0 warning: IPC 0.027717 < 0.05
Simulation CPU 0 warning: IPC 0.029453 < 0.05
Simulation CPU 0 warning: IPC 0.028761 < 0.05
Simulation CPU 0 warning: IPC 0.027799 < 0.05
Simulation CPU 0 warning: IPC 0.026537 < 0.05
Simulation CPU 0 warning: IPC 0.028925 < 0.05
Simulation CPU 0 warning: IPC 0.02957 < 0.05
Simulation CPU 0 warning: IPC 0.029282 < 0.05
Simulation CPU 0 warning: IPC 0.027983 < 0.05
Simulation CPU 0 warning: IPC 0.027014 < 0.05
Simulation CPU 0 warning: IPC 0.028364 < 0.05
Simulation CPU 0 warning: IPC 0.029363 < 0.05
Simulation CPU 0 warning: IPC 0.030647 < 0.05
Simulation CPU 0 warning: IPC 0.028608 < 0.05
Simulation CPU 0 warning: IPC 0.029338 < 0.05
Simulation CPU 0 warning: IPC 0.03041 < 0.05
Simulation finished CPU 0 instructions: 100000001 cycles: 3547708786 cumulative IPC: 0.02819 (Simulation time: 05 hr 04 min 35 sec)
Simulation complete CPU 0 instructions: 100000001 cycles: 3547708786 cumulative IPC: 0.02819 (Simulation time: 05 hr 04 min 35 sec)

ChampSim completed all CPUs

=== Simulation ===
CPU 0 runs /data2/zcq/champsim_traces_gap/pr.twitter-833B.champsimtrace.xz

Region of Interest Statistics

CPU 0 cumulative IPC: 0.02819 instructions: 100000001 cycles: 3547708786
CPU 0 Branch Prediction Accuracy: 98.03% MPKI: 3.858 Average ROB Occupancy at Mispredict: 250.7
Branch type MPKI
BRANCH_DIRECT_JUMP: 0
BRANCH_INDIRECT: 0
BRANCH_CONDITIONAL: 3.858
BRANCH_DIRECT_CALL: 0
BRANCH_INDIRECT_CALL: 0
BRANCH_RETURN: 0

cpu0->cpu0_STLB TOTAL        ACCESS:   17050021 HIT:    1327392 MISS:   15722629 MSHR_MERGE:          0
cpu0->cpu0_STLB LOAD         ACCESS:   17050021 HIT:    1327392 MISS:   15722629 MSHR_MERGE:          0
cpu0->cpu0_STLB RFO          ACCESS:          0 HIT:          0 MISS:          0 MSHR_MERGE:          0
cpu0->cpu0_STLB PREFETCH     ACCESS:          0 HIT:          0 MISS:          0 MSHR_MERGE:          0
cpu0->cpu0_STLB WRITE        ACCESS:          0 HIT:          0 MISS:          0 MSHR_MERGE:          0
cpu0->cpu0_STLB TRANSLATION  ACCESS:          0 HIT:          0 MISS:          0 MSHR_MERGE:          0
cpu0->cpu0_STLB PREFETCH REQUESTED:          0 ISSUED:          0 USEFUL:          0 USELESS:          0 LATE:          0 TOO_EARLY:          0
cpu0->cpu0_STLB AVERAGE MISS LATENCY: 24.74 cycles
cpu0->cpu0_L2C TOTAL        ACCESS:   37192584 HIT:   12821849 MISS:   24370735 MSHR_MERGE:      37477
cpu0->cpu0_L2C LOAD         ACCESS:   18474131 HIT:    1061093 MISS:   17413038 MSHR_MERGE:       3198
cpu0->cpu0_L2C RFO          ACCESS:      11887 HIT:      10054 MISS:       1833 MSHR_MERGE:          0
cpu0->cpu0_L2C PREFETCH     ACCESS:    6606236 HIT:    5264025 MISS:    1342211 MSHR_MERGE:      34279
cpu0->cpu0_L2C WRITE        ACCESS:      49909 HIT:      49901 MISS:          8 MSHR_MERGE:          0
cpu0->cpu0_L2C TRANSLATION  ACCESS:   12050421 HIT:    6436776 MISS:    5613645 MSHR_MERGE:          0
cpu0->cpu0_L2C PREFETCH REQUESTED:    3543391 ISSUED:    3542866 USEFUL:    1030288 USELESS:      50127 LATE:       2271 TOO_EARLY:      22075
cpu0->cpu0_L2C AVERAGE MISS LATENCY: 122.7 cycles
cpu0->cpu0_L1I TOTAL        ACCESS:   15007577 HIT:   15007577 MISS:          0 MSHR_MERGE:          0
cpu0->cpu0_L1I LOAD         ACCESS:   15007577 HIT:   15007577 MISS:          0 MSHR_MERGE:          0
cpu0->cpu0_L1I RFO          ACCESS:          0 HIT:          0 MISS:          0 MSHR_MERGE:          0
cpu0->cpu0_L1I PREFETCH     ACCESS:          0 HIT:          0 MISS:          0 MSHR_MERGE:          0
cpu0->cpu0_L1I WRITE        ACCESS:          0 HIT:          0 MISS:          0 MSHR_MERGE:          0
cpu0->cpu0_L1I TRANSLATION  ACCESS:          0 HIT:          0 MISS:          0 MSHR_MERGE:          0
cpu0->cpu0_L1I PREFETCH REQUESTED:          0 ISSUED:          0 USEFUL:          0 USELESS:          0 LATE:          0 TOO_EARLY:          0
cpu0->cpu0_L1I AVERAGE MISS LATENCY: - cycles
cpu0->cpu0_L1D TOTAL        ACCESS:   94010116 HIT:   60310357 MISS:   33699759 MSHR_MERGE:      99498
cpu0->cpu0_L1D LOAD         ACCESS:   38275975 HIT:   19739497 MISS:   18536478 MSHR_MERGE:      62348
cpu0->cpu0_L1D RFO          ACCESS:          0 HIT:          0 MISS:          0 MSHR_MERGE:          0
cpu0->cpu0_L1D PREFETCH     ACCESS:   21166011 HIT:   18100733 MISS:    3065278 MSHR_MERGE:       1453
cpu0->cpu0_L1D WRITE        ACCESS:     451714 HIT:     404140 MISS:      47574 MSHR_MERGE:      35687
cpu0->cpu0_L1D TRANSLATION  ACCESS:   34116416 HIT:   22065987 MISS:   12050429 MSHR_MERGE:         10
cpu0->cpu0_L1D PREFETCH REQUESTED:   23000834 ISSUED:   21761773 USEFUL:    1198377 USELESS:      39297 LATE:       3933 TOO_EARLY:       6749
cpu0->cpu0_L1D AVERAGE MISS LATENCY: 101.3 cycles
cpu0->cpu0_ITLB TOTAL        ACCESS:   15007576 HIT:   15007576 MISS:          0 MSHR_MERGE:          0
cpu0->cpu0_ITLB LOAD         ACCESS:   15007576 HIT:   15007576 MISS:          0 MSHR_MERGE:          0
cpu0->cpu0_ITLB RFO          ACCESS:          0 HIT:          0 MISS:          0 MSHR_MERGE:          0
cpu0->cpu0_ITLB PREFETCH     ACCESS:          0 HIT:          0 MISS:          0 MSHR_MERGE:          0
cpu0->cpu0_ITLB WRITE        ACCESS:          0 HIT:          0 MISS:          0 MSHR_MERGE:          0
cpu0->cpu0_ITLB TRANSLATION  ACCESS:          0 HIT:          0 MISS:          0 MSHR_MERGE:          0
cpu0->cpu0_ITLB PREFETCH REQUESTED:          0 ISSUED:          0 USEFUL:          0 USELESS:          0 LATE:          0 TOO_EARLY:          0
cpu0->cpu0_ITLB AVERAGE MISS LATENCY: - cycles
cpu0->cpu0_DTLB TOTAL        ACCESS:   58851852 HIT:   41750770 MISS:   17101082 MSHR_MERGE:      51062
cpu0->cpu0_DTLB LOAD         ACCESS:   58851852 HIT:   41750770 MISS:   17101082 MSHR_MERGE:      51062
cpu0->cpu0_DTLB RFO          ACCESS:          0 HIT:          0 MISS:          0 MSHR_MERGE:          0
cpu0->cpu0_DTLB PREFETCH     ACCESS:          0 HIT:          0 MISS:          0 MSHR_MERGE:          0
cpu0->cpu0_DTLB WRITE        ACCESS:          0 HIT:          0 MISS:          0 MSHR_MERGE:          0
cpu0->cpu0_DTLB TRANSLATION  ACCESS:          0 HIT:          0 MISS:          0 MSHR_MERGE:          0
cpu0->cpu0_DTLB PREFETCH REQUESTED:          0 ISSUED:          0 USEFUL:          0 USELESS:          0 LATE:          0 TOO_EARLY:          0
cpu0->cpu0_DTLB AVERAGE MISS LATENCY: 28.73 cycles
cpu0->LLC TOTAL        ACCESS:   24361183 HIT:    9297635 MISS:   15063548 MSHR_MERGE:        202
cpu0->LLC LOAD         ACCESS:   17409840 HIT:    3779068 MISS:   13630772 MSHR_MERGE:          5
cpu0->LLC RFO          ACCESS:       1833 HIT:       1828 MISS:          5 MSHR_MERGE:          0
cpu0->LLC PREFETCH     ACCESS:    1307932 HIT:       5959 MISS:    1301973 MSHR_MERGE:        197
cpu0->LLC WRITE        ACCESS:      27933 HIT:       8314 MISS:      19619 MSHR_MERGE:          0
cpu0->LLC TRANSLATION  ACCESS:    5613645 HIT:    5502466 MISS:     111179 MSHR_MERGE:          0
cpu0->LLC PREFETCH REQUESTED:          0 ISSUED:          0 USEFUL:          0 USELESS:          0 LATE:          0 TOO_EARLY:          0
cpu0->LLC AVERAGE MISS LATENCY: 179.1 cycles

DRAM Statistics

Channel 0 RQ ROW_BUFFER_HIT:      34715
  ROW_BUFFER_MISS:   15009012
  AVG DBUS CONGESTED CYCLE: 13.84
Channel 0 WQ ROW_BUFFER_HIT:       4930
  ROW_BUFFER_MISS:      19835
  FULL:          0
Channel 0 REFRESHES ISSUED:     295643

[ROI Statistics]
[System Configuration]
num_cpus 1
cpu_freq 4000
fetch_width 6
decode_width 6
dispatch_width 6
execute_width 6
lq_width 2
sq_width 2
retire_width 6
scheduler_size 128
branch_mispredict_penalty 15
rob_size 352
lq_size 128
sq_size 72
ifetch_buffer_size 64
decode_buffer_size 32
dispatch_buffer_size 32
register_file_size 288
decode_latency 1
dispatch_latency 1
schedule_latency 1
execute_latency 1
page_size 4096
block_size 64
core_0_itlb_set 16
core_0_itlb_way 4
core_0_itlb_rq_size 16
core_0_itlb_wq_size 16
core_0_itlb_pq_size 0
core_0_itlb_mshr_size 8
core_0_itlb_hit_latency 1
core_0_itlb_fill_latency 1
core_0_itlb_max_tag_check 2
core_0_itlb_max_fill 2
core_0_dtlb_set 16
core_0_dtlb_way 4
core_0_dtlb_rq_size 16
core_0_dtlb_wq_size 16
core_0_dtlb_pq_size 0
core_0_dtlb_mshr_size 8
core_0_dtlb_hit_latency 1
core_0_dtlb_fill_latency 1
core_0_dtlb_max_tag_check 2
core_0_dtlb_max_fill 2
core_0_stlb_set 128
core_0_stlb_way 12
core_0_stlb_rq_size 32
core_0_stlb_wq_size 32
core_0_stlb_pq_size 0
core_0_stlb_mshr_size 16
core_0_stlb_hit_latency 4
core_0_stlb_fill_latency 4
core_0_stlb_max_tag_check 1
core_0_stlb_max_fill 1
core_0_l1i_set 64
core_0_l1i_way 8
core_0_l1i_rq_size 64
core_0_l1i_wq_size 64
core_0_l1i_pq_size 32
core_0_l1i_mshr_size 8
core_0_l1i_hit_latency 2
core_0_l1i_fill_latency 2
core_0_l1i_max_tag_check 2
core_0_l1i_max_fill 2
core_0_l1d_set 64
core_0_l1d_way 12
core_0_l1d_rq_size 64
core_0_l1d_wq_size 64
core_0_l1d_pq_size 8
core_0_l1d_mshr_size 16
core_0_l1d_hit_latency 2
core_0_l1d_fill_latency 3
core_0_l1d_max_tag_check 2
core_0_l1d_max_fill 2
core_0_l2c_set 1024
core_0_l2c_way 8
core_0_l2c_rq_size 32
core_0_l2c_wq_size 32
core_0_l2c_pq_size 16
core_0_l2c_mshr_size 32
core_0_l2c_hit_latency 5
core_0_l2c_fill_latency 5
core_0_l2c_max_tag_check 1
core_0_l2c_max_fill 1
llc_set 2048
llc_way 16
llc_rq_size 32
llc_wq_size 32
llc_pq_size 32
llc_mshr_size 64
llc_hit_latency 10
llc_fill_latency 10
llc_max_tag_check 1
llc_max_fill 1
dram_channels 1
dram_ranks 1
dram_bankgroups 8
dram_banks 4
dram_rows 65536
dram_columns 1024
dram_channel_width 8
dram_rq_size 64
dram_wq_size 64
dram_size 17179869184
core_0_itlb_prefetcher no
core_0_dtlb_prefetcher no
core_0_stlb_prefetcher no
core_0_l1i_prefetcher next_line
core_0_l1d_prefetcher vberti
core_0_l2c_prefetcher ip_stride
llc_prefetcher no
llc_replacement drrip

Core_0_instructions 100000001
Core_0_cycles 3547708786
Core_0_IPC 0.0281872
Core_0_branch_prediction_accuracy 98.0286
Core_0_branch_MPKI 3.85821
Core_0_average_ROB_occupancy_at_mispredict 250.664

Core_0_ITLB_total_access 15007576
Core_0_ITLB_total_hit 15007576
Core_0_ITLB_total_miss 0
Core_0_ITLB_total_MPKI 0
Core_0_ITLB_total_miss_rate 0
Core_0_ITLB_demand_access 15007576
Core_0_ITLB_demand_hit 15007576
Core_0_ITLB_demand_miss 0
Core_0_ITLB_demand_MPKI 0
Core_0_ITLB_demand_miss_rate 0
Core_0_ITLB_load_access 15007576
Core_0_ITLB_load_hit 15007576
Core_0_ITLB_load_miss 0
Core_0_ITLB_load_MPKI 0
Core_0_ITLB_load_miss_rate 0
Core_0_ITLB_rfo_access 0
Core_0_ITLB_rfo_hit 0
Core_0_ITLB_rfo_miss 0
Core_0_ITLB_rfo_MPKI 0
Core_0_ITLB_rfo_miss_rate 0
Core_0_ITLB_prefetch_access 0
Core_0_ITLB_prefetch_hit 0
Core_0_ITLB_prefetch_miss 0
Core_0_ITLB_prefetch_MPKI 0
Core_0_ITLB_prefetch_miss_rate 0
Core_0_ITLB_writeback_access 0
Core_0_ITLB_writeback_hit 0
Core_0_ITLB_writeback_miss 0
Core_0_ITLB_writeback_MPKI 0
Core_0_ITLB_writeback_miss_rate 0
Core_0_ITLB_prefetch_requested 0
Core_0_ITLB_prefetch_issued 0
Core_0_ITLB_prefetch_useful 0
Core_0_ITLB_prefetch_useless 0
Core_0_ITLB_prefetch_late 0
Core_0_ITLB_prefetch_fill 0
Core_0_ITLB_prefetch_too_early 0
Core_0_ITLB_prefetch_too_early_among_fill 0
Core_0_ITLB_prefetch_too_early_among_useless 0
Core_0_ITLB_prefetch_pollution_evict 0
Core_0_ITLB_prefetch_pollution_demand 0
Core_0_ITLB_prefetch_pollution_among_prefetch_fill 0
Core_0_ITLB_prefetch_accuracy 0
Core_0_ITLB_prefetch_coverage 0

Core_0_DTLB_total_access 58851852
Core_0_DTLB_total_hit 41750770
Core_0_DTLB_total_miss 17101082
Core_0_DTLB_total_MPKI 171.011
Core_0_DTLB_total_miss_rate 0.290578
Core_0_DTLB_demand_access 58851852
Core_0_DTLB_demand_hit 41750770
Core_0_DTLB_demand_miss 17101082
Core_0_DTLB_demand_MPKI 171.011
Core_0_DTLB_demand_miss_rate 0.290578
Core_0_DTLB_load_access 58851852
Core_0_DTLB_load_hit 41750770
Core_0_DTLB_load_miss 17101082
Core_0_DTLB_load_MPKI 171.011
Core_0_DTLB_load_miss_rate 0.290578
Core_0_DTLB_rfo_access 0
Core_0_DTLB_rfo_hit 0
Core_0_DTLB_rfo_miss 0
Core_0_DTLB_rfo_MPKI 0
Core_0_DTLB_rfo_miss_rate 0
Core_0_DTLB_prefetch_access 0
Core_0_DTLB_prefetch_hit 0
Core_0_DTLB_prefetch_miss 0
Core_0_DTLB_prefetch_MPKI 0
Core_0_DTLB_prefetch_miss_rate 0
Core_0_DTLB_writeback_access 0
Core_0_DTLB_writeback_hit 0
Core_0_DTLB_writeback_miss 0
Core_0_DTLB_writeback_MPKI 0
Core_0_DTLB_writeback_miss_rate 0
Core_0_DTLB_prefetch_requested 0
Core_0_DTLB_prefetch_issued 0
Core_0_DTLB_prefetch_useful 0
Core_0_DTLB_prefetch_useless 0
Core_0_DTLB_prefetch_late 0
Core_0_DTLB_prefetch_fill 0
Core_0_DTLB_prefetch_too_early 0
Core_0_DTLB_prefetch_too_early_among_fill 0
Core_0_DTLB_prefetch_too_early_among_useless 0
Core_0_DTLB_prefetch_pollution_evict 0
Core_0_DTLB_prefetch_pollution_demand 0
Core_0_DTLB_prefetch_pollution_among_prefetch_fill 0
Core_0_DTLB_prefetch_accuracy 0
Core_0_DTLB_prefetch_coverage 0

Core_0_STLB_total_access 17050021
Core_0_STLB_total_hit 1327392
Core_0_STLB_total_miss 15722629
Core_0_STLB_total_MPKI 157.226
Core_0_STLB_total_miss_rate 0.922147
Core_0_STLB_demand_access 17050021
Core_0_STLB_demand_hit 1327392
Core_0_STLB_demand_miss 15722629
Core_0_STLB_demand_MPKI 157.226
Core_0_STLB_demand_miss_rate 0.922147
Core_0_STLB_load_access 17050021
Core_0_STLB_load_hit 1327392
Core_0_STLB_load_miss 15722629
Core_0_STLB_load_MPKI 157.226
Core_0_STLB_load_miss_rate 0.922147
Core_0_STLB_rfo_access 0
Core_0_STLB_rfo_hit 0
Core_0_STLB_rfo_miss 0
Core_0_STLB_rfo_MPKI 0
Core_0_STLB_rfo_miss_rate 0
Core_0_STLB_prefetch_access 0
Core_0_STLB_prefetch_hit 0
Core_0_STLB_prefetch_miss 0
Core_0_STLB_prefetch_MPKI 0
Core_0_STLB_prefetch_miss_rate 0
Core_0_STLB_writeback_access 0
Core_0_STLB_writeback_hit 0
Core_0_STLB_writeback_miss 0
Core_0_STLB_writeback_MPKI 0
Core_0_STLB_writeback_miss_rate 0
Core_0_STLB_prefetch_requested 0
Core_0_STLB_prefetch_issued 0
Core_0_STLB_prefetch_useful 0
Core_0_STLB_prefetch_useless 0
Core_0_STLB_prefetch_late 0
Core_0_STLB_prefetch_fill 0
Core_0_STLB_prefetch_too_early 0
Core_0_STLB_prefetch_too_early_among_fill 0
Core_0_STLB_prefetch_too_early_among_useless 0
Core_0_STLB_prefetch_pollution_evict 0
Core_0_STLB_prefetch_pollution_demand 0
Core_0_STLB_prefetch_pollution_among_prefetch_fill 0
Core_0_STLB_prefetch_accuracy 0
Core_0_STLB_prefetch_coverage 0

Core_0_L1I_total_access 15007577
Core_0_L1I_total_hit 15007577
Core_0_L1I_total_miss 0
Core_0_L1I_total_MPKI 0
Core_0_L1I_total_miss_rate 0
Core_0_L1I_demand_access 15007577
Core_0_L1I_demand_hit 15007577
Core_0_L1I_demand_miss 0
Core_0_L1I_demand_MPKI 0
Core_0_L1I_demand_miss_rate 0
Core_0_L1I_load_access 15007577
Core_0_L1I_load_hit 15007577
Core_0_L1I_load_miss 0
Core_0_L1I_load_MPKI 0
Core_0_L1I_load_miss_rate 0
Core_0_L1I_rfo_access 0
Core_0_L1I_rfo_hit 0
Core_0_L1I_rfo_miss 0
Core_0_L1I_rfo_MPKI 0
Core_0_L1I_rfo_miss_rate 0
Core_0_L1I_prefetch_access 0
Core_0_L1I_prefetch_hit 0
Core_0_L1I_prefetch_miss 0
Core_0_L1I_prefetch_MPKI 0
Core_0_L1I_prefetch_miss_rate 0
Core_0_L1I_writeback_access 0
Core_0_L1I_writeback_hit 0
Core_0_L1I_writeback_miss 0
Core_0_L1I_writeback_MPKI 0
Core_0_L1I_writeback_miss_rate 0
Core_0_L1I_prefetch_requested 0
Core_0_L1I_prefetch_issued 0
Core_0_L1I_prefetch_useful 0
Core_0_L1I_prefetch_useless 0
Core_0_L1I_prefetch_late 0
Core_0_L1I_prefetch_fill 0
Core_0_L1I_prefetch_too_early 0
Core_0_L1I_prefetch_too_early_among_fill 0
Core_0_L1I_prefetch_too_early_among_useless 0
Core_0_L1I_prefetch_pollution_evict 0
Core_0_L1I_prefetch_pollution_demand 0
Core_0_L1I_prefetch_pollution_among_prefetch_fill 0
Core_0_L1I_prefetch_accuracy 0
Core_0_L1I_prefetch_coverage 0

Core_0_L1D_total_access 59893700
Core_0_L1D_total_hit 38244370
Core_0_L1D_total_miss 21649330
Core_0_L1D_total_MPKI 216.493
Core_0_L1D_total_miss_rate 0.361463
Core_0_L1D_demand_access 38275975
Core_0_L1D_demand_hit 19739497
Core_0_L1D_demand_miss 18536478
Core_0_L1D_demand_MPKI 185.365
Core_0_L1D_demand_miss_rate 0.484285
Core_0_L1D_load_access 38275975
Core_0_L1D_load_hit 19739497
Core_0_L1D_load_miss 18536478
Core_0_L1D_load_MPKI 185.365
Core_0_L1D_load_miss_rate 0.484285
Core_0_L1D_rfo_access 0
Core_0_L1D_rfo_hit 0
Core_0_L1D_rfo_miss 0
Core_0_L1D_rfo_MPKI 0
Core_0_L1D_rfo_miss_rate 0
Core_0_L1D_prefetch_access 21166011
Core_0_L1D_prefetch_hit 18100733
Core_0_L1D_prefetch_miss 3065278
Core_0_L1D_prefetch_MPKI 30.6528
Core_0_L1D_prefetch_miss_rate 0.144821
Core_0_L1D_writeback_access 451714
Core_0_L1D_writeback_hit 404140
Core_0_L1D_writeback_miss 47574
Core_0_L1D_writeback_MPKI 0.47574
Core_0_L1D_writeback_miss_rate 0.105319
Core_0_L1D_prefetch_requested 23000834
Core_0_L1D_prefetch_issued 21761773
Core_0_L1D_prefetch_useful 1198377
Core_0_L1D_prefetch_useless 39297
Core_0_L1D_prefetch_late 3933
Core_0_L1D_prefetch_fill 1233742
Core_0_L1D_prefetch_too_early 6749
Core_0_L1D_prefetch_too_early_among_fill 0.00547035
Core_0_L1D_prefetch_too_early_among_useless 0.171743
Core_0_L1D_prefetch_pollution_evict 73341
Core_0_L1D_prefetch_pollution_demand 73104
Core_0_L1D_cross_page_pf_translation_only_requested 782686
Core_0_L1D_cross_page_pf_translation_only_issued 595770
Core_0_L1D_cross_page_pf_translation_only_dropped 595770
Core_0_L1D_prefetch_pollution_among_prefetch_fill 0.059446
Core_0_L1D_prefetch_accuracy 0.055068
Core_0_L1D_prefetch_coverage 0.0607239

Core_0_L2C_total_access 25142163
Core_0_L2C_total_hit 6385073
Core_0_L2C_total_miss 18757090
Core_0_L2C_total_MPKI 187.571
Core_0_L2C_total_miss_rate 0.746041
Core_0_L2C_demand_access 18486018
Core_0_L2C_demand_hit 1071147
Core_0_L2C_demand_miss 17414871
Core_0_L2C_demand_MPKI 174.149
Core_0_L2C_demand_miss_rate 0.942056
Core_0_L2C_load_access 18474131
Core_0_L2C_load_hit 1061093
Core_0_L2C_load_miss 17413038
Core_0_L2C_load_MPKI 174.13
Core_0_L2C_load_miss_rate 0.942563
Core_0_L2C_rfo_access 11887
Core_0_L2C_rfo_hit 10054
Core_0_L2C_rfo_miss 1833
Core_0_L2C_rfo_MPKI 0.01833
Core_0_L2C_rfo_miss_rate 0.154202
Core_0_L2C_prefetch_access 6606236
Core_0_L2C_prefetch_hit 5264025
Core_0_L2C_prefetch_miss 1342211
Core_0_L2C_prefetch_MPKI 13.4221
Core_0_L2C_prefetch_miss_rate 0.203173
Core_0_L2C_writeback_access 49909
Core_0_L2C_writeback_hit 49901
Core_0_L2C_writeback_miss 8
Core_0_L2C_writeback_MPKI 8e-05
Core_0_L2C_writeback_miss_rate 0.000160292
Core_0_L2C_prefetch_requested 3543391
Core_0_L2C_prefetch_issued 3542866
Core_0_L2C_prefetch_useful 1030288
Core_0_L2C_prefetch_useless 50127
Core_0_L2C_prefetch_late 2271
Core_0_L2C_prefetch_fill 1304230
Core_0_L2C_prefetch_too_early 22075
Core_0_L2C_prefetch_too_early_among_fill 0.0169257
Core_0_L2C_prefetch_too_early_among_useless 0.440381
Core_0_L2C_prefetch_pollution_evict 300116
Core_0_L2C_prefetch_pollution_demand 299888
Core_0_L2C_prefetch_pollution_among_prefetch_fill 0.23011
Core_0_L2C_prefetch_accuracy 0.290806
Core_0_L2C_prefetch_coverage 0.0558568

Core_0_LLC_total_access 18747538
Core_0_LLC_total_hit 3795169
Core_0_LLC_total_miss 14952369
Core_0_LLC_total_MPKI 149.524
Core_0_LLC_total_miss_rate 0.797564
Core_0_LLC_demand_access 17411673
Core_0_LLC_demand_hit 3780896
Core_0_LLC_demand_miss 13630777
Core_0_LLC_demand_MPKI 136.308
Core_0_LLC_demand_miss_rate 0.782853
Core_0_LLC_load_access 17409840
Core_0_LLC_load_hit 3779068
Core_0_LLC_load_miss 13630772
Core_0_LLC_load_MPKI 136.308
Core_0_LLC_load_miss_rate 0.782935
Core_0_LLC_rfo_access 1833
Core_0_LLC_rfo_hit 1828
Core_0_LLC_rfo_miss 5
Core_0_LLC_rfo_MPKI 5e-05
Core_0_LLC_rfo_miss_rate 0.00272777
Core_0_LLC_prefetch_access 1307932
Core_0_LLC_prefetch_hit 5959
Core_0_LLC_prefetch_miss 1301973
Core_0_LLC_prefetch_MPKI 13.0197
Core_0_LLC_prefetch_miss_rate 0.995444
Core_0_LLC_writeback_access 27933
Core_0_LLC_writeback_hit 8314
Core_0_LLC_writeback_miss 19619
Core_0_LLC_writeback_MPKI 0.19619
Core_0_LLC_writeback_miss_rate 0.702359
Core_0_LLC_prefetch_requested 0
Core_0_LLC_prefetch_issued 0
Core_0_LLC_prefetch_useful 0
Core_0_LLC_prefetch_useless 0
Core_0_LLC_prefetch_late 0
Core_0_LLC_prefetch_fill 1301771
Core_0_LLC_prefetch_too_early 0
Core_0_LLC_prefetch_too_early_among_fill 0
Core_0_LLC_prefetch_too_early_among_useless 0
Core_0_LLC_prefetch_pollution_evict 538521
Core_0_LLC_prefetch_pollution_demand 538521
Core_0_LLC_prefetch_pollution_among_prefetch_fill 0.413683
Core_0_LLC_prefetch_accuracy 0
Core_0_LLC_prefetch_coverage 0

[DRAM Statistics]
Channel_0_RQ_row_buffer_hit 34715
Channel_0_RQ_row_buffer_miss 15009012
Channel_0_WQ_row_buffer_hit 4930
Channel_0_WQ_row_buffer_miss 19835
Channel_0_WQ_full 0
Channel_0_dbus_congested 3104663
DRAM_total_RQ_row_buffer_hit 34715
DRAM_total_RQ_row_buffer_miss 15009012
DRAM_total_WQ_row_buffer_hit 4930
DRAM_total_WQ_row_buffer_miss 19835
DRAM_total_WQ_full 0
DRAM_total_dbus_congested 3104663
DRAM_avg_congested_cycle 13.8393

====== DRAM_RQ_TRAFFIC ========
DRAM_RQ_READ_TRAFFIC_BREAKDOWN:
data_demand_read.count = 13630772
data_demand_read.share = 90.61%

inst_demand_read.count = 0
inst_demand_read.share = 0.00%

cache_inst_prefetch.count = 0
cache_inst_prefetch.share = 0.00%

cache_data_prefetch.count = 1301776
cache_data_prefetch.share = 8.65%

stlb_data_demand.count = 108462
stlb_data_demand.share = 0.72%

stlb_inst_demand.count = 0
stlb_inst_demand.share = 0.00%

stlb_l1i_pref.count = 0
stlb_l1i_pref.share = 0.00%

stlb_l1d_pref.count = 2717
stlb_l1d_pref.share = 0.02%

DRAM_RQ_READ_TRAFFIC_SUMMARY:
cache_demand.count = 13630772
cache_demand.share = 90.61%

cache_prefetch.count = 1301776
cache_prefetch.share = 8.65%

stlb_demand.count = 108462
stlb_demand.share = 0.72%

stlb_prefetch.count = 2717
stlb_prefetch.share = 0.02%

DRAM_RQ_READ_TRAFFIC_DEBUG:
total_classified_read.count = 15043727
unclassified_read.count = 0
total_read_with_other.count = 15043727

classified_plus_unclassified_check.count = 15043727
dram_rq_read_total_observed.count = 15043727
dram_rq_read_total_observed.per_1K_instructions = 150.437

STLB_MISS_PTW_DRAM_TOUCH_BREAKDOWN:
stlb_miss_total.count = 15722629

stlb_miss_touch_dram.count = 111158
stlb_miss_touch_dram.share = 0.71%

stlb_miss_no_dram_touch.count = 15611471
stlb_miss_no_dram_touch.share = 99.29%

STLB_MISS_PTW_DRAM_TOUCH_DEBUG:
stlb_miss_touch_plus_no_touch.count = 15722629
stlb_miss_total_check.count = 15722629

======STLB miss causes ========
Core_0_STLB_miss_cause_breakdown
Core_0_STLB_cause_Demand_Data_miss 15700007
Core_0_STLB_cause_Demand_Data_miss_rate 0.92082
Core_0_STLB_cause_Demand_Instruction_miss 0
Core_0_STLB_cause_Demand_Instruction_miss_rate 0
Core_0_STLB_cause_L1D_Prefetch_miss 22622
Core_0_STLB_cause_L1D_Prefetch_miss_rate 0.0013268
Core_0_STLB_cause_L1D_Prefetch_Same_Page_miss 4
Core_0_STLB_cause_L1D_Prefetch_Same_Page_miss_rate 2.34604e-07
Core_0_STLB_cause_L1D_Prefetch_Cross_Page_miss 22618
Core_0_STLB_cause_L1D_Prefetch_Cross_Page_miss_rate 0.00132657
Core_0_STLB_cause_L1I_Prefetch_miss 0
Core_0_STLB_cause_L1I_Prefetch_miss_rate 0
Core_0_STLB_cause_Other_miss 0
Core_0_STLB_cause_Other_miss_rate 0
Core_0_STLB_Demand_miss 15700007
Core_0_STLB_Demand_miss_rate 0.92082
Core_0_STLB_L1D_Prefetch_miss 22622
Core_0_STLB_L1D_Prefetch_miss_rate 0.0013268
Core_0_STLB_Other_miss 0
Core_0_STLB_Other_miss_rate 0

========== vBerti-TLB Cross-page Flow Stats ==========

Core_0_vBerti_Requested 23000834
Core_0_vBerti_Cross_page_prefetch_in_Requested 782686
Core_0_vBerti_Same_page_prefetch_in_Requested 22218148
Core_0_vBerti_Cross_page_prefetch_of_Requested 0.0340286
Core_0_vBerti_Issued 21761773
Core_0_vBerti_InPQ_Same_page_prefetch 21166003
Core_0_vBerti_InPQ_Cross_page_prefetch 595770
Core_0_vBerti_PQ_Drop_Rate 0.0538703
Core_0_vBerti_InPQ_Cross_page_prefetch_of_Requested 0.0259021
Core_0_vBerti_Cross_page_PQ_Drop_rate 0.238814
Core_0_vBerti_Cross_page_prefetch_of_Issued 0.0273769
Core_0_CP_PF_PQFULL_drop 186916
Core_0_CP_PF_PQFULL_TLB_rescue_enqueued 0
Core_0_CP_PF_PQFULL_TLB_rescue_issued 0
Core_0_CP_PF_PQFULL_TLB_rescue_translated 0

========= DTLB_vBerti Prefetch Stats =========
Core_0_DTLB_demand_access 38628571
Core_0_DTLB_demand_hit 21589189
Core_0_DTLB_demand_miss 17039382
Core_0_DTLB_demand_mshr_merge 19767
Core_0_DTLB_demand_fill 17019772
Core_0_DTLB_demand_miss_rate 0.441108
Core_0_DTLB_demand_mpki 170.394
Core_0_DTLB_vberti_prefetch_access 20223281
Core_0_DTLB_vberti_prefetch_hit 20161581
Core_0_DTLB_vberti_prefetch_miss 61700
Core_0_DTLB_vberti_prefetch_mshr_merge 31295
Core_0_DTLB_vberti_prefetch_fill 30256
Core_0_DTLB_vberti_prefetch_miss_rate 0.00305094
Core_0_DTLB_vberti_prefetch_mpki 0.617

=== DTLB_vBerti Same/Cross-page Prefetch Stats ===
Core_0_DTLB_vberti_same_page_prefetch 19727465
Core_0_DTLB_vberti_same_page_prefetch_hit 19727458
Core_0_DTLB_vberti_same_page_prefetch_miss 7
Core_0_DTLB_vberti_same_page_prefetch_mshr_merge 3
Core_0_DTLB_vberti_same_page_prefetch_fill 4
Core_0_DTLB_vberti_same_page_prefetch_miss_rate 3.54835e-07
Core_0_DTLB_vberti_same_page_prefetch_mpki 7e-05
Core_0_DTLB_vberti_cross_page_prefetch 495816
Core_0_DTLB_vberti_cross_page_prefetch_hit 434123
Core_0_DTLB_vberti_cross_page_prefetch_miss 61693
Core_0_DTLB_vberti_cross_page_prefetch_mshr_merge 31292
Core_0_DTLB_vberti_cross_page_prefetch_fill 30252
Core_0_DTLB_vberti_cross_page_prefetch_miss_rate 0.124427
Core_0_DTLB_vberti_cross_page_prefetch_mpki 0.61693
Core_0_DTLB_same_page_prefetch_miss_rate 3.54835e-07
Core_0_DTLB_same_page_prefetch_mpki 7e-05
Core_0_DTLB_cross_page_prefetch_miss_rate 0.124427
Core_0_DTLB_cross_page_prefetch_mpki 0.61693
Core_0_DTLB_cross_page_prefetch_issued 495816
Core_0_DTLB_cross_page_prefetch_lookups 495816
Core_0_DTLB_cross_page_prefetch_useful 20882
Core_0_DTLB_cross_page_prefetch_useless 9519
Core_0_DTLB_cross_page_prefetch_late 149
Core_0_DTLB_cross_page_prefetch_too_early 845
Core_0_DTLB_cross_page_prefetch_too_early_among_fill 0.027932
Core_0_DTLB_cross_page_prefetch_too_early_among_useless 0.0887698
Core_0_DTLB_cross_page_prefetch_pollution_evict 19201
Core_0_DTLB_cross_page_prefetch_pollution_demand 19182
Core_0_DTLB_cross_page_prefetch_pollution_among_prefetch_fill 0.634702
Core_0_DTLB_cross_page_prefetch_accuracy 0.0421164
Core_0_DTLB_cross_page_prefetch_coverage 0.00122401

========= STLB_vBerti Prefetch Stats =========
Core_0_STLB_demand_access 17019616
Core_0_STLB_demand_hit 1319609
Core_0_STLB_demand_miss 15700007
Core_0_STLB_demand_mshr_merge 0
Core_0_STLB_demand_fill 15700014
Core_0_STLB_demand_miss_rate 0.922465
Core_0_STLB_demand_mpki 157
Core_0_STLB_vberti_prefetch_access 30405
Core_0_STLB_vberti_prefetch_hit 7783
Core_0_STLB_vberti_prefetch_miss 22622
Core_0_STLB_vberti_prefetch_mshr_merge 0
Core_0_STLB_vberti_prefetch_fill 22622
Core_0_STLB_vberti_prefetch_miss_rate 0.744022
Core_0_STLB_vberti_prefetch_mpki 0.22622

=== STLB_vBerti Same/Cross-page Prefetch Stats ===
Core_0_STLB_vberti_same_page_prefetch 4
Core_0_STLB_vberti_same_page_prefetch_hit 0
Core_0_STLB_vberti_same_page_prefetch_miss 4
Core_0_STLB_vberti_same_page_prefetch_mshr_merge 0
Core_0_STLB_vberti_same_page_prefetch_fill 4
Core_0_STLB_vberti_same_page_prefetch_miss_rate 1
Core_0_STLB_vberti_same_page_prefetch_mpki 4e-05
Core_0_STLB_vberti_cross_page_prefetch 30401
Core_0_STLB_vberti_cross_page_prefetch_hit 7783
Core_0_STLB_vberti_cross_page_prefetch_miss 22618
Core_0_STLB_vberti_cross_page_prefetch_mshr_merge 0
Core_0_STLB_vberti_cross_page_prefetch_fill 22618
Core_0_STLB_vberti_cross_page_prefetch_miss_rate 0.743989
Core_0_STLB_vberti_cross_page_prefetch_mpki 0.22618
Core_0_STLB_same_page_prefetch_miss_rate 1
Core_0_STLB_same_page_prefetch_mpki 4e-05
Core_0_STLB_cross_page_prefetch_miss_rate 0.743989
Core_0_STLB_cross_page_prefetch_mpki 0.22618
Core_0_STLB_cross_page_prefetch_issued 30401
Core_0_STLB_cross_page_prefetch_lookups 30401
Core_0_STLB_cross_page_prefetch_useful 2978
Core_0_STLB_cross_page_prefetch_useless 19640
Core_0_STLB_cross_page_prefetch_late 0
Core_0_STLB_cross_page_prefetch_too_early 2662
Core_0_STLB_cross_page_prefetch_too_early_among_fill 0.117694
Core_0_STLB_cross_page_prefetch_too_early_among_useless 0.13554
Core_0_STLB_cross_page_prefetch_pollution_evict 22452
Core_0_STLB_cross_page_prefetch_pollution_demand 22439
Core_0_STLB_cross_page_prefetch_pollution_among_prefetch_fill 0.992661
Core_0_STLB_cross_page_prefetch_accuracy 0.0979573
Core_0_STLB_cross_page_prefetch_coverage 0.000189645

========= STLB Cross-page Prefetch Buffer Stats =========
Core_0_STLB_raw_demand_miss 15700007
Core_0_CP_PB_insert 0
Core_0_CP_PB_demand_hit 0
Core_0_STLB_PB_demand_miss 15700007
Core_0_CP_PB_coverage 0
Core_0_STLB_raw_demand_mpki 157
Core_0_STLB_PB_demand_mpki 157
Core_0_CP_PB_demand_hit_mpki 0

Core_0_TLB_demand_miss_rate 0.406435
Core_0_TLB_demand_mpki 157
Core_0_TLB_same_page_prefetch_miss_rate 2.02763e-07
Core_0_TLB_same_page_prefetch_mpki 4e-05
Core_0_TLB_cross_page_prefetch_miss_rate 0.0456177
Core_0_TLB_cross_page_prefetch_mpki 0.22618
Core_0_TLB_cross_page_prefetch_issued 495816
Core_0_TLB_cross_page_prefetch_lookups 495816
Core_0_TLB_cross_page_prefetch_useful 20731
Core_0_TLB_cross_page_prefetch_useless 9510
Core_0_TLB_cross_page_prefetch_late 135
Core_0_TLB_cross_page_prefetch_too_early 838
Core_0_TLB_cross_page_prefetch_too_early_among_fill 0.0158502
Core_0_TLB_cross_page_prefetch_too_early_among_useless 0.0881178
Core_0_TLB_cross_page_prefetch_accuracy 0.0418119
Core_0_TLB_cross_page_prefetch_coverage 0.0013187
====== vBerti internal metric ========
Core_0_vBerti_end_to_end_issued 21166003
Core_0_vBerti_end_to_end_useful 176675
Core_0_vBerti_end_to_end_late 4203
Core_0_vBerti_end_to_end_accuracy 0.00834711
Core_0_vBerti_end_to_end_timely_accuracy 0.00814854
BERTI TO_L1: 19126488 TO_L2: 3091660 TO_L2_BC_MSHR: 10240
BERTI AVG_LAT: 133.464 NUM_TRACK_LATENCY: 19678428 NUM_CANT_TRACK_LATENCY: 0
BERTI CROSS_PAGE 782686 NO_CROSS_PAGE: 22218148
BERTI FOUND_BERTI: 37968659 NO_FOUND_BERTI: 759526
BERTI AVERAGE_ISSUED: 1.14968
