[VMEM] WARNING: physical memory size is smaller than virtual memory size.

*** ChampSim Multicore Out-of-Order Simulator ***
Warmup Instructions: 50000000
Simulation Instructions: 100000000
Number of CPUs: 1
Page size: 4096
Core 0: /data0/tzh/champsim_traces/QMM/srv_10_new.xz
VBerti Prefetcher
BERTI HASH ENTANGLING
BERTI IP MASK ffff
Off-chip DRAM Size: 16 GiB Channels: 1 Width: 64-bit Data Rate: 3205 MT/s
[BTB] WARNING: target of return is a lower address than the corresponding call. This is usually a problem with your trace.
[BTB] WARNING: target of return is a lower address than the corresponding call. This is usually a problem with your trace.
[BTB] WARNING: target of return is a lower address than the corresponding call. This is usually a problem with your trace.
[BTB] WARNING: target of return is a lower address than the corresponding call. This is usually a problem with your trace.
[BTB] WARNING: target of return is a lower address than the corresponding call. This is usually a problem with your trace.
[BTB] WARNING: target of return is a lower address than the corresponding call. This is usually a problem with your trace.
[BTB] WARNING: target of return is a lower address than the corresponding call. This is usually a problem with your trace.
[BTB] WARNING: target of return is a lower address than the corresponding call. This is usually a problem with your trace.
[BTB] WARNING: target of return is a lower address than the corresponding call. This is usually a problem with your trace.
[BTB] WARNING: target of return is a lower address than the corresponding call. This is usually a problem with your trace.
*** Reached end of trace: (0, "/data0/tzh/champsim_traces/QMM/srv_10_new.xz")
Warmup halting CPU 0 at instruction 50000004 cycle 10800869 for remainder of phase
Warmup finished CPU 0 instructions: 50000004 cycles: 10800869 cumulative IPC: 4.629 (Simulation time: 00 hr 02 min 50 sec)
Warmup complete CPU 0 instructions: 50000004 cycles: 10800869 cumulative IPC: 4.629 (Simulation time: 00 hr 02 min 50 sec)
*** Reached end of trace: (0, "/data0/tzh/champsim_traces/QMM/srv_10_new.xz")
*** Reached end of trace: (0, "/data0/tzh/champsim_traces/QMM/srv_10_new.xz")
*** Reached end of trace: (0, "/data0/tzh/champsim_traces/QMM/srv_10_new.xz")
Simulation finished CPU 0 instructions: 100000000 cycles: 59454025 cumulative IPC: 1.682 (Simulation time: 00 hr 11 min 49 sec)
Simulation complete CPU 0 instructions: 100000000 cycles: 59454025 cumulative IPC: 1.682 (Simulation time: 00 hr 11 min 49 sec)

ChampSim completed all CPUs

=== Simulation ===
CPU 0 runs /data0/tzh/champsim_traces/QMM/srv_10_new.xz

Region of Interest Statistics

CPU 0 cumulative IPC: 1.682 instructions: 100000000 cycles: 59454025
CPU 0 Branch Prediction Accuracy: 97.54% MPKI: 4.438 Average ROB Occupancy at Mispredict: 97.72
Branch type MPKI
BRANCH_DIRECT_JUMP: 0.3738
BRANCH_INDIRECT: 0.3236
BRANCH_CONDITIONAL: 2.276
BRANCH_DIRECT_CALL: 0.7157
BRANCH_INDIRECT_CALL: 0.1731
BRANCH_RETURN: 0.5764

cpu0->cpu0_STLB TOTAL        ACCESS:    1620526 HIT:    1387911 MISS:     232615 MSHR_MERGE:          0
cpu0->cpu0_STLB LOAD         ACCESS:    1620526 HIT:    1387911 MISS:     232615 MSHR_MERGE:          0
cpu0->cpu0_STLB RFO          ACCESS:          0 HIT:          0 MISS:          0 MSHR_MERGE:          0
cpu0->cpu0_STLB PREFETCH     ACCESS:          0 HIT:          0 MISS:          0 MSHR_MERGE:          0
cpu0->cpu0_STLB WRITE        ACCESS:          0 HIT:          0 MISS:          0 MSHR_MERGE:          0
cpu0->cpu0_STLB TRANSLATION  ACCESS:          0 HIT:          0 MISS:          0 MSHR_MERGE:          0
cpu0->cpu0_STLB PREFETCH REQUESTED:          0 ISSUED:          0 USEFUL:          0 USELESS:          0 LATE:          0 TOO_EARLY:          0
cpu0->cpu0_STLB AVERAGE MISS LATENCY: 29.19 cycles
cpu0->cpu0_L2C TOTAL        ACCESS:    4603828 HIT:    2538163 MISS:    2065665 MSHR_MERGE:       6125
cpu0->cpu0_L2C LOAD         ACCESS:    3642961 HIT:    1847605 MISS:    1795356 MSHR_MERGE:       2017
cpu0->cpu0_L2C RFO          ACCESS:     179734 HIT:      71989 MISS:     107745 MSHR_MERGE:          1
cpu0->cpu0_L2C PREFETCH     ACCESS:      62949 HIT:      31825 MISS:      31124 MSHR_MERGE:       4107
cpu0->cpu0_L2C WRITE        ACCESS:     522149 HIT:     520075 MISS:       2074 MSHR_MERGE:          0
cpu0->cpu0_L2C TRANSLATION  ACCESS:     196035 HIT:      66669 MISS:     129366 MSHR_MERGE:          0
cpu0->cpu0_L2C PREFETCH REQUESTED:      78110 ISSUED:      51304 USEFUL:      10684 USELESS:       8893 LATE:        414 TOO_EARLY:        465
cpu0->cpu0_L2C AVERAGE MISS LATENCY: 25.6 cycles
cpu0->cpu0_L1I TOTAL        ACCESS:   15338367 HIT:   11322703 MISS:    4015664 MSHR_MERGE:    1494009
cpu0->cpu0_L1I LOAD         ACCESS:   15338367 HIT:   11322703 MISS:    4015664 MSHR_MERGE:    1494009
cpu0->cpu0_L1I RFO          ACCESS:          0 HIT:          0 MISS:          0 MSHR_MERGE:          0
cpu0->cpu0_L1I PREFETCH     ACCESS:          0 HIT:          0 MISS:          0 MSHR_MERGE:          0
cpu0->cpu0_L1I WRITE        ACCESS:          0 HIT:          0 MISS:          0 MSHR_MERGE:          0
cpu0->cpu0_L1I TRANSLATION  ACCESS:          0 HIT:          0 MISS:          0 MSHR_MERGE:          0
cpu0->cpu0_L1I PREFETCH REQUESTED:          0 ISSUED:          0 USEFUL:          0 USELESS:          0 LATE:          0 TOO_EARLY:          0
cpu0->cpu0_L1I AVERAGE MISS LATENCY: 15.34 cycles
cpu0->cpu0_L1D TOTAL        ACCESS:   23662002 HIT:   21412399 MISS:    2249603 MSHR_MERGE:     739333
cpu0->cpu0_L1D LOAD         ACCESS:   13181028 HIT:   11667081 MISS:    1513947 MSHR_MERGE:     392617
cpu0->cpu0_L1D RFO          ACCESS:          0 HIT:          0 MISS:          0 MSHR_MERGE:          0
cpu0->cpu0_L1D PREFETCH     ACCESS:      25507 HIT:       9325 MISS:      16182 MSHR_MERGE:       3025
cpu0->cpu0_L1D WRITE        ACCESS:    9938799 HIT:    9419040 MISS:     519759 MSHR_MERGE:     340011
cpu0->cpu0_L1D TRANSLATION  ACCESS:     516668 HIT:     316953 MISS:     199715 MSHR_MERGE:       3680
cpu0->cpu0_L1D PREFETCH REQUESTED:     166138 ISSUED:      28643 USEFUL:       3201 USELESS:       1497 LATE:       2070 TOO_EARLY:          1
cpu0->cpu0_L1D AVERAGE MISS LATENCY: 30.7 cycles
cpu0->cpu0_ITLB TOTAL        ACCESS:   12942165 HIT:   11941361 MISS:    1000804 MSHR_MERGE:     619886
cpu0->cpu0_ITLB LOAD         ACCESS:   12942165 HIT:   11941361 MISS:    1000804 MSHR_MERGE:     619886
cpu0->cpu0_ITLB RFO          ACCESS:          0 HIT:          0 MISS:          0 MSHR_MERGE:          0
cpu0->cpu0_ITLB PREFETCH     ACCESS:          0 HIT:          0 MISS:          0 MSHR_MERGE:          0
cpu0->cpu0_ITLB WRITE        ACCESS:          0 HIT:          0 MISS:          0 MSHR_MERGE:          0
cpu0->cpu0_ITLB TRANSLATION  ACCESS:          0 HIT:          0 MISS:          0 MSHR_MERGE:          0
cpu0->cpu0_ITLB PREFETCH REQUESTED:          0 ISSUED:          0 USEFUL:          0 USELESS:          0 LATE:          0 TOO_EARLY:          0
cpu0->cpu0_ITLB AVERAGE MISS LATENCY: 10.96 cycles
cpu0->cpu0_DTLB TOTAL        ACCESS:   21833718 HIT:   20147737 MISS:    1685981 MSHR_MERGE:     446373
cpu0->cpu0_DTLB LOAD         ACCESS:   21833718 HIT:   20147737 MISS:    1685981 MSHR_MERGE:     446373
cpu0->cpu0_DTLB RFO          ACCESS:          0 HIT:          0 MISS:          0 MSHR_MERGE:          0
cpu0->cpu0_DTLB PREFETCH     ACCESS:          0 HIT:          0 MISS:          0 MSHR_MERGE:          0
cpu0->cpu0_DTLB WRITE        ACCESS:          0 HIT:          0 MISS:          0 MSHR_MERGE:          0
cpu0->cpu0_DTLB TRANSLATION  ACCESS:          0 HIT:          0 MISS:          0 MSHR_MERGE:          0
cpu0->cpu0_DTLB PREFETCH REQUESTED:          0 ISSUED:          0 USEFUL:          0 USELESS:          0 LATE:          0 TOO_EARLY:          0
cpu0->cpu0_DTLB AVERAGE MISS LATENCY: 8.849 cycles
cpu0->LLC TOTAL        ACCESS:    2370064 HIT:    2241312 MISS:     128752 MSHR_MERGE:          0
cpu0->LLC LOAD         ACCESS:    1793339 HIT:    1699686 MISS:      93653 MSHR_MERGE:          0
cpu0->LLC RFO          ACCESS:     107744 HIT:      85673 MISS:      22071 MSHR_MERGE:          0
cpu0->LLC PREFETCH     ACCESS:      27017 HIT:      19404 MISS:       7613 MSHR_MERGE:          0
cpu0->LLC WRITE        ACCESS:     312598 HIT:     308880 MISS:       3718 MSHR_MERGE:          0
cpu0->LLC TRANSLATION  ACCESS:     129366 HIT:     127669 MISS:       1697 MSHR_MERGE:          0
cpu0->LLC PREFETCH REQUESTED:          0 ISSUED:          0 USEFUL:          0 USELESS:          0 LATE:          0 TOO_EARLY:          0
cpu0->LLC AVERAGE MISS LATENCY: 177.4 cycles

DRAM Statistics

Channel 0 RQ ROW_BUFFER_HIT:       3508
  ROW_BUFFER_MISS:     121518
  AVG DBUS CONGESTED CYCLE: 15.58
Channel 0 WQ ROW_BUFFER_HIT:      20002
  ROW_BUFFER_MISS:      82109
  FULL:          0
Channel 0 REFRESHES ISSUED:       4954

[ROI Statistics]
[System Configuration]
num_cpus 1
cpu_freq 4000
fetch_width 6
decode_width 6
dispatch_width 6
execute_width 6
lq_width 2
sq_width 2
retire_width 6
scheduler_size 128
branch_mispredict_penalty 15
rob_size 352
lq_size 128
sq_size 72
ifetch_buffer_size 64
decode_buffer_size 32
dispatch_buffer_size 32
register_file_size 288
decode_latency 1
dispatch_latency 1
schedule_latency 1
execute_latency 1
page_size 4096
block_size 64
core_0_itlb_set 16
core_0_itlb_way 4
core_0_itlb_rq_size 16
core_0_itlb_wq_size 16
core_0_itlb_pq_size 0
core_0_itlb_mshr_size 8
core_0_itlb_hit_latency 1
core_0_itlb_fill_latency 1
core_0_itlb_max_tag_check 2
core_0_itlb_max_fill 2
core_0_dtlb_set 16
core_0_dtlb_way 4
core_0_dtlb_rq_size 16
core_0_dtlb_wq_size 16
core_0_dtlb_pq_size 0
core_0_dtlb_mshr_size 8
core_0_dtlb_hit_latency 1
core_0_dtlb_fill_latency 1
core_0_dtlb_max_tag_check 2
core_0_dtlb_max_fill 2
core_0_stlb_set 128
core_0_stlb_way 12
core_0_stlb_rq_size 32
core_0_stlb_wq_size 32
core_0_stlb_pq_size 0
core_0_stlb_mshr_size 16
core_0_stlb_hit_latency 4
core_0_stlb_fill_latency 4
core_0_stlb_max_tag_check 1
core_0_stlb_max_fill 1
core_0_l1i_set 64
core_0_l1i_way 8
core_0_l1i_rq_size 64
core_0_l1i_wq_size 64
core_0_l1i_pq_size 32
core_0_l1i_mshr_size 8
core_0_l1i_hit_latency 2
core_0_l1i_fill_latency 2
core_0_l1i_max_tag_check 2
core_0_l1i_max_fill 2
core_0_l1d_set 64
core_0_l1d_way 12
core_0_l1d_rq_size 64
core_0_l1d_wq_size 64
core_0_l1d_pq_size 8
core_0_l1d_mshr_size 16
core_0_l1d_hit_latency 2
core_0_l1d_fill_latency 3
core_0_l1d_max_tag_check 2
core_0_l1d_max_fill 2
core_0_l2c_set 1024
core_0_l2c_way 8
core_0_l2c_rq_size 32
core_0_l2c_wq_size 32
core_0_l2c_pq_size 16
core_0_l2c_mshr_size 32
core_0_l2c_hit_latency 5
core_0_l2c_fill_latency 5
core_0_l2c_max_tag_check 1
core_0_l2c_max_fill 1
llc_set 2048
llc_way 16
llc_rq_size 32
llc_wq_size 32
llc_pq_size 32
llc_mshr_size 64
llc_hit_latency 10
llc_fill_latency 10
llc_max_tag_check 1
llc_max_fill 1
dram_channels 1
dram_ranks 1
dram_bankgroups 8
dram_banks 4
dram_rows 65536
dram_columns 1024
dram_channel_width 8
dram_rq_size 64
dram_wq_size 64
dram_size 17179869184
core_0_itlb_prefetcher no
core_0_dtlb_prefetcher no
core_0_stlb_prefetcher no
core_0_l1i_prefetcher next_line
core_0_l1d_prefetcher vberti
core_0_l2c_prefetcher ip_stride
llc_prefetcher no
llc_replacement drrip

Core_0_instructions 100000000
Core_0_cycles 59454025
Core_0_IPC 1.68197
Core_0_branch_prediction_accuracy 97.5358
Core_0_branch_MPKI 4.43842
Core_0_average_ROB_occupancy_at_mispredict 97.7198

Core_0_ITLB_total_access 12942165
Core_0_ITLB_total_hit 11941361
Core_0_ITLB_total_miss 1000804
Core_0_ITLB_total_MPKI 10.008
Core_0_ITLB_total_miss_rate 0.0773289
Core_0_ITLB_demand_access 12942165
Core_0_ITLB_demand_hit 11941361
Core_0_ITLB_demand_miss 1000804
Core_0_ITLB_demand_MPKI 10.008
Core_0_ITLB_demand_miss_rate 0.0773289
Core_0_ITLB_load_access 12942165
Core_0_ITLB_load_hit 11941361
Core_0_ITLB_load_miss 1000804
Core_0_ITLB_load_MPKI 10.008
Core_0_ITLB_load_miss_rate 0.0773289
Core_0_ITLB_rfo_access 0
Core_0_ITLB_rfo_hit 0
Core_0_ITLB_rfo_miss 0
Core_0_ITLB_rfo_MPKI 0
Core_0_ITLB_rfo_miss_rate 0
Core_0_ITLB_prefetch_access 0
Core_0_ITLB_prefetch_hit 0
Core_0_ITLB_prefetch_miss 0
Core_0_ITLB_prefetch_MPKI 0
Core_0_ITLB_prefetch_miss_rate 0
Core_0_ITLB_writeback_access 0
Core_0_ITLB_writeback_hit 0
Core_0_ITLB_writeback_miss 0
Core_0_ITLB_writeback_MPKI 0
Core_0_ITLB_writeback_miss_rate 0
Core_0_ITLB_prefetch_requested 0
Core_0_ITLB_prefetch_issued 0
Core_0_ITLB_prefetch_useful 0
Core_0_ITLB_prefetch_useless 0
Core_0_ITLB_prefetch_late 0
Core_0_ITLB_prefetch_fill 0
Core_0_ITLB_prefetch_too_early 0
Core_0_ITLB_prefetch_too_early_among_fill 0
Core_0_ITLB_prefetch_too_early_among_useless 0
Core_0_ITLB_prefetch_pollution_evict 0
Core_0_ITLB_prefetch_pollution_demand 0
Core_0_ITLB_prefetch_pollution_among_prefetch_fill 0
Core_0_ITLB_prefetch_accuracy 0
Core_0_ITLB_prefetch_coverage 0

Core_0_DTLB_total_access 21833718
Core_0_DTLB_total_hit 20147737
Core_0_DTLB_total_miss 1685981
Core_0_DTLB_total_MPKI 16.8598
Core_0_DTLB_total_miss_rate 0.0772191
Core_0_DTLB_demand_access 21833718
Core_0_DTLB_demand_hit 20147737
Core_0_DTLB_demand_miss 1685981
Core_0_DTLB_demand_MPKI 16.8598
Core_0_DTLB_demand_miss_rate 0.0772191
Core_0_DTLB_load_access 21833718
Core_0_DTLB_load_hit 20147737
Core_0_DTLB_load_miss 1685981
Core_0_DTLB_load_MPKI 16.8598
Core_0_DTLB_load_miss_rate 0.0772191
Core_0_DTLB_rfo_access 0
Core_0_DTLB_rfo_hit 0
Core_0_DTLB_rfo_miss 0
Core_0_DTLB_rfo_MPKI 0
Core_0_DTLB_rfo_miss_rate 0
Core_0_DTLB_prefetch_access 0
Core_0_DTLB_prefetch_hit 0
Core_0_DTLB_prefetch_miss 0
Core_0_DTLB_prefetch_MPKI 0
Core_0_DTLB_prefetch_miss_rate 0
Core_0_DTLB_writeback_access 0
Core_0_DTLB_writeback_hit 0
Core_0_DTLB_writeback_miss 0
Core_0_DTLB_writeback_MPKI 0
Core_0_DTLB_writeback_miss_rate 0
Core_0_DTLB_prefetch_requested 0
Core_0_DTLB_prefetch_issued 0
Core_0_DTLB_prefetch_useful 0
Core_0_DTLB_prefetch_useless 0
Core_0_DTLB_prefetch_late 0
Core_0_DTLB_prefetch_fill 0
Core_0_DTLB_prefetch_too_early 0
Core_0_DTLB_prefetch_too_early_among_fill 0
Core_0_DTLB_prefetch_too_early_among_useless 0
Core_0_DTLB_prefetch_pollution_evict 0
Core_0_DTLB_prefetch_pollution_demand 0
Core_0_DTLB_prefetch_pollution_among_prefetch_fill 0
Core_0_DTLB_prefetch_accuracy 0
Core_0_DTLB_prefetch_coverage 0

Core_0_STLB_total_access 1620526
Core_0_STLB_total_hit 1387911
Core_0_STLB_total_miss 232615
Core_0_STLB_total_MPKI 2.32615
Core_0_STLB_total_miss_rate 0.143543
Core_0_STLB_demand_access 1620526
Core_0_STLB_demand_hit 1387911
Core_0_STLB_demand_miss 232615
Core_0_STLB_demand_MPKI 2.32615
Core_0_STLB_demand_miss_rate 0.143543
Core_0_STLB_load_access 1620526
Core_0_STLB_load_hit 1387911
Core_0_STLB_load_miss 232615
Core_0_STLB_load_MPKI 2.32615
Core_0_STLB_load_miss_rate 0.143543
Core_0_STLB_rfo_access 0
Core_0_STLB_rfo_hit 0
Core_0_STLB_rfo_miss 0
Core_0_STLB_rfo_MPKI 0
Core_0_STLB_rfo_miss_rate 0
Core_0_STLB_prefetch_access 0
Core_0_STLB_prefetch_hit 0
Core_0_STLB_prefetch_miss 0
Core_0_STLB_prefetch_MPKI 0
Core_0_STLB_prefetch_miss_rate 0
Core_0_STLB_writeback_access 0
Core_0_STLB_writeback_hit 0
Core_0_STLB_writeback_miss 0
Core_0_STLB_writeback_MPKI 0
Core_0_STLB_writeback_miss_rate 0
Core_0_STLB_prefetch_requested 0
Core_0_STLB_prefetch_issued 0
Core_0_STLB_prefetch_useful 0
Core_0_STLB_prefetch_useless 0
Core_0_STLB_prefetch_late 0
Core_0_STLB_prefetch_fill 0
Core_0_STLB_prefetch_too_early 0
Core_0_STLB_prefetch_too_early_among_fill 0
Core_0_STLB_prefetch_too_early_among_useless 0
Core_0_STLB_prefetch_pollution_evict 0
Core_0_STLB_prefetch_pollution_demand 0
Core_0_STLB_prefetch_pollution_among_prefetch_fill 0
Core_0_STLB_prefetch_accuracy 0
Core_0_STLB_prefetch_coverage 0

Core_0_L1I_total_access 15338367
Core_0_L1I_total_hit 11322703
Core_0_L1I_total_miss 4015664
Core_0_L1I_total_MPKI 40.1566
Core_0_L1I_total_miss_rate 0.261805
Core_0_L1I_demand_access 15338367
Core_0_L1I_demand_hit 11322703
Core_0_L1I_demand_miss 4015664
Core_0_L1I_demand_MPKI 40.1566
Core_0_L1I_demand_miss_rate 0.261805
Core_0_L1I_load_access 15338367
Core_0_L1I_load_hit 11322703
Core_0_L1I_load_miss 4015664
Core_0_L1I_load_MPKI 40.1566
Core_0_L1I_load_miss_rate 0.261805
Core_0_L1I_rfo_access 0
Core_0_L1I_rfo_hit 0
Core_0_L1I_rfo_miss 0
Core_0_L1I_rfo_MPKI 0
Core_0_L1I_rfo_miss_rate 0
Core_0_L1I_prefetch_access 0
Core_0_L1I_prefetch_hit 0
Core_0_L1I_prefetch_miss 0
Core_0_L1I_prefetch_MPKI 0
Core_0_L1I_prefetch_miss_rate 0
Core_0_L1I_writeback_access 0
Core_0_L1I_writeback_hit 0
Core_0_L1I_writeback_miss 0
Core_0_L1I_writeback_MPKI 0
Core_0_L1I_writeback_miss_rate 0
Core_0_L1I_prefetch_requested 0
Core_0_L1I_prefetch_issued 0
Core_0_L1I_prefetch_useful 0
Core_0_L1I_prefetch_useless 0
Core_0_L1I_prefetch_late 0
Core_0_L1I_prefetch_fill 0
Core_0_L1I_prefetch_too_early 0
Core_0_L1I_prefetch_too_early_among_fill 0
Core_0_L1I_prefetch_too_early_among_useless 0
Core_0_L1I_prefetch_pollution_evict 0
Core_0_L1I_prefetch_pollution_demand 0
Core_0_L1I_prefetch_pollution_among_prefetch_fill 0
Core_0_L1I_prefetch_accuracy 0
Core_0_L1I_prefetch_coverage 0

Core_0_L1D_total_access 23145334
Core_0_L1D_total_hit 21095446
Core_0_L1D_total_miss 2049888
Core_0_L1D_total_MPKI 20.4989
Core_0_L1D_total_miss_rate 0.0885659
Core_0_L1D_demand_access 13181028
Core_0_L1D_demand_hit 11667081
Core_0_L1D_demand_miss 1513947
Core_0_L1D_demand_MPKI 15.1395
Core_0_L1D_demand_miss_rate 0.114858
Core_0_L1D_load_access 13181028
Core_0_L1D_load_hit 11667081
Core_0_L1D_load_miss 1513947
Core_0_L1D_load_MPKI 15.1395
Core_0_L1D_load_miss_rate 0.114858
Core_0_L1D_rfo_access 0
Core_0_L1D_rfo_hit 0
Core_0_L1D_rfo_miss 0
Core_0_L1D_rfo_MPKI 0
Core_0_L1D_rfo_miss_rate 0
Core_0_L1D_prefetch_access 25507
Core_0_L1D_prefetch_hit 9325
Core_0_L1D_prefetch_miss 16182
Core_0_L1D_prefetch_MPKI 0.16182
Core_0_L1D_prefetch_miss_rate 0.634414
Core_0_L1D_writeback_access 9938799
Core_0_L1D_writeback_hit 9419040
Core_0_L1D_writeback_miss 519759
Core_0_L1D_writeback_MPKI 5.19759
Core_0_L1D_writeback_miss_rate 0.052296
Core_0_L1D_prefetch_requested 166138
Core_0_L1D_prefetch_issued 28643
Core_0_L1D_prefetch_useful 3201
Core_0_L1D_prefetch_useless 1497
Core_0_L1D_prefetch_late 2070
Core_0_L1D_prefetch_fill 2628
Core_0_L1D_prefetch_too_early 1
Core_0_L1D_prefetch_too_early_among_fill 0.000380518
Core_0_L1D_prefetch_too_early_among_useless 0.000668003
Core_0_L1D_prefetch_pollution_evict 1942
Core_0_L1D_prefetch_pollution_demand 1942
Core_0_L1D_cross_page_pf_translation_only_requested 23158
Core_0_L1D_cross_page_pf_translation_only_issued 3136
Core_0_L1D_cross_page_pf_translation_only_dropped 3136
Core_0_L1D_prefetch_pollution_among_prefetch_fill 0.738965
Core_0_L1D_prefetch_accuracy 0.111755
Core_0_L1D_prefetch_coverage 0.00210988

Core_0_L2C_total_access 4407793
Core_0_L2C_total_hit 2471494
Core_0_L2C_total_miss 1936299
Core_0_L2C_total_MPKI 19.363
Core_0_L2C_total_miss_rate 0.43929
Core_0_L2C_demand_access 3822695
Core_0_L2C_demand_hit 1919594
Core_0_L2C_demand_miss 1903101
Core_0_L2C_demand_MPKI 19.031
Core_0_L2C_demand_miss_rate 0.497843
Core_0_L2C_load_access 3642961
Core_0_L2C_load_hit 1847605
Core_0_L2C_load_miss 1795356
Core_0_L2C_load_MPKI 17.9536
Core_0_L2C_load_miss_rate 0.492829
Core_0_L2C_rfo_access 179734
Core_0_L2C_rfo_hit 71989
Core_0_L2C_rfo_miss 107745
Core_0_L2C_rfo_MPKI 1.07745
Core_0_L2C_rfo_miss_rate 0.599469
Core_0_L2C_prefetch_access 62949
Core_0_L2C_prefetch_hit 31825
Core_0_L2C_prefetch_miss 31124
Core_0_L2C_prefetch_MPKI 0.31124
Core_0_L2C_prefetch_miss_rate 0.494432
Core_0_L2C_writeback_access 522149
Core_0_L2C_writeback_hit 520075
Core_0_L2C_writeback_miss 2074
Core_0_L2C_writeback_MPKI 0.02074
Core_0_L2C_writeback_miss_rate 0.00397205
Core_0_L2C_prefetch_requested 78110
Core_0_L2C_prefetch_issued 51304
Core_0_L2C_prefetch_useful 10684
Core_0_L2C_prefetch_useless 8893
Core_0_L2C_prefetch_late 414
Core_0_L2C_prefetch_fill 24999
Core_0_L2C_prefetch_too_early 465
Core_0_L2C_prefetch_too_early_among_fill 0.0186007
Core_0_L2C_prefetch_too_early_among_useless 0.0522883
Core_0_L2C_prefetch_pollution_evict 22461
Core_0_L2C_prefetch_pollution_demand 22439
Core_0_L2C_prefetch_pollution_among_prefetch_fill 0.898476
Core_0_L2C_prefetch_accuracy 0.208249
Core_0_L2C_prefetch_coverage 0.00558265

Core_0_LLC_total_access 2240698
Core_0_LLC_total_hit 2113643
Core_0_LLC_total_miss 127055
Core_0_LLC_total_MPKI 1.27055
Core_0_LLC_total_miss_rate 0.0567033
Core_0_LLC_demand_access 1901083
Core_0_LLC_demand_hit 1785359
Core_0_LLC_demand_miss 115724
Core_0_LLC_demand_MPKI 1.15724
Core_0_LLC_demand_miss_rate 0.0608727
Core_0_LLC_load_access 1793339
Core_0_LLC_load_hit 1699686
Core_0_LLC_load_miss 93653
Core_0_LLC_load_MPKI 0.93653
Core_0_LLC_load_miss_rate 0.0522227
Core_0_LLC_rfo_access 107744
Core_0_LLC_rfo_hit 85673
Core_0_LLC_rfo_miss 22071
Core_0_LLC_rfo_MPKI 0.22071
Core_0_LLC_rfo_miss_rate 0.204847
Core_0_LLC_prefetch_access 27017
Core_0_LLC_prefetch_hit 19404
Core_0_LLC_prefetch_miss 7613
Core_0_LLC_prefetch_MPKI 0.07613
Core_0_LLC_prefetch_miss_rate 0.281786
Core_0_LLC_writeback_access 312598
Core_0_LLC_writeback_hit 308880
Core_0_LLC_writeback_miss 3718
Core_0_LLC_writeback_MPKI 0.03718
Core_0_LLC_writeback_miss_rate 0.0118939
Core_0_LLC_prefetch_requested 0
Core_0_LLC_prefetch_issued 0
Core_0_LLC_prefetch_useful 0
Core_0_LLC_prefetch_useless 0
Core_0_LLC_prefetch_late 0
Core_0_LLC_prefetch_fill 7613
Core_0_LLC_prefetch_too_early 0
Core_0_LLC_prefetch_too_early_among_fill 0
Core_0_LLC_prefetch_too_early_among_useless 0
Core_0_LLC_prefetch_pollution_evict 5697
Core_0_LLC_prefetch_pollution_demand 5697
Core_0_LLC_prefetch_pollution_among_prefetch_fill 0.748325
Core_0_LLC_prefetch_accuracy 0
Core_0_LLC_prefetch_coverage 0

[DRAM Statistics]
Channel_0_RQ_row_buffer_hit 3508
Channel_0_RQ_row_buffer_miss 121518
Channel_0_WQ_row_buffer_hit 20002
Channel_0_WQ_row_buffer_miss 82109
Channel_0_WQ_full 0
Channel_0_dbus_congested 680144
DRAM_total_RQ_row_buffer_hit 3508
DRAM_total_RQ_row_buffer_miss 121518
DRAM_total_WQ_row_buffer_hit 20002
DRAM_total_WQ_row_buffer_miss 82109
DRAM_total_WQ_full 0
DRAM_total_dbus_congested 680144
DRAM_avg_congested_cycle 15.5804

====== DRAM_RQ_TRAFFIC ========
DRAM_RQ_READ_TRAFFIC_BREAKDOWN:
data_demand_read.count = 108133
data_demand_read.share = 86.48%

inst_demand_read.count = 7591
inst_demand_read.share = 6.07%

cache_inst_prefetch.count = 0
cache_inst_prefetch.share = 0.00%

cache_data_prefetch.count = 7613
cache_data_prefetch.share = 6.09%

stlb_data_demand.count = 1538
stlb_data_demand.share = 1.23%

stlb_inst_demand.count = 159
stlb_inst_demand.share = 0.13%

stlb_l1i_pref.count = 0
stlb_l1i_pref.share = 0.00%

stlb_l1d_pref.count = 0
stlb_l1d_pref.share = 0.00%

DRAM_RQ_READ_TRAFFIC_SUMMARY:
cache_demand.count = 115724
cache_demand.share = 92.55%

cache_prefetch.count = 7613
cache_prefetch.share = 6.09%

stlb_demand.count = 1697
stlb_demand.share = 1.36%

stlb_prefetch.count = 0
stlb_prefetch.share = 0.00%

DRAM_RQ_READ_TRAFFIC_DEBUG:
total_classified_read.count = 125034
unclassified_read.count = 0
total_read_with_other.count = 125034

classified_plus_unclassified_check.count = 125034
dram_rq_read_total_observed.count = 125034
dram_rq_read_total_observed.per_1K_instructions = 1.25034

STLB_MISS_PTW_DRAM_TOUCH_BREAKDOWN:
stlb_miss_total.count = 232615

stlb_miss_touch_dram.count = 1640
stlb_miss_touch_dram.share = 0.71%

stlb_miss_no_dram_touch.count = 230975
stlb_miss_no_dram_touch.share = 99.29%

STLB_MISS_PTW_DRAM_TOUCH_DEBUG:
stlb_miss_touch_plus_no_touch.count = 232615
stlb_miss_total_check.count = 232615

======STLB miss causes ========
Core_0_STLB_miss_cause_breakdown
Core_0_STLB_cause_Demand_Data_miss 144779
Core_0_STLB_cause_Demand_Data_miss_rate 0.0893407
Core_0_STLB_cause_Demand_Instruction_miss 87660
Core_0_STLB_cause_Demand_Instruction_miss_rate 0.0540935
Core_0_STLB_cause_L1D_Prefetch_miss 176
Core_0_STLB_cause_L1D_Prefetch_miss_rate 0.000108607
Core_0_STLB_cause_L1D_Prefetch_Same_Page_miss 0
Core_0_STLB_cause_L1D_Prefetch_Same_Page_miss_rate 0
Core_0_STLB_cause_L1D_Prefetch_Cross_Page_miss 176
Core_0_STLB_cause_L1D_Prefetch_Cross_Page_miss_rate 0.000108607
Core_0_STLB_cause_L1I_Prefetch_miss 0
Core_0_STLB_cause_L1I_Prefetch_miss_rate 0
Core_0_STLB_cause_Other_miss 0
Core_0_STLB_cause_Other_miss_rate 0
Core_0_STLB_Demand_miss 232439
Core_0_STLB_Demand_miss_rate 0.143434
Core_0_STLB_L1D_Prefetch_miss 176
Core_0_STLB_L1D_Prefetch_miss_rate 0.000108607
Core_0_STLB_Other_miss 0
Core_0_STLB_Other_miss_rate 0

========== vBerti-TLB Cross-page Flow Stats ==========

Core_0_vBerti_Requested 166138
Core_0_vBerti_Cross_page_prefetch_in_Requested 23158
Core_0_vBerti_Same_page_prefetch_in_Requested 142980
Core_0_vBerti_Cross_page_prefetch_of_Requested 0.13939
Core_0_vBerti_Issued 28643
Core_0_vBerti_InPQ_Same_page_prefetch 25507
Core_0_vBerti_InPQ_Cross_page_prefetch 3136
Core_0_vBerti_PQ_Drop_Rate 0.827595
Core_0_vBerti_InPQ_Cross_page_prefetch_of_Requested 0.0188759
Core_0_vBerti_Cross_page_PQ_Drop_rate 0.864582
Core_0_vBerti_Cross_page_prefetch_of_Issued 0.109486
Core_0_CP_PF_PQFULL_drop 20022
Core_0_CP_PF_PQFULL_TLB_rescue_enqueued 0
Core_0_CP_PF_PQFULL_TLB_rescue_issued 0
Core_0_CP_PF_PQFULL_TLB_rescue_translated 0

========= DTLB_vBerti Prefetch Stats =========
Core_0_DTLB_demand_access 21815835
Core_0_DTLB_demand_hit 20130527
Core_0_DTLB_demand_miss 1685308
Core_0_DTLB_demand_mshr_merge 445905
Core_0_DTLB_demand_fill 1239502
Core_0_DTLB_demand_miss_rate 0.0772516
Core_0_DTLB_demand_mpki 16.8531
Core_0_DTLB_vberti_prefetch_access 17883
Core_0_DTLB_vberti_prefetch_hit 17210
Core_0_DTLB_vberti_prefetch_miss 673
Core_0_DTLB_vberti_prefetch_mshr_merge 468
Core_0_DTLB_vberti_prefetch_fill 106
Core_0_DTLB_vberti_prefetch_miss_rate 0.0376335
Core_0_DTLB_vberti_prefetch_mpki 0.00673

=== DTLB_vBerti Same/Cross-page Prefetch Stats ===
Core_0_DTLB_vberti_same_page_prefetch 15937
Core_0_DTLB_vberti_same_page_prefetch_hit 15937
Core_0_DTLB_vberti_same_page_prefetch_miss 0
Core_0_DTLB_vberti_same_page_prefetch_mshr_merge 0
Core_0_DTLB_vberti_same_page_prefetch_fill 0
Core_0_DTLB_vberti_same_page_prefetch_miss_rate 0
Core_0_DTLB_vberti_same_page_prefetch_mpki 0
Core_0_DTLB_vberti_cross_page_prefetch 1946
Core_0_DTLB_vberti_cross_page_prefetch_hit 1273
Core_0_DTLB_vberti_cross_page_prefetch_miss 673
Core_0_DTLB_vberti_cross_page_prefetch_mshr_merge 468
Core_0_DTLB_vberti_cross_page_prefetch_fill 106
Core_0_DTLB_vberti_cross_page_prefetch_miss_rate 0.345838
Core_0_DTLB_vberti_cross_page_prefetch_mpki 0.00673
Core_0_DTLB_same_page_prefetch_miss_rate 0
Core_0_DTLB_same_page_prefetch_mpki 0
Core_0_DTLB_cross_page_prefetch_miss_rate 0.345838
Core_0_DTLB_cross_page_prefetch_mpki 0.00673
Core_0_DTLB_cross_page_prefetch_issued 1946
Core_0_DTLB_cross_page_prefetch_lookups 1946
Core_0_DTLB_cross_page_prefetch_useful 165
Core_0_DTLB_cross_page_prefetch_useless 40
Core_0_DTLB_cross_page_prefetch_late 99
Core_0_DTLB_cross_page_prefetch_too_early 12
Core_0_DTLB_cross_page_prefetch_too_early_among_fill 0.113208
Core_0_DTLB_cross_page_prefetch_too_early_among_useless 0.3
Core_0_DTLB_cross_page_prefetch_pollution_evict 106
Core_0_DTLB_cross_page_prefetch_pollution_demand 106
Core_0_DTLB_cross_page_prefetch_pollution_among_prefetch_fill 1
Core_0_DTLB_cross_page_prefetch_accuracy 0.0847893
Core_0_DTLB_cross_page_prefetch_coverage 9.78954e-05

========= STLB_vBerti Prefetch Stats =========
Core_0_STLB_demand_access 1620321
Core_0_STLB_demand_hit 1387882
Core_0_STLB_demand_miss 232439
Core_0_STLB_demand_mshr_merge 0
Core_0_STLB_demand_fill 232439
Core_0_STLB_demand_miss_rate 0.143452
Core_0_STLB_demand_mpki 2.32439
Core_0_STLB_vberti_prefetch_access 205
Core_0_STLB_vberti_prefetch_hit 29
Core_0_STLB_vberti_prefetch_miss 176
Core_0_STLB_vberti_prefetch_mshr_merge 0
Core_0_STLB_vberti_prefetch_fill 176
Core_0_STLB_vberti_prefetch_miss_rate 0.858537
Core_0_STLB_vberti_prefetch_mpki 0.00176

=== STLB_vBerti Same/Cross-page Prefetch Stats ===
Core_0_STLB_vberti_same_page_prefetch 0
Core_0_STLB_vberti_same_page_prefetch_hit 0
Core_0_STLB_vberti_same_page_prefetch_miss 0
Core_0_STLB_vberti_same_page_prefetch_mshr_merge 0
Core_0_STLB_vberti_same_page_prefetch_fill 0
Core_0_STLB_vberti_same_page_prefetch_miss_rate 0
Core_0_STLB_vberti_same_page_prefetch_mpki 0
Core_0_STLB_vberti_cross_page_prefetch 205
Core_0_STLB_vberti_cross_page_prefetch_hit 29
Core_0_STLB_vberti_cross_page_prefetch_miss 176
Core_0_STLB_vberti_cross_page_prefetch_mshr_merge 0
Core_0_STLB_vberti_cross_page_prefetch_fill 176
Core_0_STLB_vberti_cross_page_prefetch_miss_rate 0.858537
Core_0_STLB_vberti_cross_page_prefetch_mpki 0.00176
Core_0_STLB_same_page_prefetch_miss_rate 0
Core_0_STLB_same_page_prefetch_mpki 0
Core_0_STLB_cross_page_prefetch_miss_rate 0.858537
Core_0_STLB_cross_page_prefetch_mpki 0.00176
Core_0_STLB_cross_page_prefetch_issued 205
Core_0_STLB_cross_page_prefetch_lookups 205
Core_0_STLB_cross_page_prefetch_useful 11
Core_0_STLB_cross_page_prefetch_useless 165
Core_0_STLB_cross_page_prefetch_late 0
Core_0_STLB_cross_page_prefetch_too_early 92
Core_0_STLB_cross_page_prefetch_too_early_among_fill 0.522727
Core_0_STLB_cross_page_prefetch_too_early_among_useless 0.557576
Core_0_STLB_cross_page_prefetch_pollution_evict 174
Core_0_STLB_cross_page_prefetch_pollution_demand 174
Core_0_STLB_cross_page_prefetch_pollution_among_prefetch_fill 0.988636
Core_0_STLB_cross_page_prefetch_accuracy 0.0536585
Core_0_STLB_cross_page_prefetch_coverage 4.7322e-05

========= STLB Cross-page Prefetch Buffer Stats =========
Core_0_STLB_raw_demand_miss 144779
Core_0_CP_PB_insert 0
Core_0_CP_PB_demand_hit 0
Core_0_STLB_PB_demand_miss 144779
Core_0_CP_PB_coverage 0
Core_0_STLB_raw_demand_mpki 1.44779
Core_0_STLB_PB_demand_mpki 1.44779
Core_0_CP_PB_demand_hit_mpki 0

Core_0_TLB_demand_miss_rate 0.0106546
Core_0_TLB_demand_mpki 2.32439
Core_0_TLB_same_page_prefetch_miss_rate 0
Core_0_TLB_same_page_prefetch_mpki 0
Core_0_TLB_cross_page_prefetch_miss_rate 0.0904419
Core_0_TLB_cross_page_prefetch_mpki 0.00176
Core_0_TLB_cross_page_prefetch_issued 1946
Core_0_TLB_cross_page_prefetch_lookups 1946
Core_0_TLB_cross_page_prefetch_useful 76
Core_0_TLB_cross_page_prefetch_useless 40
Core_0_TLB_cross_page_prefetch_late 63
Core_0_TLB_cross_page_prefetch_too_early 12
Core_0_TLB_cross_page_prefetch_too_early_among_fill 0.0425532
Core_0_TLB_cross_page_prefetch_too_early_among_useless 0.3
Core_0_TLB_cross_page_prefetch_accuracy 0.0390545
Core_0_TLB_cross_page_prefetch_coverage 0.000326861
====== vBerti internal metric ========
Core_0_vBerti_end_to_end_issued 25507
Core_0_vBerti_end_to_end_useful 2635
Core_0_vBerti_end_to_end_late 2628
Core_0_vBerti_end_to_end_accuracy 0.103305
Core_0_vBerti_end_to_end_timely_accuracy 0.000274434
BERTI TO_L1: 45342 TO_L2: 97638 TO_L2_BC_MSHR: 15828
BERTI AVG_LAT: 33.2881 NUM_TRACK_LATENCY: 1305082 NUM_CANT_TRACK_LATENCY: 0
BERTI CROSS_PAGE 23158 NO_CROSS_PAGE: 142980
BERTI FOUND_BERTI: 765311 NO_FOUND_BERTI: 22431048
BERTI AVERAGE_ISSUED: 2.09379
