[VMEM] WARNING: physical memory size is smaller than virtual memory size.

*** ChampSim Multicore Out-of-Order Simulator ***
Warmup Instructions: 50000000
Simulation Instructions: 100000000
Number of CPUs: 1
Page size: 4096
Core 0: /data0/tzh/champsim_traces/QMM/srv_64_new.xz
VBerti Prefetcher
BERTI HASH ENTANGLING
BERTI IP MASK ffff
Off-chip DRAM Size: 16 GiB Channels: 1 Width: 64-bit Data Rate: 3205 MT/s
[BTB] WARNING: target of return is a lower address than the corresponding call. This is usually a problem with your trace.
[BTB] WARNING: target of return is a lower address than the corresponding call. This is usually a problem with your trace.
[BTB] WARNING: target of return is a lower address than the corresponding call. This is usually a problem with your trace.
[BTB] WARNING: target of return is a lower address than the corresponding call. This is usually a problem with your trace.
[BTB] WARNING: target of return is a lower address than the corresponding call. This is usually a problem with your trace.
[BTB] WARNING: target of return is a lower address than the corresponding call. This is usually a problem with your trace.
[BTB] WARNING: target of return is a lower address than the corresponding call. This is usually a problem with your trace.
[BTB] WARNING: target of return is a lower address than the corresponding call. This is usually a problem with your trace.
[BTB] WARNING: target of return is a lower address than the corresponding call. This is usually a problem with your trace.
[BTB] WARNING: target of return is a lower address than the corresponding call. This is usually a problem with your trace.
*** Reached end of trace: (0, "/data0/tzh/champsim_traces/QMM/srv_64_new.xz")
Warmup halting CPU 0 at instruction 50000002 cycle 10737176 for remainder of phase
Warmup finished CPU 0 instructions: 50000002 cycles: 10737176 cumulative IPC: 4.657 (Simulation time: 00 hr 02 min 43 sec)
Warmup complete CPU 0 instructions: 50000002 cycles: 10737176 cumulative IPC: 4.657 (Simulation time: 00 hr 02 min 43 sec)
*** Reached end of trace: (0, "/data0/tzh/champsim_traces/QMM/srv_64_new.xz")
*** Reached end of trace: (0, "/data0/tzh/champsim_traces/QMM/srv_64_new.xz")
*** Reached end of trace: (0, "/data0/tzh/champsim_traces/QMM/srv_64_new.xz")
Simulation finished CPU 0 instructions: 100000004 cycles: 51826181 cumulative IPC: 1.93 (Simulation time: 00 hr 11 min 33 sec)
Simulation complete CPU 0 instructions: 100000004 cycles: 51826181 cumulative IPC: 1.93 (Simulation time: 00 hr 11 min 33 sec)

ChampSim completed all CPUs

=== Simulation ===
CPU 0 runs /data0/tzh/champsim_traces/QMM/srv_64_new.xz

Region of Interest Statistics

CPU 0 cumulative IPC: 1.93 instructions: 100000004 cycles: 51826181
CPU 0 Branch Prediction Accuracy: 98.84% MPKI: 2.088 Average ROB Occupancy at Mispredict: 156.1
Branch type MPKI
BRANCH_DIRECT_JUMP: 0.1303
BRANCH_INDIRECT: 0.1636
BRANCH_CONDITIONAL: 1.238
BRANCH_DIRECT_CALL: 0.2398
BRANCH_INDIRECT_CALL: 0.07531
BRANCH_RETURN: 0.241

cpu0->cpu0_STLB TOTAL        ACCESS:    1632557 HIT:    1472367 MISS:     160190 MSHR_MERGE:          0
cpu0->cpu0_STLB LOAD         ACCESS:    1632557 HIT:    1472367 MISS:     160190 MSHR_MERGE:          0
cpu0->cpu0_STLB RFO          ACCESS:          0 HIT:          0 MISS:          0 MSHR_MERGE:          0
cpu0->cpu0_STLB PREFETCH     ACCESS:          0 HIT:          0 MISS:          0 MSHR_MERGE:          0
cpu0->cpu0_STLB WRITE        ACCESS:          0 HIT:          0 MISS:          0 MSHR_MERGE:          0
cpu0->cpu0_STLB TRANSLATION  ACCESS:          0 HIT:          0 MISS:          0 MSHR_MERGE:          0
cpu0->cpu0_STLB PREFETCH REQUESTED:          0 ISSUED:          0 USEFUL:          0 USELESS:          0 LATE:          0 TOO_EARLY:          0
cpu0->cpu0_STLB AVERAGE MISS LATENCY: 36.3 cycles
cpu0->cpu0_L2C TOTAL        ACCESS:    4537960 HIT:    2949628 MISS:    1588332 MSHR_MERGE:       1219
cpu0->cpu0_L2C LOAD         ACCESS:    3661632 HIT:    2273852 MISS:    1387780 MSHR_MERGE:        112
cpu0->cpu0_L2C RFO          ACCESS:     164747 HIT:      78260 MISS:      86487 MSHR_MERGE:          3
cpu0->cpu0_L2C PREFETCH     ACCESS:      38237 HIT:      19982 MISS:      18255 MSHR_MERGE:       1104
cpu0->cpu0_L2C WRITE        ACCESS:     522600 HIT:     517513 MISS:       5087 MSHR_MERGE:          0
cpu0->cpu0_L2C TRANSLATION  ACCESS:     150744 HIT:      60021 MISS:      90723 MSHR_MERGE:          0
cpu0->cpu0_L2C PREFETCH REQUESTED:      37277 ISSUED:      37105 USEFUL:      11194 USELESS:       5691 LATE:        112 TOO_EARLY:        291
cpu0->cpu0_L2C AVERAGE MISS LATENCY: 31.16 cycles
cpu0->cpu0_L1I TOTAL        ACCESS:   15858467 HIT:   11665987 MISS:    4192480 MSHR_MERGE:    1629865
cpu0->cpu0_L1I LOAD         ACCESS:   15858467 HIT:   11665987 MISS:    4192480 MSHR_MERGE:    1629865
cpu0->cpu0_L1I RFO          ACCESS:          0 HIT:          0 MISS:          0 MSHR_MERGE:          0
cpu0->cpu0_L1I PREFETCH     ACCESS:          0 HIT:          0 MISS:          0 MSHR_MERGE:          0
cpu0->cpu0_L1I WRITE        ACCESS:          0 HIT:          0 MISS:          0 MSHR_MERGE:          0
cpu0->cpu0_L1I TRANSLATION  ACCESS:          0 HIT:          0 MISS:          0 MSHR_MERGE:          0
cpu0->cpu0_L1I PREFETCH REQUESTED:          0 ISSUED:          0 USEFUL:          0 USELESS:          0 LATE:          0 TOO_EARLY:          0
cpu0->cpu0_L1I AVERAGE MISS LATENCY: 13.08 cycles
cpu0->cpu0_L1D TOTAL        ACCESS:   23073225 HIT:   20967173 MISS:    2106052 MSHR_MERGE:     690391
cpu0->cpu0_L1D LOAD         ACCESS:   12811598 HIT:   11317171 MISS:    1494427 MSHR_MERGE:     395398
cpu0->cpu0_L1D RFO          ACCESS:          0 HIT:          0 MISS:          0 MSHR_MERGE:          0
cpu0->cpu0_L1D PREFETCH     ACCESS:      16985 HIT:      15853 MISS:       1132 MSHR_MERGE:          0
cpu0->cpu0_L1D WRITE        ACCESS:    9879721 HIT:    9422914 MISS:     456807 MSHR_MERGE:     292051
cpu0->cpu0_L1D TRANSLATION  ACCESS:     364921 HIT:     211235 MISS:     153686 MSHR_MERGE:       2942
cpu0->cpu0_L1D PREFETCH REQUESTED:      25981 ISSUED:      20547 USEFUL:        159 USELESS:         25 LATE:          8 TOO_EARLY:          0
cpu0->cpu0_L1D AVERAGE MISS LATENCY: 33.43 cycles
cpu0->cpu0_ITLB TOTAL        ACCESS:   13493379 HIT:   12492459 MISS:    1000920 MSHR_MERGE:     620750
cpu0->cpu0_ITLB LOAD         ACCESS:   13493379 HIT:   12492459 MISS:    1000920 MSHR_MERGE:     620750
cpu0->cpu0_ITLB RFO          ACCESS:          0 HIT:          0 MISS:          0 MSHR_MERGE:          0
cpu0->cpu0_ITLB PREFETCH     ACCESS:          0 HIT:          0 MISS:          0 MSHR_MERGE:          0
cpu0->cpu0_ITLB WRITE        ACCESS:          0 HIT:          0 MISS:          0 MSHR_MERGE:          0
cpu0->cpu0_ITLB TRANSLATION  ACCESS:          0 HIT:          0 MISS:          0 MSHR_MERGE:          0
cpu0->cpu0_ITLB PREFETCH REQUESTED:          0 ISSUED:          0 USEFUL:          0 USELESS:          0 LATE:          0 TOO_EARLY:          0
cpu0->cpu0_ITLB AVERAGE MISS LATENCY: 8.599 cycles
cpu0->cpu0_DTLB TOTAL        ACCESS:   21332910 HIT:   19627212 MISS:    1705698 MSHR_MERGE:     453311
cpu0->cpu0_DTLB LOAD         ACCESS:   21332910 HIT:   19627212 MISS:    1705698 MSHR_MERGE:     453311
cpu0->cpu0_DTLB RFO          ACCESS:          0 HIT:          0 MISS:          0 MSHR_MERGE:          0
cpu0->cpu0_DTLB PREFETCH     ACCESS:          0 HIT:          0 MISS:          0 MSHR_MERGE:          0
cpu0->cpu0_DTLB WRITE        ACCESS:          0 HIT:          0 MISS:          0 MSHR_MERGE:          0
cpu0->cpu0_DTLB TRANSLATION  ACCESS:          0 HIT:          0 MISS:          0 MSHR_MERGE:          0
cpu0->cpu0_DTLB PREFETCH REQUESTED:          0 ISSUED:          0 USEFUL:          0 USELESS:          0 LATE:          0 TOO_EARLY:          0
cpu0->cpu0_DTLB AVERAGE MISS LATENCY: 8.693 cycles
cpu0->LLC TOTAL        ACCESS:    1858783 HIT:    1709241 MISS:     149542 MSHR_MERGE:          0
cpu0->LLC LOAD         ACCESS:    1387666 HIT:    1281173 MISS:     106493 MSHR_MERGE:          0
cpu0->LLC RFO          ACCESS:      86484 HIT:      64035 MISS:      22449 MSHR_MERGE:          0
cpu0->LLC PREFETCH     ACCESS:      17151 HIT:       6964 MISS:      10187 MSHR_MERGE:          0
cpu0->LLC WRITE        ACCESS:     276759 HIT:     272101 MISS:       4658 MSHR_MERGE:          0
cpu0->LLC TRANSLATION  ACCESS:      90723 HIT:      84968 MISS:       5755 MSHR_MERGE:          0
cpu0->LLC PREFETCH REQUESTED:          0 ISSUED:          0 USEFUL:          0 USELESS:          0 LATE:          0 TOO_EARLY:          0
cpu0->LLC AVERAGE MISS LATENCY: 181.7 cycles

DRAM Statistics

Channel 0 RQ ROW_BUFFER_HIT:       5820
  ROW_BUFFER_MISS:     139061
  AVG DBUS CONGESTED CYCLE: 15.68
Channel 0 WQ ROW_BUFFER_HIT:      22951
  ROW_BUFFER_MISS:      82305
  FULL:          0
Channel 0 REFRESHES ISSUED:       4319

[ROI Statistics]
[System Configuration]
num_cpus 1
cpu_freq 4000
fetch_width 6
decode_width 6
dispatch_width 6
execute_width 6
lq_width 2
sq_width 2
retire_width 6
scheduler_size 128
branch_mispredict_penalty 15
rob_size 352
lq_size 128
sq_size 72
ifetch_buffer_size 64
decode_buffer_size 32
dispatch_buffer_size 32
register_file_size 288
decode_latency 1
dispatch_latency 1
schedule_latency 1
execute_latency 1
page_size 4096
block_size 64
core_0_itlb_set 16
core_0_itlb_way 4
core_0_itlb_rq_size 16
core_0_itlb_wq_size 16
core_0_itlb_pq_size 0
core_0_itlb_mshr_size 8
core_0_itlb_hit_latency 1
core_0_itlb_fill_latency 1
core_0_itlb_max_tag_check 2
core_0_itlb_max_fill 2
core_0_dtlb_set 16
core_0_dtlb_way 4
core_0_dtlb_rq_size 16
core_0_dtlb_wq_size 16
core_0_dtlb_pq_size 0
core_0_dtlb_mshr_size 8
core_0_dtlb_hit_latency 1
core_0_dtlb_fill_latency 1
core_0_dtlb_max_tag_check 2
core_0_dtlb_max_fill 2
core_0_stlb_set 128
core_0_stlb_way 12
core_0_stlb_rq_size 32
core_0_stlb_wq_size 32
core_0_stlb_pq_size 0
core_0_stlb_mshr_size 16
core_0_stlb_hit_latency 4
core_0_stlb_fill_latency 4
core_0_stlb_max_tag_check 1
core_0_stlb_max_fill 1
core_0_l1i_set 64
core_0_l1i_way 8
core_0_l1i_rq_size 64
core_0_l1i_wq_size 64
core_0_l1i_pq_size 32
core_0_l1i_mshr_size 8
core_0_l1i_hit_latency 2
core_0_l1i_fill_latency 2
core_0_l1i_max_tag_check 2
core_0_l1i_max_fill 2
core_0_l1d_set 64
core_0_l1d_way 12
core_0_l1d_rq_size 64
core_0_l1d_wq_size 64
core_0_l1d_pq_size 8
core_0_l1d_mshr_size 16
core_0_l1d_hit_latency 2
core_0_l1d_fill_latency 3
core_0_l1d_max_tag_check 2
core_0_l1d_max_fill 2
core_0_l2c_set 1024
core_0_l2c_way 8
core_0_l2c_rq_size 32
core_0_l2c_wq_size 32
core_0_l2c_pq_size 16
core_0_l2c_mshr_size 32
core_0_l2c_hit_latency 5
core_0_l2c_fill_latency 5
core_0_l2c_max_tag_check 1
core_0_l2c_max_fill 1
llc_set 2048
llc_way 16
llc_rq_size 32
llc_wq_size 32
llc_pq_size 32
llc_mshr_size 64
llc_hit_latency 10
llc_fill_latency 10
llc_max_tag_check 1
llc_max_fill 1
dram_channels 1
dram_ranks 1
dram_bankgroups 8
dram_banks 4
dram_rows 65536
dram_columns 1024
dram_channel_width 8
dram_rq_size 64
dram_wq_size 64
dram_size 17179869184
core_0_itlb_prefetcher no
core_0_dtlb_prefetcher no
core_0_stlb_prefetcher no
core_0_l1i_prefetcher next_line
core_0_l1d_prefetcher vberti
core_0_l2c_prefetcher ip_stride
llc_prefetcher no
llc_replacement drrip

Core_0_instructions 100000004
Core_0_cycles 51826181
Core_0_IPC 1.92953
Core_0_branch_prediction_accuracy 98.8358
Core_0_branch_MPKI 2.08849
Core_0_average_ROB_occupancy_at_mispredict 156.068

Core_0_ITLB_total_access 13493379
Core_0_ITLB_total_hit 12492459
Core_0_ITLB_total_miss 1000920
Core_0_ITLB_total_MPKI 10.0092
Core_0_ITLB_total_miss_rate 0.0741786
Core_0_ITLB_demand_access 13493379
Core_0_ITLB_demand_hit 12492459
Core_0_ITLB_demand_miss 1000920
Core_0_ITLB_demand_MPKI 10.0092
Core_0_ITLB_demand_miss_rate 0.0741786
Core_0_ITLB_load_access 13493379
Core_0_ITLB_load_hit 12492459
Core_0_ITLB_load_miss 1000920
Core_0_ITLB_load_MPKI 10.0092
Core_0_ITLB_load_miss_rate 0.0741786
Core_0_ITLB_rfo_access 0
Core_0_ITLB_rfo_hit 0
Core_0_ITLB_rfo_miss 0
Core_0_ITLB_rfo_MPKI 0
Core_0_ITLB_rfo_miss_rate 0
Core_0_ITLB_prefetch_access 0
Core_0_ITLB_prefetch_hit 0
Core_0_ITLB_prefetch_miss 0
Core_0_ITLB_prefetch_MPKI 0
Core_0_ITLB_prefetch_miss_rate 0
Core_0_ITLB_writeback_access 0
Core_0_ITLB_writeback_hit 0
Core_0_ITLB_writeback_miss 0
Core_0_ITLB_writeback_MPKI 0
Core_0_ITLB_writeback_miss_rate 0
Core_0_ITLB_prefetch_requested 0
Core_0_ITLB_prefetch_issued 0
Core_0_ITLB_prefetch_useful 0
Core_0_ITLB_prefetch_useless 0
Core_0_ITLB_prefetch_late 0
Core_0_ITLB_prefetch_fill 0
Core_0_ITLB_prefetch_too_early 0
Core_0_ITLB_prefetch_too_early_among_fill 0
Core_0_ITLB_prefetch_too_early_among_useless 0
Core_0_ITLB_prefetch_pollution_evict 0
Core_0_ITLB_prefetch_pollution_demand 0
Core_0_ITLB_prefetch_pollution_among_prefetch_fill 0
Core_0_ITLB_prefetch_accuracy 0
Core_0_ITLB_prefetch_coverage 0

Core_0_DTLB_total_access 21332910
Core_0_DTLB_total_hit 19627212
Core_0_DTLB_total_miss 1705698
Core_0_DTLB_total_MPKI 17.057
Core_0_DTLB_total_miss_rate 0.0799562
Core_0_DTLB_demand_access 21332910
Core_0_DTLB_demand_hit 19627212
Core_0_DTLB_demand_miss 1705698
Core_0_DTLB_demand_MPKI 17.057
Core_0_DTLB_demand_miss_rate 0.0799562
Core_0_DTLB_load_access 21332910
Core_0_DTLB_load_hit 19627212
Core_0_DTLB_load_miss 1705698
Core_0_DTLB_load_MPKI 17.057
Core_0_DTLB_load_miss_rate 0.0799562
Core_0_DTLB_rfo_access 0
Core_0_DTLB_rfo_hit 0
Core_0_DTLB_rfo_miss 0
Core_0_DTLB_rfo_MPKI 0
Core_0_DTLB_rfo_miss_rate 0
Core_0_DTLB_prefetch_access 0
Core_0_DTLB_prefetch_hit 0
Core_0_DTLB_prefetch_miss 0
Core_0_DTLB_prefetch_MPKI 0
Core_0_DTLB_prefetch_miss_rate 0
Core_0_DTLB_writeback_access 0
Core_0_DTLB_writeback_hit 0
Core_0_DTLB_writeback_miss 0
Core_0_DTLB_writeback_MPKI 0
Core_0_DTLB_writeback_miss_rate 0
Core_0_DTLB_prefetch_requested 0
Core_0_DTLB_prefetch_issued 0
Core_0_DTLB_prefetch_useful 0
Core_0_DTLB_prefetch_useless 0
Core_0_DTLB_prefetch_late 0
Core_0_DTLB_prefetch_fill 0
Core_0_DTLB_prefetch_too_early 0
Core_0_DTLB_prefetch_too_early_among_fill 0
Core_0_DTLB_prefetch_too_early_among_useless 0
Core_0_DTLB_prefetch_pollution_evict 0
Core_0_DTLB_prefetch_pollution_demand 0
Core_0_DTLB_prefetch_pollution_among_prefetch_fill 0
Core_0_DTLB_prefetch_accuracy 0
Core_0_DTLB_prefetch_coverage 0

Core_0_STLB_total_access 1632557
Core_0_STLB_total_hit 1472367
Core_0_STLB_total_miss 160190
Core_0_STLB_total_MPKI 1.6019
Core_0_STLB_total_miss_rate 0.0981221
Core_0_STLB_demand_access 1632557
Core_0_STLB_demand_hit 1472367
Core_0_STLB_demand_miss 160190
Core_0_STLB_demand_MPKI 1.6019
Core_0_STLB_demand_miss_rate 0.0981221
Core_0_STLB_load_access 1632557
Core_0_STLB_load_hit 1472367
Core_0_STLB_load_miss 160190
Core_0_STLB_load_MPKI 1.6019
Core_0_STLB_load_miss_rate 0.0981221
Core_0_STLB_rfo_access 0
Core_0_STLB_rfo_hit 0
Core_0_STLB_rfo_miss 0
Core_0_STLB_rfo_MPKI 0
Core_0_STLB_rfo_miss_rate 0
Core_0_STLB_prefetch_access 0
Core_0_STLB_prefetch_hit 0
Core_0_STLB_prefetch_miss 0
Core_0_STLB_prefetch_MPKI 0
Core_0_STLB_prefetch_miss_rate 0
Core_0_STLB_writeback_access 0
Core_0_STLB_writeback_hit 0
Core_0_STLB_writeback_miss 0
Core_0_STLB_writeback_MPKI 0
Core_0_STLB_writeback_miss_rate 0
Core_0_STLB_prefetch_requested 0
Core_0_STLB_prefetch_issued 0
Core_0_STLB_prefetch_useful 0
Core_0_STLB_prefetch_useless 0
Core_0_STLB_prefetch_late 0
Core_0_STLB_prefetch_fill 0
Core_0_STLB_prefetch_too_early 0
Core_0_STLB_prefetch_too_early_among_fill 0
Core_0_STLB_prefetch_too_early_among_useless 0
Core_0_STLB_prefetch_pollution_evict 0
Core_0_STLB_prefetch_pollution_demand 0
Core_0_STLB_prefetch_pollution_among_prefetch_fill 0
Core_0_STLB_prefetch_accuracy 0
Core_0_STLB_prefetch_coverage 0

Core_0_L1I_total_access 15858467
Core_0_L1I_total_hit 11665987
Core_0_L1I_total_miss 4192480
Core_0_L1I_total_MPKI 41.9248
Core_0_L1I_total_miss_rate 0.264369
Core_0_L1I_demand_access 15858467
Core_0_L1I_demand_hit 11665987
Core_0_L1I_demand_miss 4192480
Core_0_L1I_demand_MPKI 41.9248
Core_0_L1I_demand_miss_rate 0.264369
Core_0_L1I_load_access 15858467
Core_0_L1I_load_hit 11665987
Core_0_L1I_load_miss 4192480
Core_0_L1I_load_MPKI 41.9248
Core_0_L1I_load_miss_rate 0.264369
Core_0_L1I_rfo_access 0
Core_0_L1I_rfo_hit 0
Core_0_L1I_rfo_miss 0
Core_0_L1I_rfo_MPKI 0
Core_0_L1I_rfo_miss_rate 0
Core_0_L1I_prefetch_access 0
Core_0_L1I_prefetch_hit 0
Core_0_L1I_prefetch_miss 0
Core_0_L1I_prefetch_MPKI 0
Core_0_L1I_prefetch_miss_rate 0
Core_0_L1I_writeback_access 0
Core_0_L1I_writeback_hit 0
Core_0_L1I_writeback_miss 0
Core_0_L1I_writeback_MPKI 0
Core_0_L1I_writeback_miss_rate 0
Core_0_L1I_prefetch_requested 0
Core_0_L1I_prefetch_issued 0
Core_0_L1I_prefetch_useful 0
Core_0_L1I_prefetch_useless 0
Core_0_L1I_prefetch_late 0
Core_0_L1I_prefetch_fill 0
Core_0_L1I_prefetch_too_early 0
Core_0_L1I_prefetch_too_early_among_fill 0
Core_0_L1I_prefetch_too_early_among_useless 0
Core_0_L1I_prefetch_pollution_evict 0
Core_0_L1I_prefetch_pollution_demand 0
Core_0_L1I_prefetch_pollution_among_prefetch_fill 0
Core_0_L1I_prefetch_accuracy 0
Core_0_L1I_prefetch_coverage 0

Core_0_L1D_total_access 22708304
Core_0_L1D_total_hit 20755938
Core_0_L1D_total_miss 1952366
Core_0_L1D_total_MPKI 19.5237
Core_0_L1D_total_miss_rate 0.0859759
Core_0_L1D_demand_access 12811598
Core_0_L1D_demand_hit 11317171
Core_0_L1D_demand_miss 1494427
Core_0_L1D_demand_MPKI 14.9443
Core_0_L1D_demand_miss_rate 0.116646
Core_0_L1D_load_access 12811598
Core_0_L1D_load_hit 11317171
Core_0_L1D_load_miss 1494427
Core_0_L1D_load_MPKI 14.9443
Core_0_L1D_load_miss_rate 0.116646
Core_0_L1D_rfo_access 0
Core_0_L1D_rfo_hit 0
Core_0_L1D_rfo_miss 0
Core_0_L1D_rfo_MPKI 0
Core_0_L1D_rfo_miss_rate 0
Core_0_L1D_prefetch_access 16985
Core_0_L1D_prefetch_hit 15853
Core_0_L1D_prefetch_miss 1132
Core_0_L1D_prefetch_MPKI 0.01132
Core_0_L1D_prefetch_miss_rate 0.066647
Core_0_L1D_writeback_access 9879721
Core_0_L1D_writeback_hit 9422914
Core_0_L1D_writeback_miss 456807
Core_0_L1D_writeback_MPKI 4.56807
Core_0_L1D_writeback_miss_rate 0.0462368
Core_0_L1D_prefetch_requested 25981
Core_0_L1D_prefetch_issued 20547
Core_0_L1D_prefetch_useful 159
Core_0_L1D_prefetch_useless 25
Core_0_L1D_prefetch_late 8
Core_0_L1D_prefetch_fill 171
Core_0_L1D_prefetch_too_early 0
Core_0_L1D_prefetch_too_early_among_fill 0
Core_0_L1D_prefetch_too_early_among_useless 0
Core_0_L1D_prefetch_pollution_evict 120
Core_0_L1D_prefetch_pollution_demand 120
Core_0_L1D_cross_page_pf_translation_only_requested 6047
Core_0_L1D_cross_page_pf_translation_only_issued 3562
Core_0_L1D_cross_page_pf_translation_only_dropped 3562
Core_0_L1D_prefetch_pollution_among_prefetch_fill 0.701754
Core_0_L1D_prefetch_accuracy 0.00773836
Core_0_L1D_prefetch_coverage 0.000106384

Core_0_L2C_total_access 4387216
Core_0_L2C_total_hit 2889607
Core_0_L2C_total_miss 1497609
Core_0_L2C_total_MPKI 14.9761
Core_0_L2C_total_miss_rate 0.341357
Core_0_L2C_demand_access 3826379
Core_0_L2C_demand_hit 2352112
Core_0_L2C_demand_miss 1474267
Core_0_L2C_demand_MPKI 14.7427
Core_0_L2C_demand_miss_rate 0.38529
Core_0_L2C_load_access 3661632
Core_0_L2C_load_hit 2273852
Core_0_L2C_load_miss 1387780
Core_0_L2C_load_MPKI 13.8778
Core_0_L2C_load_miss_rate 0.379006
Core_0_L2C_rfo_access 164747
Core_0_L2C_rfo_hit 78260
Core_0_L2C_rfo_miss 86487
Core_0_L2C_rfo_MPKI 0.86487
Core_0_L2C_rfo_miss_rate 0.524969
Core_0_L2C_prefetch_access 38237
Core_0_L2C_prefetch_hit 19982
Core_0_L2C_prefetch_miss 18255
Core_0_L2C_prefetch_MPKI 0.18255
Core_0_L2C_prefetch_miss_rate 0.477417
Core_0_L2C_writeback_access 522600
Core_0_L2C_writeback_hit 517513
Core_0_L2C_writeback_miss 5087
Core_0_L2C_writeback_MPKI 0.05087
Core_0_L2C_writeback_miss_rate 0.00973402
Core_0_L2C_prefetch_requested 37277
Core_0_L2C_prefetch_issued 37105
Core_0_L2C_prefetch_useful 11194
Core_0_L2C_prefetch_useless 5691
Core_0_L2C_prefetch_late 112
Core_0_L2C_prefetch_fill 17036
Core_0_L2C_prefetch_too_early 291
Core_0_L2C_prefetch_too_early_among_fill 0.0170815
Core_0_L2C_prefetch_too_early_among_useless 0.0511334
Core_0_L2C_prefetch_pollution_evict 14883
Core_0_L2C_prefetch_pollution_demand 14883
Core_0_L2C_prefetch_pollution_among_prefetch_fill 0.873621
Core_0_L2C_prefetch_accuracy 0.301684
Core_0_L2C_prefetch_coverage 0.00753571

Core_0_LLC_total_access 1768060
Core_0_LLC_total_hit 1624273
Core_0_LLC_total_miss 143787
Core_0_LLC_total_MPKI 1.43787
Core_0_LLC_total_miss_rate 0.0813247
Core_0_LLC_demand_access 1474150
Core_0_LLC_demand_hit 1345208
Core_0_LLC_demand_miss 128942
Core_0_LLC_demand_MPKI 1.28942
Core_0_LLC_demand_miss_rate 0.0874687
Core_0_LLC_load_access 1387666
Core_0_LLC_load_hit 1281173
Core_0_LLC_load_miss 106493
Core_0_LLC_load_MPKI 1.06493
Core_0_LLC_load_miss_rate 0.0767425
Core_0_LLC_rfo_access 86484
Core_0_LLC_rfo_hit 64035
Core_0_LLC_rfo_miss 22449
Core_0_LLC_rfo_MPKI 0.22449
Core_0_LLC_rfo_miss_rate 0.259574
Core_0_LLC_prefetch_access 17151
Core_0_LLC_prefetch_hit 6964
Core_0_LLC_prefetch_miss 10187
Core_0_LLC_prefetch_MPKI 0.10187
Core_0_LLC_prefetch_miss_rate 0.59396
Core_0_LLC_writeback_access 276759
Core_0_LLC_writeback_hit 272101
Core_0_LLC_writeback_miss 4658
Core_0_LLC_writeback_MPKI 0.04658
Core_0_LLC_writeback_miss_rate 0.0168305
Core_0_LLC_prefetch_requested 0
Core_0_LLC_prefetch_issued 0
Core_0_LLC_prefetch_useful 0
Core_0_LLC_prefetch_useless 0
Core_0_LLC_prefetch_late 0
Core_0_LLC_prefetch_fill 10187
Core_0_LLC_prefetch_too_early 0
Core_0_LLC_prefetch_too_early_among_fill 0
Core_0_LLC_prefetch_too_early_among_useless 0
Core_0_LLC_prefetch_pollution_evict 7254
Core_0_LLC_prefetch_pollution_demand 7254
Core_0_LLC_prefetch_pollution_among_prefetch_fill 0.712084
Core_0_LLC_prefetch_accuracy 0
Core_0_LLC_prefetch_coverage 0

[DRAM Statistics]
Channel_0_RQ_row_buffer_hit 5820
Channel_0_RQ_row_buffer_miss 139061
Channel_0_WQ_row_buffer_hit 22951
Channel_0_WQ_row_buffer_miss 82305
Channel_0_WQ_full 0
Channel_0_dbus_congested 780932
DRAM_total_RQ_row_buffer_hit 5820
DRAM_total_RQ_row_buffer_miss 139061
DRAM_total_WQ_row_buffer_hit 22951
DRAM_total_WQ_row_buffer_miss 82305
DRAM_total_WQ_full 0
DRAM_total_dbus_congested 780932
DRAM_avg_congested_cycle 15.6799

====== DRAM_RQ_TRAFFIC ========
DRAM_RQ_READ_TRAFFIC_BREAKDOWN:
data_demand_read.count = 126046
data_demand_read.share = 87.00%

inst_demand_read.count = 2896
inst_demand_read.share = 2.00%

cache_inst_prefetch.count = 0
cache_inst_prefetch.share = 0.00%

cache_data_prefetch.count = 10187
cache_data_prefetch.share = 7.03%

stlb_data_demand.count = 5697
stlb_data_demand.share = 3.93%

stlb_inst_demand.count = 58
stlb_inst_demand.share = 0.04%

stlb_l1i_pref.count = 0
stlb_l1i_pref.share = 0.00%

stlb_l1d_pref.count = 0
stlb_l1d_pref.share = 0.00%

DRAM_RQ_READ_TRAFFIC_SUMMARY:
cache_demand.count = 128942
cache_demand.share = 89.00%

cache_prefetch.count = 10187
cache_prefetch.share = 7.03%

stlb_demand.count = 5755
stlb_demand.share = 3.97%

stlb_prefetch.count = 0
stlb_prefetch.share = 0.00%

DRAM_RQ_READ_TRAFFIC_DEBUG:
total_classified_read.count = 144884
unclassified_read.count = 0
total_read_with_other.count = 144884

classified_plus_unclassified_check.count = 144884
dram_rq_read_total_observed.count = 144884
dram_rq_read_total_observed.per_1K_instructions = 1.44884

STLB_MISS_PTW_DRAM_TOUCH_BREAKDOWN:
stlb_miss_total.count = 160190

stlb_miss_touch_dram.count = 5749
stlb_miss_touch_dram.share = 3.59%

stlb_miss_no_dram_touch.count = 154441
stlb_miss_no_dram_touch.share = 96.41%

STLB_MISS_PTW_DRAM_TOUCH_DEBUG:
stlb_miss_touch_plus_no_touch.count = 160190
stlb_miss_total_check.count = 160190

======STLB miss causes ========
Core_0_STLB_miss_cause_breakdown
Core_0_STLB_cause_Demand_Data_miss 104306
Core_0_STLB_cause_Demand_Data_miss_rate 0.0638912
Core_0_STLB_cause_Demand_Instruction_miss 55884
Core_0_STLB_cause_Demand_Instruction_miss_rate 0.034231
Core_0_STLB_cause_L1D_Prefetch_miss 0
Core_0_STLB_cause_L1D_Prefetch_miss_rate 0
Core_0_STLB_cause_L1D_Prefetch_Same_Page_miss 0
Core_0_STLB_cause_L1D_Prefetch_Same_Page_miss_rate 0
Core_0_STLB_cause_L1D_Prefetch_Cross_Page_miss 0
Core_0_STLB_cause_L1D_Prefetch_Cross_Page_miss_rate 0
Core_0_STLB_cause_L1I_Prefetch_miss 0
Core_0_STLB_cause_L1I_Prefetch_miss_rate 0
Core_0_STLB_cause_Other_miss 0
Core_0_STLB_cause_Other_miss_rate 0
Core_0_STLB_Demand_miss 160190
Core_0_STLB_Demand_miss_rate 0.0981221
Core_0_STLB_L1D_Prefetch_miss 0
Core_0_STLB_L1D_Prefetch_miss_rate 0
Core_0_STLB_Other_miss 0
Core_0_STLB_Other_miss_rate 0

========== vBerti-TLB Cross-page Flow Stats ==========

Core_0_vBerti_Requested 25981
Core_0_vBerti_Cross_page_prefetch_in_Requested 6047
Core_0_vBerti_Same_page_prefetch_in_Requested 19934
Core_0_vBerti_Cross_page_prefetch_of_Requested 0.232747
Core_0_vBerti_Issued 20547
Core_0_vBerti_InPQ_Same_page_prefetch 16985
Core_0_vBerti_InPQ_Cross_page_prefetch 3562
Core_0_vBerti_PQ_Drop_Rate 0.209153
Core_0_vBerti_InPQ_Cross_page_prefetch_of_Requested 0.1371
Core_0_vBerti_Cross_page_PQ_Drop_rate 0.410948
Core_0_vBerti_Cross_page_prefetch_of_Issued 0.173359
Core_0_CP_PF_PQFULL_drop 2485
Core_0_CP_PF_PQFULL_TLB_rescue_enqueued 0
Core_0_CP_PF_PQFULL_TLB_rescue_issued 0
Core_0_CP_PF_PQFULL_TLB_rescue_translated 0

========= DTLB_vBerti Prefetch Stats =========
Core_0_DTLB_demand_access 21318247
Core_0_DTLB_demand_hit 19612549
Core_0_DTLB_demand_miss 1705698
Core_0_DTLB_demand_mshr_merge 453311
Core_0_DTLB_demand_fill 1252387
Core_0_DTLB_demand_miss_rate 0.0800112
Core_0_DTLB_demand_mpki 17.057
Core_0_DTLB_vberti_prefetch_access 14663
Core_0_DTLB_vberti_prefetch_hit 14663
Core_0_DTLB_vberti_prefetch_miss 0
Core_0_DTLB_vberti_prefetch_mshr_merge 0
Core_0_DTLB_vberti_prefetch_fill 0
Core_0_DTLB_vberti_prefetch_miss_rate 0
Core_0_DTLB_vberti_prefetch_mpki 0

=== DTLB_vBerti Same/Cross-page Prefetch Stats ===
Core_0_DTLB_vberti_same_page_prefetch 12352
Core_0_DTLB_vberti_same_page_prefetch_hit 12352
Core_0_DTLB_vberti_same_page_prefetch_miss 0
Core_0_DTLB_vberti_same_page_prefetch_mshr_merge 0
Core_0_DTLB_vberti_same_page_prefetch_fill 0
Core_0_DTLB_vberti_same_page_prefetch_miss_rate 0
Core_0_DTLB_vberti_same_page_prefetch_mpki 0
Core_0_DTLB_vberti_cross_page_prefetch 2311
Core_0_DTLB_vberti_cross_page_prefetch_hit 2311
Core_0_DTLB_vberti_cross_page_prefetch_miss 0
Core_0_DTLB_vberti_cross_page_prefetch_mshr_merge 0
Core_0_DTLB_vberti_cross_page_prefetch_fill 0
Core_0_DTLB_vberti_cross_page_prefetch_miss_rate 0
Core_0_DTLB_vberti_cross_page_prefetch_mpki 0
Core_0_DTLB_same_page_prefetch_miss_rate 0
Core_0_DTLB_same_page_prefetch_mpki 0
Core_0_DTLB_cross_page_prefetch_miss_rate 0
Core_0_DTLB_cross_page_prefetch_mpki 0
Core_0_DTLB_cross_page_prefetch_issued 2311
Core_0_DTLB_cross_page_prefetch_lookups 2311
Core_0_DTLB_cross_page_prefetch_useful 0
Core_0_DTLB_cross_page_prefetch_useless 0
Core_0_DTLB_cross_page_prefetch_late 0
Core_0_DTLB_cross_page_prefetch_too_early 0
Core_0_DTLB_cross_page_prefetch_too_early_among_fill 0
Core_0_DTLB_cross_page_prefetch_too_early_among_useless 0
Core_0_DTLB_cross_page_prefetch_pollution_evict 0
Core_0_DTLB_cross_page_prefetch_pollution_demand 0
Core_0_DTLB_cross_page_prefetch_pollution_among_prefetch_fill 0
Core_0_DTLB_cross_page_prefetch_accuracy 0
Core_0_DTLB_cross_page_prefetch_coverage 0

========= STLB_vBerti Prefetch Stats =========
Core_0_STLB_demand_access 1632557
Core_0_STLB_demand_hit 1472367
Core_0_STLB_demand_miss 160190
Core_0_STLB_demand_mshr_merge 0
Core_0_STLB_demand_fill 160190
Core_0_STLB_demand_miss_rate 0.0981221
Core_0_STLB_demand_mpki 1.6019
Core_0_STLB_vberti_prefetch_access 0
Core_0_STLB_vberti_prefetch_hit 0
Core_0_STLB_vberti_prefetch_miss 0
Core_0_STLB_vberti_prefetch_mshr_merge 0
Core_0_STLB_vberti_prefetch_fill 0
Core_0_STLB_vberti_prefetch_miss_rate 0
Core_0_STLB_vberti_prefetch_mpki 0

=== STLB_vBerti Same/Cross-page Prefetch Stats ===
Core_0_STLB_vberti_same_page_prefetch 0
Core_0_STLB_vberti_same_page_prefetch_hit 0
Core_0_STLB_vberti_same_page_prefetch_miss 0
Core_0_STLB_vberti_same_page_prefetch_mshr_merge 0
Core_0_STLB_vberti_same_page_prefetch_fill 0
Core_0_STLB_vberti_same_page_prefetch_miss_rate 0
Core_0_STLB_vberti_same_page_prefetch_mpki 0
Core_0_STLB_vberti_cross_page_prefetch 0
Core_0_STLB_vberti_cross_page_prefetch_hit 0
Core_0_STLB_vberti_cross_page_prefetch_miss 0
Core_0_STLB_vberti_cross_page_prefetch_mshr_merge 0
Core_0_STLB_vberti_cross_page_prefetch_fill 0
Core_0_STLB_vberti_cross_page_prefetch_miss_rate 0
Core_0_STLB_vberti_cross_page_prefetch_mpki 0
Core_0_STLB_same_page_prefetch_miss_rate 0
Core_0_STLB_same_page_prefetch_mpki 0
Core_0_STLB_cross_page_prefetch_miss_rate 0
Core_0_STLB_cross_page_prefetch_mpki 0
Core_0_STLB_cross_page_prefetch_issued 0
Core_0_STLB_cross_page_prefetch_lookups 0
Core_0_STLB_cross_page_prefetch_useful 0
Core_0_STLB_cross_page_prefetch_useless 0
Core_0_STLB_cross_page_prefetch_late 0
Core_0_STLB_cross_page_prefetch_too_early 0
Core_0_STLB_cross_page_prefetch_too_early_among_fill 0
Core_0_STLB_cross_page_prefetch_too_early_among_useless 0
Core_0_STLB_cross_page_prefetch_pollution_evict 0
Core_0_STLB_cross_page_prefetch_pollution_demand 0
Core_0_STLB_cross_page_prefetch_pollution_among_prefetch_fill 0
Core_0_STLB_cross_page_prefetch_accuracy 0
Core_0_STLB_cross_page_prefetch_coverage 0

========= STLB Cross-page Prefetch Buffer Stats =========
Core_0_STLB_raw_demand_miss 104306
Core_0_CP_PB_insert 0
Core_0_CP_PB_demand_hit 0
Core_0_STLB_PB_demand_miss 104306
Core_0_CP_PB_coverage 0
Core_0_STLB_raw_demand_mpki 1.04306
Core_0_STLB_PB_demand_mpki 1.04306
Core_0_CP_PB_demand_hit_mpki 0

Core_0_TLB_demand_miss_rate 0.00751422
Core_0_TLB_demand_mpki 1.6019
Core_0_TLB_same_page_prefetch_miss_rate 0
Core_0_TLB_same_page_prefetch_mpki 0
Core_0_TLB_cross_page_prefetch_miss_rate 0
Core_0_TLB_cross_page_prefetch_mpki 0
Core_0_TLB_cross_page_prefetch_issued 2311
Core_0_TLB_cross_page_prefetch_lookups 2311
Core_0_TLB_cross_page_prefetch_useful 0
Core_0_TLB_cross_page_prefetch_useless 0
Core_0_TLB_cross_page_prefetch_late 0
Core_0_TLB_cross_page_prefetch_too_early 0
Core_0_TLB_cross_page_prefetch_too_early_among_fill 0
Core_0_TLB_cross_page_prefetch_too_early_among_useless 0
Core_0_TLB_cross_page_prefetch_accuracy 0
Core_0_TLB_cross_page_prefetch_coverage 0
====== vBerti internal metric ========
Core_0_vBerti_end_to_end_issued 16985
Core_0_vBerti_end_to_end_useful 11
Core_0_vBerti_end_to_end_late 2
Core_0_vBerti_end_to_end_accuracy 0.00064763
Core_0_vBerti_end_to_end_timely_accuracy 0.000529879
BERTI TO_L1: 10238 TO_L2: 9696 TO_L2_BC_MSHR: 3
BERTI AVG_LAT: 35.381 NUM_TRACK_LATENCY: 1263195 NUM_CANT_TRACK_LATENCY: 0
BERTI CROSS_PAGE 6047 NO_CROSS_PAGE: 19934
BERTI FOUND_BERTI: 677674 NO_FOUND_BERTI: 22117437
BERTI AVERAGE_ISSUED: 6.7257
