[VMEM] WARNING: physical memory size is smaller than virtual memory size.

*** ChampSim Multicore Out-of-Order Simulator ***
Warmup Instructions: 50000000
Simulation Instructions: 100000000
Number of CPUs: 1
Page size: 4096
Core 0: /data0/tzh/champsim_traces/QMM/srv_69_new.xz
VBerti Prefetcher
BERTI HASH ENTANGLING
BERTI IP MASK ffff
Off-chip DRAM Size: 16 GiB Channels: 1 Width: 64-bit Data Rate: 3205 MT/s
[BTB] WARNING: target of return is a lower address than the corresponding call. This is usually a problem with your trace.
[BTB] WARNING: target of return is a lower address than the corresponding call. This is usually a problem with your trace.
[BTB] WARNING: target of return is a lower address than the corresponding call. This is usually a problem with your trace.
[BTB] WARNING: target of return is a lower address than the corresponding call. This is usually a problem with your trace.
[BTB] WARNING: target of return is a lower address than the corresponding call. This is usually a problem with your trace.
[BTB] WARNING: target of return is a lower address than the corresponding call. This is usually a problem with your trace.
[BTB] WARNING: target of return is a lower address than the corresponding call. This is usually a problem with your trace.
[BTB] WARNING: target of return is a lower address than the corresponding call. This is usually a problem with your trace.
[BTB] WARNING: target of return is a lower address than the corresponding call. This is usually a problem with your trace.
[BTB] WARNING: target of return is a lower address than the corresponding call. This is usually a problem with your trace.
*** Reached end of trace: (0, "/data0/tzh/champsim_traces/QMM/srv_69_new.xz")
Warmup halting CPU 0 at instruction 50000003 cycle 10953296 for remainder of phase
Warmup finished CPU 0 instructions: 50000003 cycles: 10953296 cumulative IPC: 4.565 (Simulation time: 00 hr 02 min 43 sec)
Warmup complete CPU 0 instructions: 50000003 cycles: 10953296 cumulative IPC: 4.565 (Simulation time: 00 hr 02 min 43 sec)
*** Reached end of trace: (0, "/data0/tzh/champsim_traces/QMM/srv_69_new.xz")
*** Reached end of trace: (0, "/data0/tzh/champsim_traces/QMM/srv_69_new.xz")
*** Reached end of trace: (0, "/data0/tzh/champsim_traces/QMM/srv_69_new.xz")
Simulation finished CPU 0 instructions: 100000001 cycles: 66440493 cumulative IPC: 1.505 (Simulation time: 00 hr 12 min 10 sec)
Simulation complete CPU 0 instructions: 100000001 cycles: 66440493 cumulative IPC: 1.505 (Simulation time: 00 hr 12 min 10 sec)

ChampSim completed all CPUs

=== Simulation ===
CPU 0 runs /data0/tzh/champsim_traces/QMM/srv_69_new.xz

Region of Interest Statistics

CPU 0 cumulative IPC: 1.505 instructions: 100000001 cycles: 66440493
CPU 0 Branch Prediction Accuracy: 97% MPKI: 5.401 Average ROB Occupancy at Mispredict: 81.64
Branch type MPKI
BRANCH_DIRECT_JUMP: 0.403
BRANCH_INDIRECT: 0.7142
BRANCH_CONDITIONAL: 2.645
BRANCH_DIRECT_CALL: 0.7611
BRANCH_INDIRECT_CALL: 0.1888
BRANCH_RETURN: 0.6893

cpu0->cpu0_STLB TOTAL        ACCESS:    1598972 HIT:    1372125 MISS:     226847 MSHR_MERGE:          0
cpu0->cpu0_STLB LOAD         ACCESS:    1598972 HIT:    1372125 MISS:     226847 MSHR_MERGE:          0
cpu0->cpu0_STLB RFO          ACCESS:          0 HIT:          0 MISS:          0 MSHR_MERGE:          0
cpu0->cpu0_STLB PREFETCH     ACCESS:          0 HIT:          0 MISS:          0 MSHR_MERGE:          0
cpu0->cpu0_STLB WRITE        ACCESS:          0 HIT:          0 MISS:          0 MSHR_MERGE:          0
cpu0->cpu0_STLB TRANSLATION  ACCESS:          0 HIT:          0 MISS:          0 MSHR_MERGE:          0
cpu0->cpu0_STLB PREFETCH REQUESTED:          0 ISSUED:          0 USEFUL:          0 USELESS:          0 LATE:          0 TOO_EARLY:          0
cpu0->cpu0_STLB AVERAGE MISS LATENCY: 30.49 cycles
cpu0->cpu0_L2C TOTAL        ACCESS:    4538736 HIT:    2543861 MISS:    1994875 MSHR_MERGE:       4859
cpu0->cpu0_L2C LOAD         ACCESS:    3620404 HIT:    1877289 MISS:    1743115 MSHR_MERGE:       1260
cpu0->cpu0_L2C RFO          ACCESS:     170470 HIT:      71371 MISS:      99099 MSHR_MERGE:          5
cpu0->cpu0_L2C PREFETCH     ACCESS:      59469 HIT:      31348 MISS:      28121 MSHR_MERGE:       3594
cpu0->cpu0_L2C WRITE        ACCESS:     498185 HIT:     495676 MISS:       2509 MSHR_MERGE:          0
cpu0->cpu0_L2C TRANSLATION  ACCESS:     190208 HIT:      68177 MISS:     122031 MSHR_MERGE:          0
cpu0->cpu0_L2C PREFETCH REQUESTED:      67230 ISSUED:      47980 USEFUL:      10448 USELESS:       9287 LATE:        503 TOO_EARLY:        517
cpu0->cpu0_L2C AVERAGE MISS LATENCY: 28.61 cycles
cpu0->cpu0_L1I TOTAL        ACCESS:   15246949 HIT:   11257893 MISS:    3989056 MSHR_MERGE:    1460897
cpu0->cpu0_L1I LOAD         ACCESS:   15246949 HIT:   11257893 MISS:    3989056 MSHR_MERGE:    1460897
cpu0->cpu0_L1I RFO          ACCESS:          0 HIT:          0 MISS:          0 MSHR_MERGE:          0
cpu0->cpu0_L1I PREFETCH     ACCESS:          0 HIT:          0 MISS:          0 MSHR_MERGE:          0
cpu0->cpu0_L1I WRITE        ACCESS:          0 HIT:          0 MISS:          0 MSHR_MERGE:          0
cpu0->cpu0_L1I TRANSLATION  ACCESS:          0 HIT:          0 MISS:          0 MSHR_MERGE:          0
cpu0->cpu0_L1I PREFETCH REQUESTED:          0 ISSUED:          0 USEFUL:          0 USELESS:          0 LATE:          0 TOO_EARLY:          0
cpu0->cpu0_L1I AVERAGE MISS LATENCY: 15.26 cycles
cpu0->cpu0_L1D TOTAL        ACCESS:   24107108 HIT:   21945258 MISS:    2161850 MSHR_MERGE:     696207
cpu0->cpu0_L1D LOAD         ACCESS:   13530255 HIT:   12057533 MISS:    1472722 MSHR_MERGE:     380469
cpu0->cpu0_L1D RFO          ACCESS:          0 HIT:          0 MISS:          0 MSHR_MERGE:          0
cpu0->cpu0_L1D PREFETCH     ACCESS:     134247 HIT:     120187 MISS:      14060 MSHR_MERGE:       1357
cpu0->cpu0_L1D WRITE        ACCESS:    9939865 HIT:    9458345 MISS:     481520 MSHR_MERGE:     311041
cpu0->cpu0_L1D TRANSLATION  ACCESS:     502741 HIT:     309193 MISS:     193548 MSHR_MERGE:       3340
cpu0->cpu0_L1D PREFETCH REQUESTED:     258626 ISSUED:     155409 USEFUL:       2304 USELESS:       1298 LATE:        982 TOO_EARLY:          4
cpu0->cpu0_L1D AVERAGE MISS LATENCY: 34.29 cycles
cpu0->cpu0_ITLB TOTAL        ACCESS:   12896945 HIT:   11898680 MISS:     998265 MSHR_MERGE:     610662
cpu0->cpu0_ITLB LOAD         ACCESS:   12896945 HIT:   11898680 MISS:     998265 MSHR_MERGE:     610662
cpu0->cpu0_ITLB RFO          ACCESS:          0 HIT:          0 MISS:          0 MSHR_MERGE:          0
cpu0->cpu0_ITLB PREFETCH     ACCESS:          0 HIT:          0 MISS:          0 MSHR_MERGE:          0
cpu0->cpu0_ITLB WRITE        ACCESS:          0 HIT:          0 MISS:          0 MSHR_MERGE:          0
cpu0->cpu0_ITLB TRANSLATION  ACCESS:          0 HIT:          0 MISS:          0 MSHR_MERGE:          0
cpu0->cpu0_ITLB PREFETCH REQUESTED:          0 ISSUED:          0 USEFUL:          0 USELESS:          0 LATE:          0 TOO_EARLY:          0
cpu0->cpu0_ITLB AVERAGE MISS LATENCY: 10.53 cycles
cpu0->cpu0_DTLB TOTAL        ACCESS:   22297690 HIT:   20648305 MISS:    1649385 MSHR_MERGE:     438016
cpu0->cpu0_DTLB LOAD         ACCESS:   22297690 HIT:   20648305 MISS:    1649385 MSHR_MERGE:     438016
cpu0->cpu0_DTLB RFO          ACCESS:          0 HIT:          0 MISS:          0 MSHR_MERGE:          0
cpu0->cpu0_DTLB PREFETCH     ACCESS:          0 HIT:          0 MISS:          0 MSHR_MERGE:          0
cpu0->cpu0_DTLB WRITE        ACCESS:          0 HIT:          0 MISS:          0 MSHR_MERGE:          0
cpu0->cpu0_DTLB TRANSLATION  ACCESS:          0 HIT:          0 MISS:          0 MSHR_MERGE:          0
cpu0->cpu0_DTLB PREFETCH REQUESTED:          0 ISSUED:          0 USEFUL:          0 USELESS:          0 LATE:          0 TOO_EARLY:          0
cpu0->cpu0_DTLB AVERAGE MISS LATENCY: 9.141 cycles
cpu0->LLC TOTAL        ACCESS:    2283428 HIT:    2125245 MISS:     158183 MSHR_MERGE:          1
cpu0->LLC LOAD         ACCESS:    1741855 HIT:    1623368 MISS:     118487 MSHR_MERGE:          0
cpu0->LLC RFO          ACCESS:      99094 HIT:      75435 MISS:      23659 MSHR_MERGE:          0
cpu0->LLC PREFETCH     ACCESS:      24527 HIT:      16735 MISS:       7792 MSHR_MERGE:          1
cpu0->LLC WRITE        ACCESS:     295921 HIT:     291250 MISS:       4671 MSHR_MERGE:          0
cpu0->LLC TRANSLATION  ACCESS:     122031 HIT:     118457 MISS:       3574 MSHR_MERGE:          0
cpu0->LLC PREFETCH REQUESTED:          0 ISSUED:          0 USEFUL:          0 USELESS:          0 LATE:          0 TOO_EARLY:          0
cpu0->LLC AVERAGE MISS LATENCY: 177.4 cycles

DRAM Statistics

Channel 0 RQ ROW_BUFFER_HIT:       4573
  ROW_BUFFER_MISS:     148931
  AVG DBUS CONGESTED CYCLE: 16.42
Channel 0 WQ ROW_BUFFER_HIT:      22112
  ROW_BUFFER_MISS:      81734
  FULL:          0
Channel 0 REFRESHES ISSUED:       5537

[ROI Statistics]
[System Configuration]
num_cpus 1
cpu_freq 4000
fetch_width 6
decode_width 6
dispatch_width 6
execute_width 6
lq_width 2
sq_width 2
retire_width 6
scheduler_size 128
branch_mispredict_penalty 15
rob_size 352
lq_size 128
sq_size 72
ifetch_buffer_size 64
decode_buffer_size 32
dispatch_buffer_size 32
register_file_size 288
decode_latency 1
dispatch_latency 1
schedule_latency 1
execute_latency 1
page_size 4096
block_size 64
core_0_itlb_set 16
core_0_itlb_way 4
core_0_itlb_rq_size 16
core_0_itlb_wq_size 16
core_0_itlb_pq_size 0
core_0_itlb_mshr_size 8
core_0_itlb_hit_latency 1
core_0_itlb_fill_latency 1
core_0_itlb_max_tag_check 2
core_0_itlb_max_fill 2
core_0_dtlb_set 16
core_0_dtlb_way 4
core_0_dtlb_rq_size 16
core_0_dtlb_wq_size 16
core_0_dtlb_pq_size 0
core_0_dtlb_mshr_size 8
core_0_dtlb_hit_latency 1
core_0_dtlb_fill_latency 1
core_0_dtlb_max_tag_check 2
core_0_dtlb_max_fill 2
core_0_stlb_set 128
core_0_stlb_way 12
core_0_stlb_rq_size 32
core_0_stlb_wq_size 32
core_0_stlb_pq_size 0
core_0_stlb_mshr_size 16
core_0_stlb_hit_latency 4
core_0_stlb_fill_latency 4
core_0_stlb_max_tag_check 1
core_0_stlb_max_fill 1
core_0_l1i_set 64
core_0_l1i_way 8
core_0_l1i_rq_size 64
core_0_l1i_wq_size 64
core_0_l1i_pq_size 32
core_0_l1i_mshr_size 8
core_0_l1i_hit_latency 2
core_0_l1i_fill_latency 2
core_0_l1i_max_tag_check 2
core_0_l1i_max_fill 2
core_0_l1d_set 64
core_0_l1d_way 12
core_0_l1d_rq_size 64
core_0_l1d_wq_size 64
core_0_l1d_pq_size 8
core_0_l1d_mshr_size 16
core_0_l1d_hit_latency 2
core_0_l1d_fill_latency 3
core_0_l1d_max_tag_check 2
core_0_l1d_max_fill 2
core_0_l2c_set 1024
core_0_l2c_way 8
core_0_l2c_rq_size 32
core_0_l2c_wq_size 32
core_0_l2c_pq_size 16
core_0_l2c_mshr_size 32
core_0_l2c_hit_latency 5
core_0_l2c_fill_latency 5
core_0_l2c_max_tag_check 1
core_0_l2c_max_fill 1
llc_set 2048
llc_way 16
llc_rq_size 32
llc_wq_size 32
llc_pq_size 32
llc_mshr_size 64
llc_hit_latency 10
llc_fill_latency 10
llc_max_tag_check 1
llc_max_fill 1
dram_channels 1
dram_ranks 1
dram_bankgroups 8
dram_banks 4
dram_rows 65536
dram_columns 1024
dram_channel_width 8
dram_rq_size 64
dram_wq_size 64
dram_size 17179869184
core_0_itlb_prefetcher no
core_0_dtlb_prefetcher no
core_0_stlb_prefetcher no
core_0_l1i_prefetcher next_line
core_0_l1d_prefetcher vberti
core_0_l2c_prefetcher ip_stride
llc_prefetcher no
llc_replacement drrip

Core_0_instructions 100000001
Core_0_cycles 66440493
Core_0_IPC 1.50511
Core_0_branch_prediction_accuracy 97.0027
Core_0_branch_MPKI 5.40134
Core_0_average_ROB_occupancy_at_mispredict 81.643

Core_0_ITLB_total_access 12896945
Core_0_ITLB_total_hit 11898680
Core_0_ITLB_total_miss 998265
Core_0_ITLB_total_MPKI 9.98265
Core_0_ITLB_total_miss_rate 0.0774032
Core_0_ITLB_demand_access 12896945
Core_0_ITLB_demand_hit 11898680
Core_0_ITLB_demand_miss 998265
Core_0_ITLB_demand_MPKI 9.98265
Core_0_ITLB_demand_miss_rate 0.0774032
Core_0_ITLB_load_access 12896945
Core_0_ITLB_load_hit 11898680
Core_0_ITLB_load_miss 998265
Core_0_ITLB_load_MPKI 9.98265
Core_0_ITLB_load_miss_rate 0.0774032
Core_0_ITLB_rfo_access 0
Core_0_ITLB_rfo_hit 0
Core_0_ITLB_rfo_miss 0
Core_0_ITLB_rfo_MPKI 0
Core_0_ITLB_rfo_miss_rate 0
Core_0_ITLB_prefetch_access 0
Core_0_ITLB_prefetch_hit 0
Core_0_ITLB_prefetch_miss 0
Core_0_ITLB_prefetch_MPKI 0
Core_0_ITLB_prefetch_miss_rate 0
Core_0_ITLB_writeback_access 0
Core_0_ITLB_writeback_hit 0
Core_0_ITLB_writeback_miss 0
Core_0_ITLB_writeback_MPKI 0
Core_0_ITLB_writeback_miss_rate 0
Core_0_ITLB_prefetch_requested 0
Core_0_ITLB_prefetch_issued 0
Core_0_ITLB_prefetch_useful 0
Core_0_ITLB_prefetch_useless 0
Core_0_ITLB_prefetch_late 0
Core_0_ITLB_prefetch_fill 0
Core_0_ITLB_prefetch_too_early 0
Core_0_ITLB_prefetch_too_early_among_fill 0
Core_0_ITLB_prefetch_too_early_among_useless 0
Core_0_ITLB_prefetch_pollution_evict 0
Core_0_ITLB_prefetch_pollution_demand 0
Core_0_ITLB_prefetch_pollution_among_prefetch_fill 0
Core_0_ITLB_prefetch_accuracy 0
Core_0_ITLB_prefetch_coverage 0

Core_0_DTLB_total_access 22297690
Core_0_DTLB_total_hit 20648305
Core_0_DTLB_total_miss 1649385
Core_0_DTLB_total_MPKI 16.4938
Core_0_DTLB_total_miss_rate 0.0739711
Core_0_DTLB_demand_access 22297690
Core_0_DTLB_demand_hit 20648305
Core_0_DTLB_demand_miss 1649385
Core_0_DTLB_demand_MPKI 16.4938
Core_0_DTLB_demand_miss_rate 0.0739711
Core_0_DTLB_load_access 22297690
Core_0_DTLB_load_hit 20648305
Core_0_DTLB_load_miss 1649385
Core_0_DTLB_load_MPKI 16.4938
Core_0_DTLB_load_miss_rate 0.0739711
Core_0_DTLB_rfo_access 0
Core_0_DTLB_rfo_hit 0
Core_0_DTLB_rfo_miss 0
Core_0_DTLB_rfo_MPKI 0
Core_0_DTLB_rfo_miss_rate 0
Core_0_DTLB_prefetch_access 0
Core_0_DTLB_prefetch_hit 0
Core_0_DTLB_prefetch_miss 0
Core_0_DTLB_prefetch_MPKI 0
Core_0_DTLB_prefetch_miss_rate 0
Core_0_DTLB_writeback_access 0
Core_0_DTLB_writeback_hit 0
Core_0_DTLB_writeback_miss 0
Core_0_DTLB_writeback_MPKI 0
Core_0_DTLB_writeback_miss_rate 0
Core_0_DTLB_prefetch_requested 0
Core_0_DTLB_prefetch_issued 0
Core_0_DTLB_prefetch_useful 0
Core_0_DTLB_prefetch_useless 0
Core_0_DTLB_prefetch_late 0
Core_0_DTLB_prefetch_fill 0
Core_0_DTLB_prefetch_too_early 0
Core_0_DTLB_prefetch_too_early_among_fill 0
Core_0_DTLB_prefetch_too_early_among_useless 0
Core_0_DTLB_prefetch_pollution_evict 0
Core_0_DTLB_prefetch_pollution_demand 0
Core_0_DTLB_prefetch_pollution_among_prefetch_fill 0
Core_0_DTLB_prefetch_accuracy 0
Core_0_DTLB_prefetch_coverage 0

Core_0_STLB_total_access 1598972
Core_0_STLB_total_hit 1372125
Core_0_STLB_total_miss 226847
Core_0_STLB_total_MPKI 2.26847
Core_0_STLB_total_miss_rate 0.141871
Core_0_STLB_demand_access 1598972
Core_0_STLB_demand_hit 1372125
Core_0_STLB_demand_miss 226847
Core_0_STLB_demand_MPKI 2.26847
Core_0_STLB_demand_miss_rate 0.141871
Core_0_STLB_load_access 1598972
Core_0_STLB_load_hit 1372125
Core_0_STLB_load_miss 226847
Core_0_STLB_load_MPKI 2.26847
Core_0_STLB_load_miss_rate 0.141871
Core_0_STLB_rfo_access 0
Core_0_STLB_rfo_hit 0
Core_0_STLB_rfo_miss 0
Core_0_STLB_rfo_MPKI 0
Core_0_STLB_rfo_miss_rate 0
Core_0_STLB_prefetch_access 0
Core_0_STLB_prefetch_hit 0
Core_0_STLB_prefetch_miss 0
Core_0_STLB_prefetch_MPKI 0
Core_0_STLB_prefetch_miss_rate 0
Core_0_STLB_writeback_access 0
Core_0_STLB_writeback_hit 0
Core_0_STLB_writeback_miss 0
Core_0_STLB_writeback_MPKI 0
Core_0_STLB_writeback_miss_rate 0
Core_0_STLB_prefetch_requested 0
Core_0_STLB_prefetch_issued 0
Core_0_STLB_prefetch_useful 0
Core_0_STLB_prefetch_useless 0
Core_0_STLB_prefetch_late 0
Core_0_STLB_prefetch_fill 0
Core_0_STLB_prefetch_too_early 0
Core_0_STLB_prefetch_too_early_among_fill 0
Core_0_STLB_prefetch_too_early_among_useless 0
Core_0_STLB_prefetch_pollution_evict 0
Core_0_STLB_prefetch_pollution_demand 0
Core_0_STLB_prefetch_pollution_among_prefetch_fill 0
Core_0_STLB_prefetch_accuracy 0
Core_0_STLB_prefetch_coverage 0

Core_0_L1I_total_access 15246949
Core_0_L1I_total_hit 11257893
Core_0_L1I_total_miss 3989056
Core_0_L1I_total_MPKI 39.8906
Core_0_L1I_total_miss_rate 0.26163
Core_0_L1I_demand_access 15246949
Core_0_L1I_demand_hit 11257893
Core_0_L1I_demand_miss 3989056
Core_0_L1I_demand_MPKI 39.8906
Core_0_L1I_demand_miss_rate 0.26163
Core_0_L1I_load_access 15246949
Core_0_L1I_load_hit 11257893
Core_0_L1I_load_miss 3989056
Core_0_L1I_load_MPKI 39.8906
Core_0_L1I_load_miss_rate 0.26163
Core_0_L1I_rfo_access 0
Core_0_L1I_rfo_hit 0
Core_0_L1I_rfo_miss 0
Core_0_L1I_rfo_MPKI 0
Core_0_L1I_rfo_miss_rate 0
Core_0_L1I_prefetch_access 0
Core_0_L1I_prefetch_hit 0
Core_0_L1I_prefetch_miss 0
Core_0_L1I_prefetch_MPKI 0
Core_0_L1I_prefetch_miss_rate 0
Core_0_L1I_writeback_access 0
Core_0_L1I_writeback_hit 0
Core_0_L1I_writeback_miss 0
Core_0_L1I_writeback_MPKI 0
Core_0_L1I_writeback_miss_rate 0
Core_0_L1I_prefetch_requested 0
Core_0_L1I_prefetch_issued 0
Core_0_L1I_prefetch_useful 0
Core_0_L1I_prefetch_useless 0
Core_0_L1I_prefetch_late 0
Core_0_L1I_prefetch_fill 0
Core_0_L1I_prefetch_too_early 0
Core_0_L1I_prefetch_too_early_among_fill 0
Core_0_L1I_prefetch_too_early_among_useless 0
Core_0_L1I_prefetch_pollution_evict 0
Core_0_L1I_prefetch_pollution_demand 0
Core_0_L1I_prefetch_pollution_among_prefetch_fill 0
Core_0_L1I_prefetch_accuracy 0
Core_0_L1I_prefetch_coverage 0

Core_0_L1D_total_access 23604367
Core_0_L1D_total_hit 21636065
Core_0_L1D_total_miss 1968302
Core_0_L1D_total_MPKI 19.683
Core_0_L1D_total_miss_rate 0.0833872
Core_0_L1D_demand_access 13530255
Core_0_L1D_demand_hit 12057533
Core_0_L1D_demand_miss 1472722
Core_0_L1D_demand_MPKI 14.7272
Core_0_L1D_demand_miss_rate 0.108847
Core_0_L1D_load_access 13530255
Core_0_L1D_load_hit 12057533
Core_0_L1D_load_miss 1472722
Core_0_L1D_load_MPKI 14.7272
Core_0_L1D_load_miss_rate 0.108847
Core_0_L1D_rfo_access 0
Core_0_L1D_rfo_hit 0
Core_0_L1D_rfo_miss 0
Core_0_L1D_rfo_MPKI 0
Core_0_L1D_rfo_miss_rate 0
Core_0_L1D_prefetch_access 134247
Core_0_L1D_prefetch_hit 120187
Core_0_L1D_prefetch_miss 14060
Core_0_L1D_prefetch_MPKI 0.1406
Core_0_L1D_prefetch_miss_rate 0.104732
Core_0_L1D_writeback_access 9939865
Core_0_L1D_writeback_hit 9458345
Core_0_L1D_writeback_miss 481520
Core_0_L1D_writeback_MPKI 4.8152
Core_0_L1D_writeback_miss_rate 0.0484433
Core_0_L1D_prefetch_requested 258626
Core_0_L1D_prefetch_issued 155409
Core_0_L1D_prefetch_useful 2304
Core_0_L1D_prefetch_useless 1298
Core_0_L1D_prefetch_late 982
Core_0_L1D_prefetch_fill 2619
Core_0_L1D_prefetch_too_early 4
Core_0_L1D_prefetch_too_early_among_fill 0.0015273
Core_0_L1D_prefetch_too_early_among_useless 0.00308166
Core_0_L1D_prefetch_pollution_evict 1798
Core_0_L1D_prefetch_pollution_demand 1798
Core_0_L1D_cross_page_pf_translation_only_requested 36562
Core_0_L1D_cross_page_pf_translation_only_issued 21162
Core_0_L1D_cross_page_pf_translation_only_dropped 21162
Core_0_L1D_prefetch_pollution_among_prefetch_fill 0.686522
Core_0_L1D_prefetch_accuracy 0.0148254
Core_0_L1D_prefetch_coverage 0.00156201

Core_0_L2C_total_access 4348528
Core_0_L2C_total_hit 2475684
Core_0_L2C_total_miss 1872844
Core_0_L2C_total_MPKI 18.7284
Core_0_L2C_total_miss_rate 0.430685
Core_0_L2C_demand_access 3790874
Core_0_L2C_demand_hit 1948660
Core_0_L2C_demand_miss 1842214
Core_0_L2C_demand_MPKI 18.4221
Core_0_L2C_demand_miss_rate 0.48596
Core_0_L2C_load_access 3620404
Core_0_L2C_load_hit 1877289
Core_0_L2C_load_miss 1743115
Core_0_L2C_load_MPKI 17.4311
Core_0_L2C_load_miss_rate 0.48147
Core_0_L2C_rfo_access 170470
Core_0_L2C_rfo_hit 71371
Core_0_L2C_rfo_miss 99099
Core_0_L2C_rfo_MPKI 0.99099
Core_0_L2C_rfo_miss_rate 0.581328
Core_0_L2C_prefetch_access 59469
Core_0_L2C_prefetch_hit 31348
Core_0_L2C_prefetch_miss 28121
Core_0_L2C_prefetch_MPKI 0.28121
Core_0_L2C_prefetch_miss_rate 0.472868
Core_0_L2C_writeback_access 498185
Core_0_L2C_writeback_hit 495676
Core_0_L2C_writeback_miss 2509
Core_0_L2C_writeback_MPKI 0.02509
Core_0_L2C_writeback_miss_rate 0.00503628
Core_0_L2C_prefetch_requested 67230
Core_0_L2C_prefetch_issued 47980
Core_0_L2C_prefetch_useful 10448
Core_0_L2C_prefetch_useless 9287
Core_0_L2C_prefetch_late 503
Core_0_L2C_prefetch_fill 23256
Core_0_L2C_prefetch_too_early 517
Core_0_L2C_prefetch_too_early_among_fill 0.0222308
Core_0_L2C_prefetch_too_early_among_useless 0.0556692
Core_0_L2C_prefetch_pollution_evict 20944
Core_0_L2C_prefetch_pollution_demand 20930
Core_0_L2C_prefetch_pollution_among_prefetch_fill 0.900585
Core_0_L2C_prefetch_accuracy 0.217757
Core_0_L2C_prefetch_coverage 0.00563945

Core_0_LLC_total_access 2161397
Core_0_LLC_total_hit 2006788
Core_0_LLC_total_miss 154609
Core_0_LLC_total_MPKI 1.54609
Core_0_LLC_total_miss_rate 0.071532
Core_0_LLC_demand_access 1840949
Core_0_LLC_demand_hit 1698803
Core_0_LLC_demand_miss 142146
Core_0_LLC_demand_MPKI 1.42146
Core_0_LLC_demand_miss_rate 0.0772134
Core_0_LLC_load_access 1741855
Core_0_LLC_load_hit 1623368
Core_0_LLC_load_miss 118487
Core_0_LLC_load_MPKI 1.18487
Core_0_LLC_load_miss_rate 0.0680235
Core_0_LLC_rfo_access 99094
Core_0_LLC_rfo_hit 75435
Core_0_LLC_rfo_miss 23659
Core_0_LLC_rfo_MPKI 0.23659
Core_0_LLC_rfo_miss_rate 0.238753
Core_0_LLC_prefetch_access 24527
Core_0_LLC_prefetch_hit 16735
Core_0_LLC_prefetch_miss 7792
Core_0_LLC_prefetch_MPKI 0.07792
Core_0_LLC_prefetch_miss_rate 0.317691
Core_0_LLC_writeback_access 295921
Core_0_LLC_writeback_hit 291250
Core_0_LLC_writeback_miss 4671
Core_0_LLC_writeback_MPKI 0.04671
Core_0_LLC_writeback_miss_rate 0.0157846
Core_0_LLC_prefetch_requested 0
Core_0_LLC_prefetch_issued 0
Core_0_LLC_prefetch_useful 0
Core_0_LLC_prefetch_useless 0
Core_0_LLC_prefetch_late 0
Core_0_LLC_prefetch_fill 7791
Core_0_LLC_prefetch_too_early 0
Core_0_LLC_prefetch_too_early_among_fill 0
Core_0_LLC_prefetch_too_early_among_useless 0
Core_0_LLC_prefetch_pollution_evict 5812
Core_0_LLC_prefetch_pollution_demand 5812
Core_0_LLC_prefetch_pollution_among_prefetch_fill 0.745989
Core_0_LLC_prefetch_accuracy 0
Core_0_LLC_prefetch_coverage 0

[DRAM Statistics]
Channel_0_RQ_row_buffer_hit 4573
Channel_0_RQ_row_buffer_miss 148931
Channel_0_WQ_row_buffer_hit 22112
Channel_0_WQ_row_buffer_miss 81734
Channel_0_WQ_full 0
Channel_0_dbus_congested 779555
DRAM_total_RQ_row_buffer_hit 4573
DRAM_total_RQ_row_buffer_miss 148931
DRAM_total_WQ_row_buffer_hit 22112
DRAM_total_WQ_row_buffer_miss 81734
DRAM_total_WQ_full 0
DRAM_total_dbus_congested 779555
DRAM_avg_congested_cycle 16.42

====== DRAM_RQ_TRAFFIC ========
DRAM_RQ_READ_TRAFFIC_BREAKDOWN:
data_demand_read.count = 131469
data_demand_read.share = 85.64%

inst_demand_read.count = 10677
inst_demand_read.share = 6.96%

cache_inst_prefetch.count = 0
cache_inst_prefetch.share = 0.00%

cache_data_prefetch.count = 7791
cache_data_prefetch.share = 5.08%

stlb_data_demand.count = 3309
stlb_data_demand.share = 2.16%

stlb_inst_demand.count = 264
stlb_inst_demand.share = 0.17%

stlb_l1i_pref.count = 0
stlb_l1i_pref.share = 0.00%

stlb_l1d_pref.count = 1
stlb_l1d_pref.share = 0.00%

DRAM_RQ_READ_TRAFFIC_SUMMARY:
cache_demand.count = 142146
cache_demand.share = 92.60%

cache_prefetch.count = 7791
cache_prefetch.share = 5.08%

stlb_demand.count = 3573
stlb_demand.share = 2.33%

stlb_prefetch.count = 1
stlb_prefetch.share = 0.00%

DRAM_RQ_READ_TRAFFIC_DEBUG:
total_classified_read.count = 153511
unclassified_read.count = 0
total_read_with_other.count = 153511

classified_plus_unclassified_check.count = 153511
dram_rq_read_total_observed.count = 153511
dram_rq_read_total_observed.per_1K_instructions = 1.53511

STLB_MISS_PTW_DRAM_TOUCH_BREAKDOWN:
stlb_miss_total.count = 226847

stlb_miss_touch_dram.count = 3530
stlb_miss_touch_dram.share = 1.56%

stlb_miss_no_dram_touch.count = 223317
stlb_miss_no_dram_touch.share = 98.44%

STLB_MISS_PTW_DRAM_TOUCH_DEBUG:
stlb_miss_touch_plus_no_touch.count = 226847
stlb_miss_total_check.count = 226847

======STLB miss causes ========
Core_0_STLB_miss_cause_breakdown
Core_0_STLB_cause_Demand_Data_miss 142292
Core_0_STLB_cause_Demand_Data_miss_rate 0.0889897
Core_0_STLB_cause_Demand_Instruction_miss 84422
Core_0_STLB_cause_Demand_Instruction_miss_rate 0.0527977
Core_0_STLB_cause_L1D_Prefetch_miss 133
Core_0_STLB_cause_L1D_Prefetch_miss_rate 8.31784e-05
Core_0_STLB_cause_L1D_Prefetch_Same_Page_miss 0
Core_0_STLB_cause_L1D_Prefetch_Same_Page_miss_rate 0
Core_0_STLB_cause_L1D_Prefetch_Cross_Page_miss 133
Core_0_STLB_cause_L1D_Prefetch_Cross_Page_miss_rate 8.31784e-05
Core_0_STLB_cause_L1I_Prefetch_miss 0
Core_0_STLB_cause_L1I_Prefetch_miss_rate 0
Core_0_STLB_cause_Other_miss 0
Core_0_STLB_cause_Other_miss_rate 0
Core_0_STLB_Demand_miss 226714
Core_0_STLB_Demand_miss_rate 0.141787
Core_0_STLB_L1D_Prefetch_miss 133
Core_0_STLB_L1D_Prefetch_miss_rate 8.31784e-05
Core_0_STLB_Other_miss 0
Core_0_STLB_Other_miss_rate 0

========== vBerti-TLB Cross-page Flow Stats ==========

Core_0_vBerti_Requested 258626
Core_0_vBerti_Cross_page_prefetch_in_Requested 36562
Core_0_vBerti_Same_page_prefetch_in_Requested 222064
Core_0_vBerti_Cross_page_prefetch_of_Requested 0.14137
Core_0_vBerti_Issued 155409
Core_0_vBerti_InPQ_Same_page_prefetch 134247
Core_0_vBerti_InPQ_Cross_page_prefetch 21162
Core_0_vBerti_PQ_Drop_Rate 0.399098
Core_0_vBerti_InPQ_Cross_page_prefetch_of_Requested 0.0818247
Core_0_vBerti_Cross_page_PQ_Drop_rate 0.421202
Core_0_vBerti_Cross_page_prefetch_of_Issued 0.13617
Core_0_CP_PF_PQFULL_drop 15400
Core_0_CP_PF_PQFULL_TLB_rescue_enqueued 0
Core_0_CP_PF_PQFULL_TLB_rescue_issued 0
Core_0_CP_PF_PQFULL_TLB_rescue_translated 0

========= DTLB_vBerti Prefetch Stats =========
Core_0_DTLB_demand_access 22187157
Core_0_DTLB_demand_hit 20538221
Core_0_DTLB_demand_miss 1648936
Core_0_DTLB_demand_mshr_merge 437722
Core_0_DTLB_demand_fill 1211289
Core_0_DTLB_demand_miss_rate 0.0743194
Core_0_DTLB_demand_mpki 16.4894
Core_0_DTLB_vberti_prefetch_access 110533
Core_0_DTLB_vberti_prefetch_hit 110084
Core_0_DTLB_vberti_prefetch_miss 449
Core_0_DTLB_vberti_prefetch_mshr_merge 294
Core_0_DTLB_vberti_prefetch_fill 80
Core_0_DTLB_vberti_prefetch_miss_rate 0.00406214
Core_0_DTLB_vberti_prefetch_mpki 0.00449

=== DTLB_vBerti Same/Cross-page Prefetch Stats ===
Core_0_DTLB_vberti_same_page_prefetch 97958
Core_0_DTLB_vberti_same_page_prefetch_hit 97958
Core_0_DTLB_vberti_same_page_prefetch_miss 0
Core_0_DTLB_vberti_same_page_prefetch_mshr_merge 0
Core_0_DTLB_vberti_same_page_prefetch_fill 0
Core_0_DTLB_vberti_same_page_prefetch_miss_rate 0
Core_0_DTLB_vberti_same_page_prefetch_mpki 0
Core_0_DTLB_vberti_cross_page_prefetch 12575
Core_0_DTLB_vberti_cross_page_prefetch_hit 12126
Core_0_DTLB_vberti_cross_page_prefetch_miss 449
Core_0_DTLB_vberti_cross_page_prefetch_mshr_merge 294
Core_0_DTLB_vberti_cross_page_prefetch_fill 80
Core_0_DTLB_vberti_cross_page_prefetch_miss_rate 0.0357058
Core_0_DTLB_vberti_cross_page_prefetch_mpki 0.00449
Core_0_DTLB_same_page_prefetch_miss_rate 0
Core_0_DTLB_same_page_prefetch_mpki 0
Core_0_DTLB_cross_page_prefetch_miss_rate 0.0357058
Core_0_DTLB_cross_page_prefetch_mpki 0.00449
Core_0_DTLB_cross_page_prefetch_issued 12575
Core_0_DTLB_cross_page_prefetch_lookups 12575
Core_0_DTLB_cross_page_prefetch_useful 114
Core_0_DTLB_cross_page_prefetch_useless 41
Core_0_DTLB_cross_page_prefetch_late 75
Core_0_DTLB_cross_page_prefetch_too_early 9
Core_0_DTLB_cross_page_prefetch_too_early_among_fill 0.1125
Core_0_DTLB_cross_page_prefetch_too_early_among_useless 0.219512
Core_0_DTLB_cross_page_prefetch_pollution_evict 79
Core_0_DTLB_cross_page_prefetch_pollution_demand 79
Core_0_DTLB_cross_page_prefetch_pollution_among_prefetch_fill 0.9875
Core_0_DTLB_cross_page_prefetch_accuracy 0.00906561
Core_0_DTLB_cross_page_prefetch_coverage 6.91307e-05

========= STLB_vBerti Prefetch Stats =========
Core_0_STLB_demand_access 1598817
Core_0_STLB_demand_hit 1372103
Core_0_STLB_demand_miss 226714
Core_0_STLB_demand_mshr_merge 0
Core_0_STLB_demand_fill 226714
Core_0_STLB_demand_miss_rate 0.141801
Core_0_STLB_demand_mpki 2.26714
Core_0_STLB_vberti_prefetch_access 155
Core_0_STLB_vberti_prefetch_hit 22
Core_0_STLB_vberti_prefetch_miss 133
Core_0_STLB_vberti_prefetch_mshr_merge 0
Core_0_STLB_vberti_prefetch_fill 133
Core_0_STLB_vberti_prefetch_miss_rate 0.858065
Core_0_STLB_vberti_prefetch_mpki 0.00133

=== STLB_vBerti Same/Cross-page Prefetch Stats ===
Core_0_STLB_vberti_same_page_prefetch 0
Core_0_STLB_vberti_same_page_prefetch_hit 0
Core_0_STLB_vberti_same_page_prefetch_miss 0
Core_0_STLB_vberti_same_page_prefetch_mshr_merge 0
Core_0_STLB_vberti_same_page_prefetch_fill 0
Core_0_STLB_vberti_same_page_prefetch_miss_rate 0
Core_0_STLB_vberti_same_page_prefetch_mpki 0
Core_0_STLB_vberti_cross_page_prefetch 155
Core_0_STLB_vberti_cross_page_prefetch_hit 22
Core_0_STLB_vberti_cross_page_prefetch_miss 133
Core_0_STLB_vberti_cross_page_prefetch_mshr_merge 0
Core_0_STLB_vberti_cross_page_prefetch_fill 133
Core_0_STLB_vberti_cross_page_prefetch_miss_rate 0.858065
Core_0_STLB_vberti_cross_page_prefetch_mpki 0.00133
Core_0_STLB_same_page_prefetch_miss_rate 0
Core_0_STLB_same_page_prefetch_mpki 0
Core_0_STLB_cross_page_prefetch_miss_rate 0.858065
Core_0_STLB_cross_page_prefetch_mpki 0.00133
Core_0_STLB_cross_page_prefetch_issued 155
Core_0_STLB_cross_page_prefetch_lookups 155
Core_0_STLB_cross_page_prefetch_useful 5
Core_0_STLB_cross_page_prefetch_useless 128
Core_0_STLB_cross_page_prefetch_late 0
Core_0_STLB_cross_page_prefetch_too_early 67
Core_0_STLB_cross_page_prefetch_too_early_among_fill 0.503759
Core_0_STLB_cross_page_prefetch_too_early_among_useless 0.523438
Core_0_STLB_cross_page_prefetch_pollution_evict 132
Core_0_STLB_cross_page_prefetch_pollution_demand 132
Core_0_STLB_cross_page_prefetch_pollution_among_prefetch_fill 0.992481
Core_0_STLB_cross_page_prefetch_accuracy 0.0322581
Core_0_STLB_cross_page_prefetch_coverage 2.20537e-05

========= STLB Cross-page Prefetch Buffer Stats =========
Core_0_STLB_raw_demand_miss 142292
Core_0_CP_PB_insert 0
Core_0_CP_PB_demand_hit 0
Core_0_STLB_PB_demand_miss 142292
Core_0_CP_PB_coverage 0
Core_0_STLB_raw_demand_mpki 1.42292
Core_0_STLB_PB_demand_mpki 1.42292
Core_0_CP_PB_demand_hit_mpki 0

Core_0_TLB_demand_miss_rate 0.0102183
Core_0_TLB_demand_mpki 2.26714
Core_0_TLB_same_page_prefetch_miss_rate 0
Core_0_TLB_same_page_prefetch_mpki 0
Core_0_TLB_cross_page_prefetch_miss_rate 0.0105765
Core_0_TLB_cross_page_prefetch_mpki 0.00133
Core_0_TLB_cross_page_prefetch_issued 12575
Core_0_TLB_cross_page_prefetch_lookups 12575
Core_0_TLB_cross_page_prefetch_useful 43
Core_0_TLB_cross_page_prefetch_useless 41
Core_0_TLB_cross_page_prefetch_late 29
Core_0_TLB_cross_page_prefetch_too_early 9
Core_0_TLB_cross_page_prefetch_too_early_among_fill 0.0422535
Core_0_TLB_cross_page_prefetch_too_early_among_useless 0.219512
Core_0_TLB_cross_page_prefetch_accuracy 0.00341948
Core_0_TLB_cross_page_prefetch_coverage 0.00018963
====== vBerti internal metric ========
Core_0_vBerti_end_to_end_issued 134247
Core_0_vBerti_end_to_end_useful 1166
Core_0_vBerti_end_to_end_late 1059
Core_0_vBerti_end_to_end_accuracy 0.00868548
Core_0_vBerti_end_to_end_timely_accuracy 0.000797038
BERTI TO_L1: 85052 TO_L2: 137012 TO_L2_BC_MSHR: 12461
BERTI AVG_LAT: 37.0791 NUM_TRACK_LATENCY: 1265601 NUM_CANT_TRACK_LATENCY: 0
BERTI CROSS_PAGE 36562 NO_CROSS_PAGE: 222064
BERTI FOUND_BERTI: 841687 NO_FOUND_BERTI: 22693023
BERTI AVERAGE_ISSUED: 5.23527
