[VMEM] WARNING: physical memory size is smaller than virtual memory size.

*** ChampSim Multicore Out-of-Order Simulator ***
Warmup Instructions: 50000000
Simulation Instructions: 100000000
Number of CPUs: 1
Page size: 4096
Core 0: /data2/zcq/champsim_traces_gap/sssp.web-1185B.champsimtrace.xz
VBerti Prefetcher
BERTI HASH ENTANGLING
BERTI IP MASK ffff
Off-chip DRAM Size: 16 GiB Channels: 1 Width: 64-bit Data Rate: 3205 MT/s
Warmup halting CPU 0 at instruction 50000002 cycle 21954446 for remainder of phase
Warmup finished CPU 0 instructions: 50000002 cycles: 21954446 cumulative IPC: 2.277 (Simulation time: 00 hr 04 min 25 sec)
Warmup complete CPU 0 instructions: 50000002 cycles: 21954446 cumulative IPC: 2.277 (Simulation time: 00 hr 04 min 25 sec)
Simulation finished CPU 0 instructions: 100000001 cycles: 271579761 cumulative IPC: 0.3682 (Simulation time: 00 hr 30 min 50 sec)
Simulation complete CPU 0 instructions: 100000001 cycles: 271579761 cumulative IPC: 0.3682 (Simulation time: 00 hr 30 min 50 sec)

ChampSim completed all CPUs

=== Simulation ===
CPU 0 runs /data2/zcq/champsim_traces_gap/sssp.web-1185B.champsimtrace.xz

Region of Interest Statistics

CPU 0 cumulative IPC: 0.3682 instructions: 100000001 cycles: 271579761
CPU 0 Branch Prediction Accuracy: 97.58% MPKI: 3.609 Average ROB Occupancy at Mispredict: 117.5
Branch type MPKI
BRANCH_DIRECT_JUMP: 0.00013
BRANCH_INDIRECT: 4e-05
BRANCH_CONDITIONAL: 3.609
BRANCH_DIRECT_CALL: 0
BRANCH_INDIRECT_CALL: 2e-05
BRANCH_RETURN: 0

cpu0->cpu0_STLB TOTAL        ACCESS:    1179392 HIT:     429610 MISS:     749782 MSHR_MERGE:          0
cpu0->cpu0_STLB LOAD         ACCESS:    1179392 HIT:     429610 MISS:     749782 MSHR_MERGE:          0
cpu0->cpu0_STLB RFO          ACCESS:          0 HIT:          0 MISS:          0 MSHR_MERGE:          0
cpu0->cpu0_STLB PREFETCH     ACCESS:          0 HIT:          0 MISS:          0 MSHR_MERGE:          0
cpu0->cpu0_STLB WRITE        ACCESS:          0 HIT:          0 MISS:          0 MSHR_MERGE:          0
cpu0->cpu0_STLB TRANSLATION  ACCESS:          0 HIT:          0 MISS:          0 MSHR_MERGE:          0
cpu0->cpu0_STLB PREFETCH REQUESTED:          0 ISSUED:          0 USEFUL:          0 USELESS:          0 LATE:          0 TOO_EARLY:          0
cpu0->cpu0_STLB AVERAGE MISS LATENCY: 146.2 cycles
cpu0->cpu0_L2C TOTAL        ACCESS:   11504102 HIT:    4629195 MISS:    6874907 MSHR_MERGE:    2871808
cpu0->cpu0_L2C LOAD         ACCESS:    2060696 HIT:     620109 MISS:    1440587 MSHR_MERGE:      49928
cpu0->cpu0_L2C RFO          ACCESS:     152628 HIT:     119401 MISS:      33227 MSHR_MERGE:          0
cpu0->cpu0_L2C PREFETCH     ACCESS:    8158276 HIT:    3310501 MISS:    4847775 MSHR_MERGE:    2821880
cpu0->cpu0_L2C WRITE        ACCESS:     362921 HIT:     362143 MISS:        778 MSHR_MERGE:          0
cpu0->cpu0_L2C TRANSLATION  ACCESS:     769581 HIT:     217041 MISS:     552540 MSHR_MERGE:          0
cpu0->cpu0_L2C PREFETCH REQUESTED:    3190459 ISSUED:    3182011 USEFUL:     451450 USELESS:     497408 LATE:      32718 TOO_EARLY:       4958
cpu0->cpu0_L2C AVERAGE MISS LATENCY: 163.5 cycles
cpu0->cpu0_L1I TOTAL        ACCESS:    8629849 HIT:    8629778 MISS:         71 MSHR_MERGE:         17
cpu0->cpu0_L1I LOAD         ACCESS:    8629849 HIT:    8629778 MISS:         71 MSHR_MERGE:         17
cpu0->cpu0_L1I RFO          ACCESS:          0 HIT:          0 MISS:          0 MSHR_MERGE:          0
cpu0->cpu0_L1I PREFETCH     ACCESS:          0 HIT:          0 MISS:          0 MSHR_MERGE:          0
cpu0->cpu0_L1I WRITE        ACCESS:          0 HIT:          0 MISS:          0 MSHR_MERGE:          0
cpu0->cpu0_L1I TRANSLATION  ACCESS:          0 HIT:          0 MISS:          0 MSHR_MERGE:          0
cpu0->cpu0_L1I PREFETCH REQUESTED:          0 ISSUED:          0 USEFUL:          0 USELESS:          0 LATE:          0 TOO_EARLY:          0
cpu0->cpu0_L1I AVERAGE MISS LATENCY: 238.3 cycles
cpu0->cpu0_L1D TOTAL        ACCESS:   53581339 HIT:   41991087 MISS:   11590252 MSHR_MERGE:    3455018
cpu0->cpu0_L1D LOAD         ACCESS:   28493185 HIT:   23270138 MISS:    5223047 MSHR_MERGE:    3162404
cpu0->cpu0_L1D RFO          ACCESS:          0 HIT:          0 MISS:          0 MSHR_MERGE:          0
cpu0->cpu0_L1D PREFETCH     ACCESS:   20100964 HIT:   14702738 MISS:    5398226 MSHR_MERGE:     245848
cpu0->cpu0_L1D WRITE        ACCESS:    3062673 HIT:    2891483 MISS:     171190 MSHR_MERGE:      18558
cpu0->cpu0_L1D TRANSLATION  ACCESS:    1924517 HIT:    1126728 MISS:     797789 MSHR_MERGE:      28208
cpu0->cpu0_L1D PREFETCH REQUESTED:   59735408 ISSUED:   21333621 USEFUL:     534183 USELESS:     368776 LATE:      45112 TOO_EARLY:       1707
cpu0->cpu0_L1D AVERAGE MISS LATENCY: 119.1 cycles
cpu0->cpu0_ITLB TOTAL        ACCESS:    8495247 HIT:    8495208 MISS:         39 MSHR_MERGE:         30
cpu0->cpu0_ITLB LOAD         ACCESS:    8495247 HIT:    8495208 MISS:         39 MSHR_MERGE:         30
cpu0->cpu0_ITLB RFO          ACCESS:          0 HIT:          0 MISS:          0 MSHR_MERGE:          0
cpu0->cpu0_ITLB PREFETCH     ACCESS:          0 HIT:          0 MISS:          0 MSHR_MERGE:          0
cpu0->cpu0_ITLB WRITE        ACCESS:          0 HIT:          0 MISS:          0 MSHR_MERGE:          0
cpu0->cpu0_ITLB TRANSLATION  ACCESS:          0 HIT:          0 MISS:          0 MSHR_MERGE:          0
cpu0->cpu0_ITLB PREFETCH REQUESTED:          0 ISSUED:          0 USEFUL:          0 USELESS:          0 LATE:          0 TOO_EARLY:          0
cpu0->cpu0_ITLB AVERAGE MISS LATENCY: 278.4 cycles
cpu0->cpu0_DTLB TOTAL        ACCESS:   43871013 HIT:   40669582 MISS:    3201431 MSHR_MERGE:    2022048
cpu0->cpu0_DTLB LOAD         ACCESS:   43871013 HIT:   40669582 MISS:    3201431 MSHR_MERGE:    2022048
cpu0->cpu0_DTLB RFO          ACCESS:          0 HIT:          0 MISS:          0 MSHR_MERGE:          0
cpu0->cpu0_DTLB PREFETCH     ACCESS:          0 HIT:          0 MISS:          0 MSHR_MERGE:          0
cpu0->cpu0_DTLB WRITE        ACCESS:          0 HIT:          0 MISS:          0 MSHR_MERGE:          0
cpu0->cpu0_DTLB TRANSLATION  ACCESS:          0 HIT:          0 MISS:          0 MSHR_MERGE:          0
cpu0->cpu0_DTLB PREFETCH REQUESTED:          0 ISSUED:          0 USEFUL:          0 USELESS:          0 LATE:          0 TOO_EARLY:          0
cpu0->cpu0_DTLB AVERAGE MISS LATENCY: 98.6 cycles
cpu0->LLC TOTAL        ACCESS:    4175091 HIT:     777740 MISS:    3397351 MSHR_MERGE:      14747
cpu0->LLC LOAD         ACCESS:    1390659 HIT:     253677 MISS:    1136982 MSHR_MERGE:        284
cpu0->LLC RFO          ACCESS:      33227 HIT:      17422 MISS:      15805 MSHR_MERGE:          0
cpu0->LLC PREFETCH     ACCESS:    2025888 HIT:     140390 MISS:    1885498 MSHR_MERGE:      14463
cpu0->LLC WRITE        ACCESS:     172777 HIT:      73615 MISS:      99162 MSHR_MERGE:          0
cpu0->LLC TRANSLATION  ACCESS:     552540 HIT:     292636 MISS:     259904 MSHR_MERGE:          0
cpu0->LLC PREFETCH REQUESTED:          0 ISSUED:          0 USEFUL:          0 USELESS:          0 LATE:          0 TOO_EARLY:          0
cpu0->LLC AVERAGE MISS LATENCY: 196 cycles

DRAM Statistics

Channel 0 RQ ROW_BUFFER_HIT:      38468
  ROW_BUFFER_MISS:    3244968
  AVG DBUS CONGESTED CYCLE: 9.084
Channel 0 WQ ROW_BUFFER_HIT:      41391
  ROW_BUFFER_MISS:     107285
  FULL:          0
Channel 0 REFRESHES ISSUED:      22632

[ROI Statistics]
[System Configuration]
num_cpus 1
cpu_freq 4000
fetch_width 6
decode_width 6
dispatch_width 6
execute_width 6
lq_width 2
sq_width 2
retire_width 6
scheduler_size 128
branch_mispredict_penalty 15
rob_size 352
lq_size 128
sq_size 72
ifetch_buffer_size 64
decode_buffer_size 32
dispatch_buffer_size 32
register_file_size 288
decode_latency 1
dispatch_latency 1
schedule_latency 1
execute_latency 1
page_size 4096
block_size 64
core_0_itlb_set 16
core_0_itlb_way 4
core_0_itlb_rq_size 16
core_0_itlb_wq_size 16
core_0_itlb_pq_size 0
core_0_itlb_mshr_size 8
core_0_itlb_hit_latency 1
core_0_itlb_fill_latency 1
core_0_itlb_max_tag_check 2
core_0_itlb_max_fill 2
core_0_dtlb_set 16
core_0_dtlb_way 4
core_0_dtlb_rq_size 16
core_0_dtlb_wq_size 16
core_0_dtlb_pq_size 0
core_0_dtlb_mshr_size 8
core_0_dtlb_hit_latency 1
core_0_dtlb_fill_latency 1
core_0_dtlb_max_tag_check 2
core_0_dtlb_max_fill 2
core_0_stlb_set 128
core_0_stlb_way 12
core_0_stlb_rq_size 32
core_0_stlb_wq_size 32
core_0_stlb_pq_size 0
core_0_stlb_mshr_size 16
core_0_stlb_hit_latency 4
core_0_stlb_fill_latency 4
core_0_stlb_max_tag_check 1
core_0_stlb_max_fill 1
core_0_l1i_set 64
core_0_l1i_way 8
core_0_l1i_rq_size 64
core_0_l1i_wq_size 64
core_0_l1i_pq_size 32
core_0_l1i_mshr_size 8
core_0_l1i_hit_latency 2
core_0_l1i_fill_latency 2
core_0_l1i_max_tag_check 2
core_0_l1i_max_fill 2
core_0_l1d_set 64
core_0_l1d_way 12
core_0_l1d_rq_size 64
core_0_l1d_wq_size 64
core_0_l1d_pq_size 8
core_0_l1d_mshr_size 16
core_0_l1d_hit_latency 2
core_0_l1d_fill_latency 3
core_0_l1d_max_tag_check 2
core_0_l1d_max_fill 2
core_0_l2c_set 1024
core_0_l2c_way 8
core_0_l2c_rq_size 32
core_0_l2c_wq_size 32
core_0_l2c_pq_size 16
core_0_l2c_mshr_size 32
core_0_l2c_hit_latency 5
core_0_l2c_fill_latency 5
core_0_l2c_max_tag_check 1
core_0_l2c_max_fill 1
llc_set 2048
llc_way 16
llc_rq_size 32
llc_wq_size 32
llc_pq_size 32
llc_mshr_size 64
llc_hit_latency 10
llc_fill_latency 10
llc_max_tag_check 1
llc_max_fill 1
dram_channels 1
dram_ranks 1
dram_bankgroups 8
dram_banks 4
dram_rows 65536
dram_columns 1024
dram_channel_width 8
dram_rq_size 64
dram_wq_size 64
dram_size 17179869184
core_0_itlb_prefetcher no
core_0_dtlb_prefetcher no
core_0_stlb_prefetcher no
core_0_l1i_prefetcher next_line
core_0_l1d_prefetcher vberti
core_0_l2c_prefetcher ip_stride
llc_prefetcher no
llc_replacement drrip

Core_0_instructions 100000001
Core_0_cycles 271579761
Core_0_IPC 0.368216
Core_0_branch_prediction_accuracy 97.5842
Core_0_branch_MPKI 3.609
Core_0_average_ROB_occupancy_at_mispredict 117.535

Core_0_ITLB_total_access 8495247
Core_0_ITLB_total_hit 8495208
Core_0_ITLB_total_miss 39
Core_0_ITLB_total_MPKI 0.00039
Core_0_ITLB_total_miss_rate 4.5908e-06
Core_0_ITLB_demand_access 8495247
Core_0_ITLB_demand_hit 8495208
Core_0_ITLB_demand_miss 39
Core_0_ITLB_demand_MPKI 0.00039
Core_0_ITLB_demand_miss_rate 4.5908e-06
Core_0_ITLB_load_access 8495247
Core_0_ITLB_load_hit 8495208
Core_0_ITLB_load_miss 39
Core_0_ITLB_load_MPKI 0.00039
Core_0_ITLB_load_miss_rate 4.5908e-06
Core_0_ITLB_rfo_access 0
Core_0_ITLB_rfo_hit 0
Core_0_ITLB_rfo_miss 0
Core_0_ITLB_rfo_MPKI 0
Core_0_ITLB_rfo_miss_rate 0
Core_0_ITLB_prefetch_access 0
Core_0_ITLB_prefetch_hit 0
Core_0_ITLB_prefetch_miss 0
Core_0_ITLB_prefetch_MPKI 0
Core_0_ITLB_prefetch_miss_rate 0
Core_0_ITLB_writeback_access 0
Core_0_ITLB_writeback_hit 0
Core_0_ITLB_writeback_miss 0
Core_0_ITLB_writeback_MPKI 0
Core_0_ITLB_writeback_miss_rate 0
Core_0_ITLB_prefetch_requested 0
Core_0_ITLB_prefetch_issued 0
Core_0_ITLB_prefetch_useful 0
Core_0_ITLB_prefetch_useless 0
Core_0_ITLB_prefetch_late 0
Core_0_ITLB_prefetch_fill 0
Core_0_ITLB_prefetch_too_early 0
Core_0_ITLB_prefetch_too_early_among_fill 0
Core_0_ITLB_prefetch_too_early_among_useless 0
Core_0_ITLB_prefetch_pollution_evict 0
Core_0_ITLB_prefetch_pollution_demand 0
Core_0_ITLB_prefetch_pollution_among_prefetch_fill 0
Core_0_ITLB_prefetch_accuracy 0
Core_0_ITLB_prefetch_coverage 0

Core_0_DTLB_total_access 43871013
Core_0_DTLB_total_hit 40669582
Core_0_DTLB_total_miss 3201431
Core_0_DTLB_total_MPKI 32.0143
Core_0_DTLB_total_miss_rate 0.0729737
Core_0_DTLB_demand_access 43871013
Core_0_DTLB_demand_hit 40669582
Core_0_DTLB_demand_miss 3201431
Core_0_DTLB_demand_MPKI 32.0143
Core_0_DTLB_demand_miss_rate 0.0729737
Core_0_DTLB_load_access 43871013
Core_0_DTLB_load_hit 40669582
Core_0_DTLB_load_miss 3201431
Core_0_DTLB_load_MPKI 32.0143
Core_0_DTLB_load_miss_rate 0.0729737
Core_0_DTLB_rfo_access 0
Core_0_DTLB_rfo_hit 0
Core_0_DTLB_rfo_miss 0
Core_0_DTLB_rfo_MPKI 0
Core_0_DTLB_rfo_miss_rate 0
Core_0_DTLB_prefetch_access 0
Core_0_DTLB_prefetch_hit 0
Core_0_DTLB_prefetch_miss 0
Core_0_DTLB_prefetch_MPKI 0
Core_0_DTLB_prefetch_miss_rate 0
Core_0_DTLB_writeback_access 0
Core_0_DTLB_writeback_hit 0
Core_0_DTLB_writeback_miss 0
Core_0_DTLB_writeback_MPKI 0
Core_0_DTLB_writeback_miss_rate 0
Core_0_DTLB_prefetch_requested 0
Core_0_DTLB_prefetch_issued 0
Core_0_DTLB_prefetch_useful 0
Core_0_DTLB_prefetch_useless 0
Core_0_DTLB_prefetch_late 0
Core_0_DTLB_prefetch_fill 0
Core_0_DTLB_prefetch_too_early 0
Core_0_DTLB_prefetch_too_early_among_fill 0
Core_0_DTLB_prefetch_too_early_among_useless 0
Core_0_DTLB_prefetch_pollution_evict 0
Core_0_DTLB_prefetch_pollution_demand 0
Core_0_DTLB_prefetch_pollution_among_prefetch_fill 0
Core_0_DTLB_prefetch_accuracy 0
Core_0_DTLB_prefetch_coverage 0

Core_0_STLB_total_access 1179392
Core_0_STLB_total_hit 429610
Core_0_STLB_total_miss 749782
Core_0_STLB_total_MPKI 7.49782
Core_0_STLB_total_miss_rate 0.635736
Core_0_STLB_demand_access 1179392
Core_0_STLB_demand_hit 429610
Core_0_STLB_demand_miss 749782
Core_0_STLB_demand_MPKI 7.49782
Core_0_STLB_demand_miss_rate 0.635736
Core_0_STLB_load_access 1179392
Core_0_STLB_load_hit 429610
Core_0_STLB_load_miss 749782
Core_0_STLB_load_MPKI 7.49782
Core_0_STLB_load_miss_rate 0.635736
Core_0_STLB_rfo_access 0
Core_0_STLB_rfo_hit 0
Core_0_STLB_rfo_miss 0
Core_0_STLB_rfo_MPKI 0
Core_0_STLB_rfo_miss_rate 0
Core_0_STLB_prefetch_access 0
Core_0_STLB_prefetch_hit 0
Core_0_STLB_prefetch_miss 0
Core_0_STLB_prefetch_MPKI 0
Core_0_STLB_prefetch_miss_rate 0
Core_0_STLB_writeback_access 0
Core_0_STLB_writeback_hit 0
Core_0_STLB_writeback_miss 0
Core_0_STLB_writeback_MPKI 0
Core_0_STLB_writeback_miss_rate 0
Core_0_STLB_prefetch_requested 0
Core_0_STLB_prefetch_issued 0
Core_0_STLB_prefetch_useful 0
Core_0_STLB_prefetch_useless 0
Core_0_STLB_prefetch_late 0
Core_0_STLB_prefetch_fill 0
Core_0_STLB_prefetch_too_early 0
Core_0_STLB_prefetch_too_early_among_fill 0
Core_0_STLB_prefetch_too_early_among_useless 0
Core_0_STLB_prefetch_pollution_evict 0
Core_0_STLB_prefetch_pollution_demand 0
Core_0_STLB_prefetch_pollution_among_prefetch_fill 0
Core_0_STLB_prefetch_accuracy 0
Core_0_STLB_prefetch_coverage 0

Core_0_L1I_total_access 8629849
Core_0_L1I_total_hit 8629778
Core_0_L1I_total_miss 71
Core_0_L1I_total_MPKI 0.00071
Core_0_L1I_total_miss_rate 8.22726e-06
Core_0_L1I_demand_access 8629849
Core_0_L1I_demand_hit 8629778
Core_0_L1I_demand_miss 71
Core_0_L1I_demand_MPKI 0.00071
Core_0_L1I_demand_miss_rate 8.22726e-06
Core_0_L1I_load_access 8629849
Core_0_L1I_load_hit 8629778
Core_0_L1I_load_miss 71
Core_0_L1I_load_MPKI 0.00071
Core_0_L1I_load_miss_rate 8.22726e-06
Core_0_L1I_rfo_access 0
Core_0_L1I_rfo_hit 0
Core_0_L1I_rfo_miss 0
Core_0_L1I_rfo_MPKI 0
Core_0_L1I_rfo_miss_rate 0
Core_0_L1I_prefetch_access 0
Core_0_L1I_prefetch_hit 0
Core_0_L1I_prefetch_miss 0
Core_0_L1I_prefetch_MPKI 0
Core_0_L1I_prefetch_miss_rate 0
Core_0_L1I_writeback_access 0
Core_0_L1I_writeback_hit 0
Core_0_L1I_writeback_miss 0
Core_0_L1I_writeback_MPKI 0
Core_0_L1I_writeback_miss_rate 0
Core_0_L1I_prefetch_requested 0
Core_0_L1I_prefetch_issued 0
Core_0_L1I_prefetch_useful 0
Core_0_L1I_prefetch_useless 0
Core_0_L1I_prefetch_late 0
Core_0_L1I_prefetch_fill 0
Core_0_L1I_prefetch_too_early 0
Core_0_L1I_prefetch_too_early_among_fill 0
Core_0_L1I_prefetch_too_early_among_useless 0
Core_0_L1I_prefetch_pollution_evict 0
Core_0_L1I_prefetch_pollution_demand 0
Core_0_L1I_prefetch_pollution_among_prefetch_fill 0
Core_0_L1I_prefetch_accuracy 0
Core_0_L1I_prefetch_coverage 0

Core_0_L1D_total_access 51656822
Core_0_L1D_total_hit 40864359
Core_0_L1D_total_miss 10792463
Core_0_L1D_total_MPKI 107.925
Core_0_L1D_total_miss_rate 0.208926
Core_0_L1D_demand_access 28493185
Core_0_L1D_demand_hit 23270138
Core_0_L1D_demand_miss 5223047
Core_0_L1D_demand_MPKI 52.2305
Core_0_L1D_demand_miss_rate 0.183309
Core_0_L1D_load_access 28493185
Core_0_L1D_load_hit 23270138
Core_0_L1D_load_miss 5223047
Core_0_L1D_load_MPKI 52.2305
Core_0_L1D_load_miss_rate 0.183309
Core_0_L1D_rfo_access 0
Core_0_L1D_rfo_hit 0
Core_0_L1D_rfo_miss 0
Core_0_L1D_rfo_MPKI 0
Core_0_L1D_rfo_miss_rate 0
Core_0_L1D_prefetch_access 20100964
Core_0_L1D_prefetch_hit 14702738
Core_0_L1D_prefetch_miss 5398226
Core_0_L1D_prefetch_MPKI 53.9823
Core_0_L1D_prefetch_miss_rate 0.268556
Core_0_L1D_writeback_access 3062673
Core_0_L1D_writeback_hit 2891483
Core_0_L1D_writeback_miss 171190
Core_0_L1D_writeback_MPKI 1.7119
Core_0_L1D_writeback_miss_rate 0.0558956
Core_0_L1D_prefetch_requested 59735408
Core_0_L1D_prefetch_issued 21333621
Core_0_L1D_prefetch_useful 534183
Core_0_L1D_prefetch_useless 368776
Core_0_L1D_prefetch_late 45112
Core_0_L1D_prefetch_fill 857894
Core_0_L1D_prefetch_too_early 1707
Core_0_L1D_prefetch_too_early_among_fill 0.00198976
Core_0_L1D_prefetch_too_early_among_useless 0.00462883
Core_0_L1D_prefetch_pollution_evict 66817
Core_0_L1D_prefetch_pollution_demand 66522
Core_0_L1D_cross_page_pf_translation_only_requested 5420512
Core_0_L1D_cross_page_pf_translation_only_issued 1232655
Core_0_L1D_cross_page_pf_translation_only_dropped 1232655
Core_0_L1D_prefetch_pollution_among_prefetch_fill 0.0778849
Core_0_L1D_prefetch_accuracy 0.0250395
Core_0_L1D_prefetch_coverage 0.0927847

Core_0_L2C_total_access 10734521
Core_0_L2C_total_hit 4412154
Core_0_L2C_total_miss 6322367
Core_0_L2C_total_MPKI 63.2237
Core_0_L2C_total_miss_rate 0.588975
Core_0_L2C_demand_access 2213324
Core_0_L2C_demand_hit 739510
Core_0_L2C_demand_miss 1473814
Core_0_L2C_demand_MPKI 14.7381
Core_0_L2C_demand_miss_rate 0.665883
Core_0_L2C_load_access 2060696
Core_0_L2C_load_hit 620109
Core_0_L2C_load_miss 1440587
Core_0_L2C_load_MPKI 14.4059
Core_0_L2C_load_miss_rate 0.699078
Core_0_L2C_rfo_access 152628
Core_0_L2C_rfo_hit 119401
Core_0_L2C_rfo_miss 33227
Core_0_L2C_rfo_MPKI 0.33227
Core_0_L2C_rfo_miss_rate 0.217699
Core_0_L2C_prefetch_access 8158276
Core_0_L2C_prefetch_hit 3310501
Core_0_L2C_prefetch_miss 4847775
Core_0_L2C_prefetch_MPKI 48.4777
Core_0_L2C_prefetch_miss_rate 0.594216
Core_0_L2C_writeback_access 362921
Core_0_L2C_writeback_hit 362143
Core_0_L2C_writeback_miss 778
Core_0_L2C_writeback_MPKI 0.00778
Core_0_L2C_writeback_miss_rate 0.00214372
Core_0_L2C_prefetch_requested 3190459
Core_0_L2C_prefetch_issued 3182011
Core_0_L2C_prefetch_useful 451450
Core_0_L2C_prefetch_useless 497408
Core_0_L2C_prefetch_late 32718
Core_0_L2C_prefetch_fill 1935372
Core_0_L2C_prefetch_too_early 4958
Core_0_L2C_prefetch_too_early_among_fill 0.00256178
Core_0_L2C_prefetch_too_early_among_useless 0.00996767
Core_0_L2C_prefetch_pollution_evict 81732
Core_0_L2C_prefetch_pollution_demand 80489
Core_0_L2C_prefetch_pollution_among_prefetch_fill 0.0422306
Core_0_L2C_prefetch_accuracy 0.141876
Core_0_L2C_prefetch_coverage 0.234487

Core_0_LLC_total_access 3622551
Core_0_LLC_total_hit 485104
Core_0_LLC_total_miss 3137447
Core_0_LLC_total_MPKI 31.3745
Core_0_LLC_total_miss_rate 0.866088
Core_0_LLC_demand_access 1423886
Core_0_LLC_demand_hit 271099
Core_0_LLC_demand_miss 1152787
Core_0_LLC_demand_MPKI 11.5279
Core_0_LLC_demand_miss_rate 0.809606
Core_0_LLC_load_access 1390659
Core_0_LLC_load_hit 253677
Core_0_LLC_load_miss 1136982
Core_0_LLC_load_MPKI 11.3698
Core_0_LLC_load_miss_rate 0.817585
Core_0_LLC_rfo_access 33227
Core_0_LLC_rfo_hit 17422
Core_0_LLC_rfo_miss 15805
Core_0_LLC_rfo_MPKI 0.15805
Core_0_LLC_rfo_miss_rate 0.475667
Core_0_LLC_prefetch_access 2025888
Core_0_LLC_prefetch_hit 140390
Core_0_LLC_prefetch_miss 1885498
Core_0_LLC_prefetch_MPKI 18.855
Core_0_LLC_prefetch_miss_rate 0.930702
Core_0_LLC_writeback_access 172777
Core_0_LLC_writeback_hit 73615
Core_0_LLC_writeback_miss 99162
Core_0_LLC_writeback_MPKI 0.99162
Core_0_LLC_writeback_miss_rate 0.573931
Core_0_LLC_prefetch_requested 0
Core_0_LLC_prefetch_issued 0
Core_0_LLC_prefetch_useful 0
Core_0_LLC_prefetch_useless 0
Core_0_LLC_prefetch_late 0
Core_0_LLC_prefetch_fill 1870753
Core_0_LLC_prefetch_too_early 0
Core_0_LLC_prefetch_too_early_among_fill 0
Core_0_LLC_prefetch_too_early_among_useless 0
Core_0_LLC_prefetch_pollution_evict 41960
Core_0_LLC_prefetch_pollution_demand 41960
Core_0_LLC_prefetch_pollution_among_prefetch_fill 0.0224295
Core_0_LLC_prefetch_accuracy 0
Core_0_LLC_prefetch_coverage 0

[DRAM Statistics]
Channel_0_RQ_row_buffer_hit 38468
Channel_0_RQ_row_buffer_miss 3244968
Channel_0_WQ_row_buffer_hit 41391
Channel_0_WQ_row_buffer_miss 107285
Channel_0_WQ_full 0
Channel_0_dbus_congested 7102100
DRAM_total_RQ_row_buffer_hit 38468
DRAM_total_RQ_row_buffer_miss 3244968
DRAM_total_WQ_row_buffer_hit 41391
DRAM_total_WQ_row_buffer_miss 107285
DRAM_total_WQ_full 0
DRAM_total_dbus_congested 7102100
DRAM_avg_congested_cycle 9.08366

====== DRAM_RQ_TRAFFIC ========
DRAM_RQ_READ_TRAFFIC_BREAKDOWN:
data_demand_read.count = 1152450
data_demand_read.share = 35.10%

inst_demand_read.count = 53
inst_demand_read.share = 0.00%

cache_inst_prefetch.count = 0
cache_inst_prefetch.share = 0.00%

cache_data_prefetch.count = 1871035
cache_data_prefetch.share = 56.98%

stlb_data_demand.count = 255171
stlb_data_demand.share = 7.77%

stlb_inst_demand.count = 9
stlb_inst_demand.share = 0.00%

stlb_l1i_pref.count = 0
stlb_l1i_pref.share = 0.00%

stlb_l1d_pref.count = 4724
stlb_l1d_pref.share = 0.14%

DRAM_RQ_READ_TRAFFIC_SUMMARY:
cache_demand.count = 1152503
cache_demand.share = 35.10%

cache_prefetch.count = 1871035
cache_prefetch.share = 56.98%

stlb_demand.count = 255180
stlb_demand.share = 7.77%

stlb_prefetch.count = 4724
stlb_prefetch.share = 0.14%

DRAM_RQ_READ_TRAFFIC_DEBUG:
total_classified_read.count = 3283442
unclassified_read.count = 0
total_read_with_other.count = 3283442

classified_plus_unclassified_check.count = 3283442
dram_rq_read_total_observed.count = 3283442
dram_rq_read_total_observed.per_1K_instructions = 32.8344

STLB_MISS_PTW_DRAM_TOUCH_BREAKDOWN:
stlb_miss_total.count = 749782

stlb_miss_touch_dram.count = 251870
stlb_miss_touch_dram.share = 33.59%

stlb_miss_no_dram_touch.count = 497912
stlb_miss_no_dram_touch.share = 66.41%

STLB_MISS_PTW_DRAM_TOUCH_DEBUG:
stlb_miss_touch_plus_no_touch.count = 749782
stlb_miss_total_check.count = 749782

======STLB miss causes ========
Core_0_STLB_miss_cause_breakdown
Core_0_STLB_cause_Demand_Data_miss 710917
Core_0_STLB_cause_Demand_Data_miss_rate 0.602783
Core_0_STLB_cause_Demand_Instruction_miss 9
Core_0_STLB_cause_Demand_Instruction_miss_rate 7.63105e-06
Core_0_STLB_cause_L1D_Prefetch_miss 38856
Core_0_STLB_cause_L1D_Prefetch_miss_rate 0.0329458
Core_0_STLB_cause_L1D_Prefetch_Same_Page_miss 0
Core_0_STLB_cause_L1D_Prefetch_Same_Page_miss_rate 0
Core_0_STLB_cause_L1D_Prefetch_Cross_Page_miss 38856
Core_0_STLB_cause_L1D_Prefetch_Cross_Page_miss_rate 0.0329458
Core_0_STLB_cause_L1I_Prefetch_miss 0
Core_0_STLB_cause_L1I_Prefetch_miss_rate 0
Core_0_STLB_cause_Other_miss 0
Core_0_STLB_cause_Other_miss_rate 0
Core_0_STLB_Demand_miss 710926
Core_0_STLB_Demand_miss_rate 0.60279
Core_0_STLB_L1D_Prefetch_miss 38856
Core_0_STLB_L1D_Prefetch_miss_rate 0.0329458
Core_0_STLB_Other_miss 0
Core_0_STLB_Other_miss_rate 0

========== vBerti-TLB Cross-page Flow Stats ==========

Core_0_vBerti_Requested 59735408
Core_0_vBerti_Cross_page_prefetch_in_Requested 5420512
Core_0_vBerti_Same_page_prefetch_in_Requested 54314896
Core_0_vBerti_Cross_page_prefetch_of_Requested 0.090742
Core_0_vBerti_Issued 21333621
Core_0_vBerti_InPQ_Same_page_prefetch 20100966
Core_0_vBerti_InPQ_Cross_page_prefetch 1232655
Core_0_vBerti_PQ_Drop_Rate 0.642865
Core_0_vBerti_InPQ_Cross_page_prefetch_of_Requested 0.0206352
Core_0_vBerti_Cross_page_PQ_Drop_rate 0.772594
Core_0_vBerti_Cross_page_prefetch_of_Issued 0.0577799
Core_0_CP_PF_PQFULL_drop 4187857
Core_0_CP_PF_PQFULL_TLB_rescue_enqueued 0
Core_0_CP_PF_PQFULL_TLB_rescue_issued 0
Core_0_CP_PF_PQFULL_TLB_rescue_translated 0

========= DTLB_vBerti Prefetch Stats =========
Core_0_DTLB_demand_access 29387665
Core_0_DTLB_demand_hit 26358958
Core_0_DTLB_demand_miss 3028707
Core_0_DTLB_demand_mshr_merge 1893525
Core_0_DTLB_demand_fill 1136371
Core_0_DTLB_demand_miss_rate 0.10306
Core_0_DTLB_demand_mpki 30.2871
Core_0_DTLB_vberti_prefetch_access 14483348
Core_0_DTLB_vberti_prefetch_hit 14310624
Core_0_DTLB_vberti_prefetch_miss 172724
Core_0_DTLB_vberti_prefetch_mshr_merge 128523
Core_0_DTLB_vberti_prefetch_fill 43012
Core_0_DTLB_vberti_prefetch_miss_rate 0.0119257
Core_0_DTLB_vberti_prefetch_mpki 1.72724

=== DTLB_vBerti Same/Cross-page Prefetch Stats ===
Core_0_DTLB_vberti_same_page_prefetch 13582517
Core_0_DTLB_vberti_same_page_prefetch_hit 13582511
Core_0_DTLB_vberti_same_page_prefetch_miss 6
Core_0_DTLB_vberti_same_page_prefetch_mshr_merge 3
Core_0_DTLB_vberti_same_page_prefetch_fill 2
Core_0_DTLB_vberti_same_page_prefetch_miss_rate 4.41744e-07
Core_0_DTLB_vberti_same_page_prefetch_mpki 6e-05
Core_0_DTLB_vberti_cross_page_prefetch 900831
Core_0_DTLB_vberti_cross_page_prefetch_hit 728113
Core_0_DTLB_vberti_cross_page_prefetch_miss 172718
Core_0_DTLB_vberti_cross_page_prefetch_mshr_merge 128520
Core_0_DTLB_vberti_cross_page_prefetch_fill 43010
Core_0_DTLB_vberti_cross_page_prefetch_miss_rate 0.191732
Core_0_DTLB_vberti_cross_page_prefetch_mpki 1.72718
Core_0_DTLB_same_page_prefetch_miss_rate 4.41744e-07
Core_0_DTLB_same_page_prefetch_mpki 6e-05
Core_0_DTLB_cross_page_prefetch_miss_rate 0.191732
Core_0_DTLB_cross_page_prefetch_mpki 1.72718
Core_0_DTLB_cross_page_prefetch_issued 900831
Core_0_DTLB_cross_page_prefetch_lookups 900831
Core_0_DTLB_cross_page_prefetch_useful 14734
Core_0_DTLB_cross_page_prefetch_useless 29464
Core_0_DTLB_cross_page_prefetch_late 1188
Core_0_DTLB_cross_page_prefetch_too_early 2707
Core_0_DTLB_cross_page_prefetch_too_early_among_fill 0.0629389
Core_0_DTLB_cross_page_prefetch_too_early_among_useless 0.0918748
Core_0_DTLB_cross_page_prefetch_pollution_evict 14794
Core_0_DTLB_cross_page_prefetch_pollution_demand 14640
Core_0_DTLB_cross_page_prefetch_pollution_among_prefetch_fill 0.343967
Core_0_DTLB_cross_page_prefetch_accuracy 0.016356
Core_0_DTLB_cross_page_prefetch_coverage 0.00484123

========= STLB_vBerti Prefetch Stats =========
Core_0_STLB_demand_access 1135191
Core_0_STLB_demand_hit 424265
Core_0_STLB_demand_miss 710926
Core_0_STLB_demand_mshr_merge 0
Core_0_STLB_demand_fill 710926
Core_0_STLB_demand_miss_rate 0.626261
Core_0_STLB_demand_mpki 7.10926
Core_0_STLB_vberti_prefetch_access 44201
Core_0_STLB_vberti_prefetch_hit 5345
Core_0_STLB_vberti_prefetch_miss 38856
Core_0_STLB_vberti_prefetch_mshr_merge 0
Core_0_STLB_vberti_prefetch_fill 38856
Core_0_STLB_vberti_prefetch_miss_rate 0.879075
Core_0_STLB_vberti_prefetch_mpki 0.38856

=== STLB_vBerti Same/Cross-page Prefetch Stats ===
Core_0_STLB_vberti_same_page_prefetch 3
Core_0_STLB_vberti_same_page_prefetch_hit 3
Core_0_STLB_vberti_same_page_prefetch_miss 0
Core_0_STLB_vberti_same_page_prefetch_mshr_merge 0
Core_0_STLB_vberti_same_page_prefetch_fill 0
Core_0_STLB_vberti_same_page_prefetch_miss_rate 0
Core_0_STLB_vberti_same_page_prefetch_mpki 0
Core_0_STLB_vberti_cross_page_prefetch 44198
Core_0_STLB_vberti_cross_page_prefetch_hit 5342
Core_0_STLB_vberti_cross_page_prefetch_miss 38856
Core_0_STLB_vberti_cross_page_prefetch_mshr_merge 0
Core_0_STLB_vberti_cross_page_prefetch_fill 38856
Core_0_STLB_vberti_cross_page_prefetch_miss_rate 0.879135
Core_0_STLB_vberti_cross_page_prefetch_mpki 0.38856
Core_0_STLB_same_page_prefetch_miss_rate 0
Core_0_STLB_same_page_prefetch_mpki 0
Core_0_STLB_cross_page_prefetch_miss_rate 0.879135
Core_0_STLB_cross_page_prefetch_mpki 0.38856
Core_0_STLB_cross_page_prefetch_issued 44198
Core_0_STLB_cross_page_prefetch_lookups 44198
Core_0_STLB_cross_page_prefetch_useful 2071
Core_0_STLB_cross_page_prefetch_useless 36785
Core_0_STLB_cross_page_prefetch_late 0
Core_0_STLB_cross_page_prefetch_too_early 6465
Core_0_STLB_cross_page_prefetch_too_early_among_fill 0.166384
Core_0_STLB_cross_page_prefetch_too_early_among_useless 0.175751
Core_0_STLB_cross_page_prefetch_pollution_evict 18366
Core_0_STLB_cross_page_prefetch_pollution_demand 17932
Core_0_STLB_cross_page_prefetch_pollution_among_prefetch_fill 0.472668
Core_0_STLB_cross_page_prefetch_accuracy 0.0468573
Core_0_STLB_cross_page_prefetch_coverage 0.00290464

========= STLB Cross-page Prefetch Buffer Stats =========
Core_0_STLB_raw_demand_miss 710917
Core_0_CP_PB_insert 0
Core_0_CP_PB_demand_hit 0
Core_0_STLB_PB_demand_miss 710917
Core_0_CP_PB_coverage 0
Core_0_STLB_raw_demand_mpki 7.10917
Core_0_STLB_PB_demand_mpki 7.10917
Core_0_CP_PB_demand_hit_mpki 0

Core_0_TLB_demand_miss_rate 0.0241913
Core_0_TLB_demand_mpki 7.10926
Core_0_TLB_same_page_prefetch_miss_rate 0
Core_0_TLB_same_page_prefetch_mpki 0
Core_0_TLB_cross_page_prefetch_miss_rate 0.0431335
Core_0_TLB_cross_page_prefetch_mpki 0.38856
Core_0_TLB_cross_page_prefetch_issued 900831
Core_0_TLB_cross_page_prefetch_lookups 900831
Core_0_TLB_cross_page_prefetch_useful 13061
Core_0_TLB_cross_page_prefetch_useless 28608
Core_0_TLB_cross_page_prefetch_late 1096
Core_0_TLB_cross_page_prefetch_too_early 2345
Core_0_TLB_cross_page_prefetch_too_early_among_fill 0.0286444
Core_0_TLB_cross_page_prefetch_too_early_among_useless 0.0819701
Core_0_TLB_cross_page_prefetch_accuracy 0.0144988
Core_0_TLB_cross_page_prefetch_coverage 0.0180404
====== vBerti internal metric ========
Core_0_vBerti_end_to_end_issued 20100966
Core_0_vBerti_end_to_end_useful 293807
Core_0_vBerti_end_to_end_late 35858
Core_0_vBerti_end_to_end_accuracy 0.0146166
Core_0_vBerti_end_to_end_timely_accuracy 0.0128327
BERTI TO_L1: 38217759 TO_L2: 16097137 TO_L2_BC_MSHR: 368590
BERTI AVG_LAT: 137.531 NUM_TRACK_LATENCY: 3109744 NUM_CANT_TRACK_LATENCY: 0
BERTI CROSS_PAGE 5420512 NO_CROSS_PAGE: 54314896
BERTI FOUND_BERTI: 20729552 NO_FOUND_BERTI: 10880187
BERTI AVERAGE_ISSUED: 2.58356
