[VMEM] WARNING: physical memory size is smaller than virtual memory size.

*** ChampSim Multicore Out-of-Order Simulator ***
Warmup Instructions: 50000000
Simulation Instructions: 100000000
Number of CPUs: 1
Page size: 4096
Core 0: /data2/zcq/champsim_traces_gap/sssp.urand-4819B.champsimtrace.xz
VBerti Prefetcher
BERTI HASH ENTANGLING
BERTI IP MASK ffff
Off-chip DRAM Size: 16 GiB Channels: 1 Width: 64-bit Data Rate: 3205 MT/s
Warmup halting CPU 0 at instruction 50000000 cycle 41621591 for remainder of phase
Warmup finished CPU 0 instructions: 50000000 cycles: 41621591 cumulative IPC: 1.201 (Simulation time: 00 hr 08 min 19 sec)
Warmup complete CPU 0 instructions: 50000000 cycles: 41621591 cumulative IPC: 1.201 (Simulation time: 00 hr 08 min 19 sec)
Simulation finished CPU 0 instructions: 100000001 cycles: 598588682 cumulative IPC: 0.1671 (Simulation time: 01 hr 03 min 50 sec)
Simulation complete CPU 0 instructions: 100000001 cycles: 598588682 cumulative IPC: 0.1671 (Simulation time: 01 hr 03 min 50 sec)

ChampSim completed all CPUs

=== Simulation ===
CPU 0 runs /data2/zcq/champsim_traces_gap/sssp.urand-4819B.champsimtrace.xz

Region of Interest Statistics

CPU 0 cumulative IPC: 0.1671 instructions: 100000001 cycles: 598588682
CPU 0 Branch Prediction Accuracy: 96.72% MPKI: 4.972 Average ROB Occupancy at Mispredict: 156.9
Branch type MPKI
BRANCH_DIRECT_JUMP: 0
BRANCH_INDIRECT: 0
BRANCH_CONDITIONAL: 4.972
BRANCH_DIRECT_CALL: 0
BRANCH_INDIRECT_CALL: 0
BRANCH_RETURN: 0

cpu0->cpu0_STLB TOTAL        ACCESS:    7635708 HIT:     380751 MISS:    7254957 MSHR_MERGE:          0
cpu0->cpu0_STLB LOAD         ACCESS:    7635708 HIT:     380751 MISS:    7254957 MSHR_MERGE:          0
cpu0->cpu0_STLB RFO          ACCESS:          0 HIT:          0 MISS:          0 MSHR_MERGE:          0
cpu0->cpu0_STLB PREFETCH     ACCESS:          0 HIT:          0 MISS:          0 MSHR_MERGE:          0
cpu0->cpu0_STLB WRITE        ACCESS:          0 HIT:          0 MISS:          0 MSHR_MERGE:          0
cpu0->cpu0_STLB TRANSLATION  ACCESS:          0 HIT:          0 MISS:          0 MSHR_MERGE:          0
cpu0->cpu0_STLB PREFETCH REQUESTED:          0 ISSUED:          0 USEFUL:          0 USELESS:          0 LATE:          0 TOO_EARLY:          0
cpu0->cpu0_STLB AVERAGE MISS LATENCY: 68.24 cycles
cpu0->cpu0_L2C TOTAL        ACCESS:   23713800 HIT:    6507215 MISS:   17206585 MSHR_MERGE:    1884892
cpu0->cpu0_L2C LOAD         ACCESS:    7912646 HIT:     319604 MISS:    7593042 MSHR_MERGE:       6121
cpu0->cpu0_L2C RFO          ACCESS:     180393 HIT:     143653 MISS:      36740 MSHR_MERGE:          0
cpu0->cpu0_L2C PREFETCH     ACCESS:    7489344 HIT:    4185944 MISS:    3303400 MSHR_MERGE:    1878771
cpu0->cpu0_L2C WRITE        ACCESS:     488856 HIT:     484701 MISS:       4155 MSHR_MERGE:          0
cpu0->cpu0_L2C TRANSLATION  ACCESS:    7642561 HIT:    1373313 MISS:    6269248 MSHR_MERGE:          0
cpu0->cpu0_L2C PREFETCH REQUESTED:    2751871 ISSUED:    2751779 USEFUL:     463320 USELESS:     426466 LATE:       1748 TOO_EARLY:        216
cpu0->cpu0_L2C AVERAGE MISS LATENCY: 159.6 cycles
cpu0->cpu0_L1I TOTAL        ACCESS:     521082 HIT:     521082 MISS:          0 MSHR_MERGE:          0
cpu0->cpu0_L1I LOAD         ACCESS:     521082 HIT:     521082 MISS:          0 MSHR_MERGE:          0
cpu0->cpu0_L1I RFO          ACCESS:          0 HIT:          0 MISS:          0 MSHR_MERGE:          0
cpu0->cpu0_L1I PREFETCH     ACCESS:          0 HIT:          0 MISS:          0 MSHR_MERGE:          0
cpu0->cpu0_L1I WRITE        ACCESS:          0 HIT:          0 MISS:          0 MSHR_MERGE:          0
cpu0->cpu0_L1I TRANSLATION  ACCESS:          0 HIT:          0 MISS:          0 MSHR_MERGE:          0
cpu0->cpu0_L1I PREFETCH REQUESTED:          0 ISSUED:          0 USEFUL:          0 USELESS:          0 LATE:          0 TOO_EARLY:          0
cpu0->cpu0_L1I AVERAGE MISS LATENCY: - cycles
cpu0->cpu0_L1D TOTAL        ACCESS:   60475654 HIT:   35719404 MISS:   24756250 MSHR_MERGE:    4065340
cpu0->cpu0_L1D LOAD         ACCESS:   30344191 HIT:   19119989 MISS:   11224202 MSHR_MERGE:    3311557
cpu0->cpu0_L1D RFO          ACCESS:          0 HIT:          0 MISS:          0 MSHR_MERGE:          0
cpu0->cpu0_L1D PREFETCH     ACCESS:    8933627 HIT:    3240300 MISS:    5693327 MSHR_MERGE:     738017
cpu0->cpu0_L1D WRITE        ACCESS:    1406270 HIT:    1222205 MISS:     184065 MSHR_MERGE:       3671
cpu0->cpu0_L1D TRANSLATION  ACCESS:   19791566 HIT:   12136910 MISS:    7654656 MSHR_MERGE:      12095
cpu0->cpu0_L1D PREFETCH REQUESTED:   14605384 ISSUED:    9348176 USEFUL:     236658 USELESS:     229262 LATE:       6306 TOO_EARLY:       8195
cpu0->cpu0_L1D AVERAGE MISS LATENCY: 149.9 cycles
cpu0->cpu0_ITLB TOTAL        ACCESS:     519717 HIT:     519717 MISS:          0 MSHR_MERGE:          0
cpu0->cpu0_ITLB LOAD         ACCESS:     519717 HIT:     519717 MISS:          0 MSHR_MERGE:          0
cpu0->cpu0_ITLB RFO          ACCESS:          0 HIT:          0 MISS:          0 MSHR_MERGE:          0
cpu0->cpu0_ITLB PREFETCH     ACCESS:          0 HIT:          0 MISS:          0 MSHR_MERGE:          0
cpu0->cpu0_ITLB WRITE        ACCESS:          0 HIT:          0 MISS:          0 MSHR_MERGE:          0
cpu0->cpu0_ITLB TRANSLATION  ACCESS:          0 HIT:          0 MISS:          0 MSHR_MERGE:          0
cpu0->cpu0_ITLB PREFETCH REQUESTED:          0 ISSUED:          0 USEFUL:          0 USELESS:          0 LATE:          0 TOO_EARLY:          0
cpu0->cpu0_ITLB AVERAGE MISS LATENCY: - cycles
cpu0->cpu0_DTLB TOTAL        ACCESS:   37250711 HIT:   26331971 MISS:   10918740 MSHR_MERGE:    3283031
cpu0->cpu0_DTLB LOAD         ACCESS:   37250711 HIT:   26331971 MISS:   10918740 MSHR_MERGE:    3283031
cpu0->cpu0_DTLB RFO          ACCESS:          0 HIT:          0 MISS:          0 MSHR_MERGE:          0
cpu0->cpu0_DTLB PREFETCH     ACCESS:          0 HIT:          0 MISS:          0 MSHR_MERGE:          0
cpu0->cpu0_DTLB WRITE        ACCESS:          0 HIT:          0 MISS:          0 MSHR_MERGE:          0
cpu0->cpu0_DTLB TRANSLATION  ACCESS:          0 HIT:          0 MISS:          0 MSHR_MERGE:          0
cpu0->cpu0_DTLB PREFETCH REQUESTED:          0 ISSUED:          0 USEFUL:          0 USELESS:          0 LATE:          0 TOO_EARLY:          0
cpu0->cpu0_DTLB AVERAGE MISS LATENCY: 70.84 cycles
cpu0->LLC TOTAL        ACCESS:   15621377 HIT:    5728965 MISS:    9892412 MSHR_MERGE:      24502
cpu0->LLC LOAD         ACCESS:    7586921 HIT:      11600 MISS:    7575321 MSHR_MERGE:          1
cpu0->LLC RFO          ACCESS:      36740 HIT:      19393 MISS:      17347 MSHR_MERGE:          0
cpu0->LLC PREFETCH     ACCESS:    1424627 HIT:      12741 MISS:    1411886 MSHR_MERGE:      24501
cpu0->LLC WRITE        ACCESS:     303841 HIT:      82113 MISS:     221728 MSHR_MERGE:          0
cpu0->LLC TRANSLATION  ACCESS:    6269248 HIT:    5603118 MISS:     666130 MSHR_MERGE:          0
cpu0->LLC PREFETCH REQUESTED:          0 ISSUED:          0 USEFUL:          0 USELESS:          0 LATE:          0 TOO_EARLY:          0
cpu0->LLC AVERAGE MISS LATENCY: 236.2 cycles

DRAM Statistics

Channel 0 RQ ROW_BUFFER_HIT:        171
  ROW_BUFFER_MISS:    9646010
  AVG DBUS CONGESTED CYCLE: 7.443
Channel 0 WQ ROW_BUFFER_HIT:      77238
  ROW_BUFFER_MISS:     199448
  FULL:          0
Channel 0 REFRESHES ISSUED:      49882

[ROI Statistics]
[System Configuration]
num_cpus 1
cpu_freq 4000
fetch_width 6
decode_width 6
dispatch_width 6
execute_width 6
lq_width 2
sq_width 2
retire_width 6
scheduler_size 128
branch_mispredict_penalty 15
rob_size 352
lq_size 128
sq_size 72
ifetch_buffer_size 64
decode_buffer_size 32
dispatch_buffer_size 32
register_file_size 288
decode_latency 1
dispatch_latency 1
schedule_latency 1
execute_latency 1
page_size 4096
block_size 64
core_0_itlb_set 16
core_0_itlb_way 4
core_0_itlb_rq_size 16
core_0_itlb_wq_size 16
core_0_itlb_pq_size 0
core_0_itlb_mshr_size 8
core_0_itlb_hit_latency 1
core_0_itlb_fill_latency 1
core_0_itlb_max_tag_check 2
core_0_itlb_max_fill 2
core_0_dtlb_set 16
core_0_dtlb_way 4
core_0_dtlb_rq_size 16
core_0_dtlb_wq_size 16
core_0_dtlb_pq_size 0
core_0_dtlb_mshr_size 8
core_0_dtlb_hit_latency 1
core_0_dtlb_fill_latency 1
core_0_dtlb_max_tag_check 2
core_0_dtlb_max_fill 2
core_0_stlb_set 128
core_0_stlb_way 12
core_0_stlb_rq_size 32
core_0_stlb_wq_size 32
core_0_stlb_pq_size 0
core_0_stlb_mshr_size 16
core_0_stlb_hit_latency 4
core_0_stlb_fill_latency 4
core_0_stlb_max_tag_check 1
core_0_stlb_max_fill 1
core_0_l1i_set 64
core_0_l1i_way 8
core_0_l1i_rq_size 64
core_0_l1i_wq_size 64
core_0_l1i_pq_size 32
core_0_l1i_mshr_size 8
core_0_l1i_hit_latency 2
core_0_l1i_fill_latency 2
core_0_l1i_max_tag_check 2
core_0_l1i_max_fill 2
core_0_l1d_set 64
core_0_l1d_way 12
core_0_l1d_rq_size 64
core_0_l1d_wq_size 64
core_0_l1d_pq_size 8
core_0_l1d_mshr_size 16
core_0_l1d_hit_latency 2
core_0_l1d_fill_latency 3
core_0_l1d_max_tag_check 2
core_0_l1d_max_fill 2
core_0_l2c_set 1024
core_0_l2c_way 8
core_0_l2c_rq_size 32
core_0_l2c_wq_size 32
core_0_l2c_pq_size 16
core_0_l2c_mshr_size 32
core_0_l2c_hit_latency 5
core_0_l2c_fill_latency 5
core_0_l2c_max_tag_check 1
core_0_l2c_max_fill 1
llc_set 2048
llc_way 16
llc_rq_size 32
llc_wq_size 32
llc_pq_size 32
llc_mshr_size 64
llc_hit_latency 10
llc_fill_latency 10
llc_max_tag_check 1
llc_max_fill 1
dram_channels 1
dram_ranks 1
dram_bankgroups 8
dram_banks 4
dram_rows 65536
dram_columns 1024
dram_channel_width 8
dram_rq_size 64
dram_wq_size 64
dram_size 17179869184
core_0_itlb_prefetcher no
core_0_dtlb_prefetcher no
core_0_stlb_prefetcher no
core_0_l1i_prefetcher next_line
core_0_l1d_prefetcher vberti
core_0_l2c_prefetcher ip_stride
llc_prefetcher no
llc_replacement drrip

Core_0_instructions 100000001
Core_0_cycles 598588682
Core_0_IPC 0.16706
Core_0_branch_prediction_accuracy 96.7226
Core_0_branch_MPKI 4.97203
Core_0_average_ROB_occupancy_at_mispredict 156.944

Core_0_ITLB_total_access 519717
Core_0_ITLB_total_hit 519717
Core_0_ITLB_total_miss 0
Core_0_ITLB_total_MPKI 0
Core_0_ITLB_total_miss_rate 0
Core_0_ITLB_demand_access 519717
Core_0_ITLB_demand_hit 519717
Core_0_ITLB_demand_miss 0
Core_0_ITLB_demand_MPKI 0
Core_0_ITLB_demand_miss_rate 0
Core_0_ITLB_load_access 519717
Core_0_ITLB_load_hit 519717
Core_0_ITLB_load_miss 0
Core_0_ITLB_load_MPKI 0
Core_0_ITLB_load_miss_rate 0
Core_0_ITLB_rfo_access 0
Core_0_ITLB_rfo_hit 0
Core_0_ITLB_rfo_miss 0
Core_0_ITLB_rfo_MPKI 0
Core_0_ITLB_rfo_miss_rate 0
Core_0_ITLB_prefetch_access 0
Core_0_ITLB_prefetch_hit 0
Core_0_ITLB_prefetch_miss 0
Core_0_ITLB_prefetch_MPKI 0
Core_0_ITLB_prefetch_miss_rate 0
Core_0_ITLB_writeback_access 0
Core_0_ITLB_writeback_hit 0
Core_0_ITLB_writeback_miss 0
Core_0_ITLB_writeback_MPKI 0
Core_0_ITLB_writeback_miss_rate 0
Core_0_ITLB_prefetch_requested 0
Core_0_ITLB_prefetch_issued 0
Core_0_ITLB_prefetch_useful 0
Core_0_ITLB_prefetch_useless 0
Core_0_ITLB_prefetch_late 0
Core_0_ITLB_prefetch_fill 0
Core_0_ITLB_prefetch_too_early 0
Core_0_ITLB_prefetch_too_early_among_fill 0
Core_0_ITLB_prefetch_too_early_among_useless 0
Core_0_ITLB_prefetch_pollution_evict 0
Core_0_ITLB_prefetch_pollution_demand 0
Core_0_ITLB_prefetch_pollution_among_prefetch_fill 0
Core_0_ITLB_prefetch_accuracy 0
Core_0_ITLB_prefetch_coverage 0

Core_0_DTLB_total_access 37250711
Core_0_DTLB_total_hit 26331971
Core_0_DTLB_total_miss 10918740
Core_0_DTLB_total_MPKI 109.187
Core_0_DTLB_total_miss_rate 0.293115
Core_0_DTLB_demand_access 37250711
Core_0_DTLB_demand_hit 26331971
Core_0_DTLB_demand_miss 10918740
Core_0_DTLB_demand_MPKI 109.187
Core_0_DTLB_demand_miss_rate 0.293115
Core_0_DTLB_load_access 37250711
Core_0_DTLB_load_hit 26331971
Core_0_DTLB_load_miss 10918740
Core_0_DTLB_load_MPKI 109.187
Core_0_DTLB_load_miss_rate 0.293115
Core_0_DTLB_rfo_access 0
Core_0_DTLB_rfo_hit 0
Core_0_DTLB_rfo_miss 0
Core_0_DTLB_rfo_MPKI 0
Core_0_DTLB_rfo_miss_rate 0
Core_0_DTLB_prefetch_access 0
Core_0_DTLB_prefetch_hit 0
Core_0_DTLB_prefetch_miss 0
Core_0_DTLB_prefetch_MPKI 0
Core_0_DTLB_prefetch_miss_rate 0
Core_0_DTLB_writeback_access 0
Core_0_DTLB_writeback_hit 0
Core_0_DTLB_writeback_miss 0
Core_0_DTLB_writeback_MPKI 0
Core_0_DTLB_writeback_miss_rate 0
Core_0_DTLB_prefetch_requested 0
Core_0_DTLB_prefetch_issued 0
Core_0_DTLB_prefetch_useful 0
Core_0_DTLB_prefetch_useless 0
Core_0_DTLB_prefetch_late 0
Core_0_DTLB_prefetch_fill 0
Core_0_DTLB_prefetch_too_early 0
Core_0_DTLB_prefetch_too_early_among_fill 0
Core_0_DTLB_prefetch_too_early_among_useless 0
Core_0_DTLB_prefetch_pollution_evict 0
Core_0_DTLB_prefetch_pollution_demand 0
Core_0_DTLB_prefetch_pollution_among_prefetch_fill 0
Core_0_DTLB_prefetch_accuracy 0
Core_0_DTLB_prefetch_coverage 0

Core_0_STLB_total_access 7635708
Core_0_STLB_total_hit 380751
Core_0_STLB_total_miss 7254957
Core_0_STLB_total_MPKI 72.5496
Core_0_STLB_total_miss_rate 0.950135
Core_0_STLB_demand_access 7635708
Core_0_STLB_demand_hit 380751
Core_0_STLB_demand_miss 7254957
Core_0_STLB_demand_MPKI 72.5496
Core_0_STLB_demand_miss_rate 0.950135
Core_0_STLB_load_access 7635708
Core_0_STLB_load_hit 380751
Core_0_STLB_load_miss 7254957
Core_0_STLB_load_MPKI 72.5496
Core_0_STLB_load_miss_rate 0.950135
Core_0_STLB_rfo_access 0
Core_0_STLB_rfo_hit 0
Core_0_STLB_rfo_miss 0
Core_0_STLB_rfo_MPKI 0
Core_0_STLB_rfo_miss_rate 0
Core_0_STLB_prefetch_access 0
Core_0_STLB_prefetch_hit 0
Core_0_STLB_prefetch_miss 0
Core_0_STLB_prefetch_MPKI 0
Core_0_STLB_prefetch_miss_rate 0
Core_0_STLB_writeback_access 0
Core_0_STLB_writeback_hit 0
Core_0_STLB_writeback_miss 0
Core_0_STLB_writeback_MPKI 0
Core_0_STLB_writeback_miss_rate 0
Core_0_STLB_prefetch_requested 0
Core_0_STLB_prefetch_issued 0
Core_0_STLB_prefetch_useful 0
Core_0_STLB_prefetch_useless 0
Core_0_STLB_prefetch_late 0
Core_0_STLB_prefetch_fill 0
Core_0_STLB_prefetch_too_early 0
Core_0_STLB_prefetch_too_early_among_fill 0
Core_0_STLB_prefetch_too_early_among_useless 0
Core_0_STLB_prefetch_pollution_evict 0
Core_0_STLB_prefetch_pollution_demand 0
Core_0_STLB_prefetch_pollution_among_prefetch_fill 0
Core_0_STLB_prefetch_accuracy 0
Core_0_STLB_prefetch_coverage 0

Core_0_L1I_total_access 521082
Core_0_L1I_total_hit 521082
Core_0_L1I_total_miss 0
Core_0_L1I_total_MPKI 0
Core_0_L1I_total_miss_rate 0
Core_0_L1I_demand_access 521082
Core_0_L1I_demand_hit 521082
Core_0_L1I_demand_miss 0
Core_0_L1I_demand_MPKI 0
Core_0_L1I_demand_miss_rate 0
Core_0_L1I_load_access 521082
Core_0_L1I_load_hit 521082
Core_0_L1I_load_miss 0
Core_0_L1I_load_MPKI 0
Core_0_L1I_load_miss_rate 0
Core_0_L1I_rfo_access 0
Core_0_L1I_rfo_hit 0
Core_0_L1I_rfo_miss 0
Core_0_L1I_rfo_MPKI 0
Core_0_L1I_rfo_miss_rate 0
Core_0_L1I_prefetch_access 0
Core_0_L1I_prefetch_hit 0
Core_0_L1I_prefetch_miss 0
Core_0_L1I_prefetch_MPKI 0
Core_0_L1I_prefetch_miss_rate 0
Core_0_L1I_writeback_access 0
Core_0_L1I_writeback_hit 0
Core_0_L1I_writeback_miss 0
Core_0_L1I_writeback_MPKI 0
Core_0_L1I_writeback_miss_rate 0
Core_0_L1I_prefetch_requested 0
Core_0_L1I_prefetch_issued 0
Core_0_L1I_prefetch_useful 0
Core_0_L1I_prefetch_useless 0
Core_0_L1I_prefetch_late 0
Core_0_L1I_prefetch_fill 0
Core_0_L1I_prefetch_too_early 0
Core_0_L1I_prefetch_too_early_among_fill 0
Core_0_L1I_prefetch_too_early_among_useless 0
Core_0_L1I_prefetch_pollution_evict 0
Core_0_L1I_prefetch_pollution_demand 0
Core_0_L1I_prefetch_pollution_among_prefetch_fill 0
Core_0_L1I_prefetch_accuracy 0
Core_0_L1I_prefetch_coverage 0

Core_0_L1D_total_access 40684088
Core_0_L1D_total_hit 23582494
Core_0_L1D_total_miss 17101594
Core_0_L1D_total_MPKI 171.016
Core_0_L1D_total_miss_rate 0.420351
Core_0_L1D_demand_access 30344191
Core_0_L1D_demand_hit 19119989
Core_0_L1D_demand_miss 11224202
Core_0_L1D_demand_MPKI 112.242
Core_0_L1D_demand_miss_rate 0.369896
Core_0_L1D_load_access 30344191
Core_0_L1D_load_hit 19119989
Core_0_L1D_load_miss 11224202
Core_0_L1D_load_MPKI 112.242
Core_0_L1D_load_miss_rate 0.369896
Core_0_L1D_rfo_access 0
Core_0_L1D_rfo_hit 0
Core_0_L1D_rfo_miss 0
Core_0_L1D_rfo_MPKI 0
Core_0_L1D_rfo_miss_rate 0
Core_0_L1D_prefetch_access 8933627
Core_0_L1D_prefetch_hit 3240300
Core_0_L1D_prefetch_miss 5693327
Core_0_L1D_prefetch_MPKI 56.9333
Core_0_L1D_prefetch_miss_rate 0.637292
Core_0_L1D_writeback_access 1406270
Core_0_L1D_writeback_hit 1222205
Core_0_L1D_writeback_miss 184065
Core_0_L1D_writeback_MPKI 1.84065
Core_0_L1D_writeback_miss_rate 0.130889
Core_0_L1D_prefetch_requested 14605384
Core_0_L1D_prefetch_issued 9348176
Core_0_L1D_prefetch_useful 236658
Core_0_L1D_prefetch_useless 229262
Core_0_L1D_prefetch_late 6306
Core_0_L1D_prefetch_fill 459625
Core_0_L1D_prefetch_too_early 8195
Core_0_L1D_prefetch_too_early_among_fill 0.0178298
Core_0_L1D_prefetch_too_early_among_useless 0.0357451
Core_0_L1D_prefetch_pollution_evict 2329
Core_0_L1D_prefetch_pollution_demand 2122
Core_0_L1D_cross_page_pf_translation_only_requested 652193
Core_0_L1D_cross_page_pf_translation_only_issued 414548
Core_0_L1D_cross_page_pf_translation_only_dropped 414549
Core_0_L1D_prefetch_pollution_among_prefetch_fill 0.00506717
Core_0_L1D_prefetch_accuracy 0.025316
Core_0_L1D_prefetch_coverage 0.0206492

Core_0_L2C_total_access 16071239
Core_0_L2C_total_hit 5133902
Core_0_L2C_total_miss 10937337
Core_0_L2C_total_MPKI 109.373
Core_0_L2C_total_miss_rate 0.680553
Core_0_L2C_demand_access 8093039
Core_0_L2C_demand_hit 463257
Core_0_L2C_demand_miss 7629782
Core_0_L2C_demand_MPKI 76.2978
Core_0_L2C_demand_miss_rate 0.942759
Core_0_L2C_load_access 7912646
Core_0_L2C_load_hit 319604
Core_0_L2C_load_miss 7593042
Core_0_L2C_load_MPKI 75.9304
Core_0_L2C_load_miss_rate 0.959608
Core_0_L2C_rfo_access 180393
Core_0_L2C_rfo_hit 143653
Core_0_L2C_rfo_miss 36740
Core_0_L2C_rfo_MPKI 0.3674
Core_0_L2C_rfo_miss_rate 0.203666
Core_0_L2C_prefetch_access 7489344
Core_0_L2C_prefetch_hit 4185944
Core_0_L2C_prefetch_miss 3303400
Core_0_L2C_prefetch_MPKI 33.034
Core_0_L2C_prefetch_miss_rate 0.44108
Core_0_L2C_writeback_access 488856
Core_0_L2C_writeback_hit 484701
Core_0_L2C_writeback_miss 4155
Core_0_L2C_writeback_MPKI 0.04155
Core_0_L2C_writeback_miss_rate 0.00849944
Core_0_L2C_prefetch_requested 2751871
Core_0_L2C_prefetch_issued 2751779
Core_0_L2C_prefetch_useful 463320
Core_0_L2C_prefetch_useless 426466
Core_0_L2C_prefetch_late 1748
Core_0_L2C_prefetch_fill 1379679
Core_0_L2C_prefetch_too_early 216
Core_0_L2C_prefetch_too_early_among_fill 0.000156558
Core_0_L2C_prefetch_too_early_among_useless 0.000506488
Core_0_L2C_prefetch_pollution_evict 4933
Core_0_L2C_prefetch_pollution_demand 4925
Core_0_L2C_prefetch_pollution_among_prefetch_fill 0.00357547
Core_0_L2C_prefetch_accuracy 0.168371
Core_0_L2C_prefetch_coverage 0.0572488

Core_0_LLC_total_access 9352129
Core_0_LLC_total_hit 125847
Core_0_LLC_total_miss 9226282
Core_0_LLC_total_MPKI 92.2628
Core_0_LLC_total_miss_rate 0.986543
Core_0_LLC_demand_access 7623661
Core_0_LLC_demand_hit 30993
Core_0_LLC_demand_miss 7592668
Core_0_LLC_demand_MPKI 75.9267
Core_0_LLC_demand_miss_rate 0.995935
Core_0_LLC_load_access 7586921
Core_0_LLC_load_hit 11600
Core_0_LLC_load_miss 7575321
Core_0_LLC_load_MPKI 75.7532
Core_0_LLC_load_miss_rate 0.998471
Core_0_LLC_rfo_access 36740
Core_0_LLC_rfo_hit 19393
Core_0_LLC_rfo_miss 17347
Core_0_LLC_rfo_MPKI 0.17347
Core_0_LLC_rfo_miss_rate 0.472156
Core_0_LLC_prefetch_access 1424627
Core_0_LLC_prefetch_hit 12741
Core_0_LLC_prefetch_miss 1411886
Core_0_LLC_prefetch_MPKI 14.1189
Core_0_LLC_prefetch_miss_rate 0.991057
Core_0_LLC_writeback_access 303841
Core_0_LLC_writeback_hit 82113
Core_0_LLC_writeback_miss 221728
Core_0_LLC_writeback_MPKI 2.21728
Core_0_LLC_writeback_miss_rate 0.72975
Core_0_LLC_prefetch_requested 0
Core_0_LLC_prefetch_issued 0
Core_0_LLC_prefetch_useful 0
Core_0_LLC_prefetch_useless 0
Core_0_LLC_prefetch_late 0
Core_0_LLC_prefetch_fill 1387384
Core_0_LLC_prefetch_too_early 0
Core_0_LLC_prefetch_too_early_among_fill 0
Core_0_LLC_prefetch_too_early_among_useless 0
Core_0_LLC_prefetch_pollution_evict 18107
Core_0_LLC_prefetch_pollution_demand 18107
Core_0_LLC_prefetch_pollution_among_prefetch_fill 0.0130512
Core_0_LLC_prefetch_accuracy 0
Core_0_LLC_prefetch_coverage 0

[DRAM Statistics]
Channel_0_RQ_row_buffer_hit 171
Channel_0_RQ_row_buffer_miss 9646010
Channel_0_WQ_row_buffer_hit 77238
Channel_0_WQ_row_buffer_miss 199448
Channel_0_WQ_full 0
Channel_0_dbus_congested 19178573
DRAM_total_RQ_row_buffer_hit 171
DRAM_total_RQ_row_buffer_miss 9646010
DRAM_total_WQ_row_buffer_hit 77238
DRAM_total_WQ_row_buffer_miss 199448
DRAM_total_WQ_full 0
DRAM_total_dbus_congested 19178573
DRAM_avg_congested_cycle 7.44257

====== DRAM_RQ_TRAFFIC ========
DRAM_RQ_READ_TRAFFIC_BREAKDOWN:
data_demand_read.count = 7592667
data_demand_read.share = 78.71%

inst_demand_read.count = 0
inst_demand_read.share = 0.00%

cache_inst_prefetch.count = 0
cache_inst_prefetch.share = 0.00%

cache_data_prefetch.count = 1387385
cache_data_prefetch.share = 14.38%

stlb_data_demand.count = 663784
stlb_data_demand.share = 6.88%

stlb_inst_demand.count = 0
stlb_inst_demand.share = 0.00%

stlb_l1i_pref.count = 0
stlb_l1i_pref.share = 0.00%

stlb_l1d_pref.count = 2346
stlb_l1d_pref.share = 0.02%

DRAM_RQ_READ_TRAFFIC_SUMMARY:
cache_demand.count = 7592667
cache_demand.share = 78.71%

cache_prefetch.count = 1387385
cache_prefetch.share = 14.38%

stlb_demand.count = 663784
stlb_demand.share = 6.88%

stlb_prefetch.count = 2346
stlb_prefetch.share = 0.02%

DRAM_RQ_READ_TRAFFIC_DEBUG:
total_classified_read.count = 9646182
unclassified_read.count = 0
total_read_with_other.count = 9646182

classified_plus_unclassified_check.count = 9646182
dram_rq_read_total_observed.count = 9646182
dram_rq_read_total_observed.per_1K_instructions = 96.4618

STLB_MISS_PTW_DRAM_TOUCH_BREAKDOWN:
stlb_miss_total.count = 7254954

stlb_miss_touch_dram.count = 596294
stlb_miss_touch_dram.share = 8.22%

stlb_miss_no_dram_touch.count = 6658660
stlb_miss_no_dram_touch.share = 91.78%

STLB_MISS_PTW_DRAM_TOUCH_DEBUG:
stlb_miss_touch_plus_no_touch.count = 7254954
stlb_miss_total_check.count = 7254954

======STLB miss causes ========
Core_0_STLB_miss_cause_breakdown
Core_0_STLB_cause_Demand_Data_miss 7236205
Core_0_STLB_cause_Demand_Data_miss_rate 0.94768
Core_0_STLB_cause_Demand_Instruction_miss 0
Core_0_STLB_cause_Demand_Instruction_miss_rate 0
Core_0_STLB_cause_L1D_Prefetch_miss 18752
Core_0_STLB_cause_L1D_Prefetch_miss_rate 0.00245583
Core_0_STLB_cause_L1D_Prefetch_Same_Page_miss 0
Core_0_STLB_cause_L1D_Prefetch_Same_Page_miss_rate 0
Core_0_STLB_cause_L1D_Prefetch_Cross_Page_miss 18752
Core_0_STLB_cause_L1D_Prefetch_Cross_Page_miss_rate 0.00245583
Core_0_STLB_cause_L1I_Prefetch_miss 0
Core_0_STLB_cause_L1I_Prefetch_miss_rate 0
Core_0_STLB_cause_Other_miss 0
Core_0_STLB_cause_Other_miss_rate 0
Core_0_STLB_Demand_miss 7236205
Core_0_STLB_Demand_miss_rate 0.94768
Core_0_STLB_L1D_Prefetch_miss 18752
Core_0_STLB_L1D_Prefetch_miss_rate 0.00245583
Core_0_STLB_Other_miss 0
Core_0_STLB_Other_miss_rate 0

========== vBerti-TLB Cross-page Flow Stats ==========

Core_0_vBerti_Requested 14605384
Core_0_vBerti_Cross_page_prefetch_in_Requested 652193
Core_0_vBerti_Same_page_prefetch_in_Requested 13953191
Core_0_vBerti_Cross_page_prefetch_of_Requested 0.0446543
Core_0_vBerti_Issued 9348176
Core_0_vBerti_InPQ_Same_page_prefetch 8933628
Core_0_vBerti_InPQ_Cross_page_prefetch 414548
Core_0_vBerti_PQ_Drop_Rate 0.35995
Core_0_vBerti_InPQ_Cross_page_prefetch_of_Requested 0.0283832
Core_0_vBerti_Cross_page_PQ_Drop_rate 0.364378
Core_0_vBerti_Cross_page_prefetch_of_Issued 0.0443453
Core_0_CP_PF_PQFULL_drop 237645
Core_0_CP_PF_PQFULL_TLB_rescue_enqueued 0
Core_0_CP_PF_PQFULL_TLB_rescue_issued 0
Core_0_CP_PF_PQFULL_TLB_rescue_translated 0

========= DTLB_vBerti Prefetch Stats =========
Core_0_DTLB_demand_access 30512444
Core_0_DTLB_demand_hit 19687856
Core_0_DTLB_demand_miss 10824588
Core_0_DTLB_demand_mshr_merge 3228446
Core_0_DTLB_demand_fill 7596367
Core_0_DTLB_demand_miss_rate 0.35476
Core_0_DTLB_demand_mpki 108.246
Core_0_DTLB_vberti_prefetch_access 6738267
Core_0_DTLB_vberti_prefetch_hit 6644115
Core_0_DTLB_vberti_prefetch_miss 94152
Core_0_DTLB_vberti_prefetch_mshr_merge 54585
Core_0_DTLB_vberti_prefetch_fill 39346
Core_0_DTLB_vberti_prefetch_miss_rate 0.0139727
Core_0_DTLB_vberti_prefetch_mpki 0.94152

=== DTLB_vBerti Same/Cross-page Prefetch Stats ===
Core_0_DTLB_vberti_same_page_prefetch 6417122
Core_0_DTLB_vberti_same_page_prefetch_hit 6416963
Core_0_DTLB_vberti_same_page_prefetch_miss 159
Core_0_DTLB_vberti_same_page_prefetch_mshr_merge 50
Core_0_DTLB_vberti_same_page_prefetch_fill 107
Core_0_DTLB_vberti_same_page_prefetch_miss_rate 2.47775e-05
Core_0_DTLB_vberti_same_page_prefetch_mpki 0.00159
Core_0_DTLB_vberti_cross_page_prefetch 321145
Core_0_DTLB_vberti_cross_page_prefetch_hit 227152
Core_0_DTLB_vberti_cross_page_prefetch_miss 93993
Core_0_DTLB_vberti_cross_page_prefetch_mshr_merge 54535
Core_0_DTLB_vberti_cross_page_prefetch_fill 39239
Core_0_DTLB_vberti_cross_page_prefetch_miss_rate 0.292681
Core_0_DTLB_vberti_cross_page_prefetch_mpki 0.93993
Core_0_DTLB_same_page_prefetch_miss_rate 2.47775e-05
Core_0_DTLB_same_page_prefetch_mpki 0.00159
Core_0_DTLB_cross_page_prefetch_miss_rate 0.292681
Core_0_DTLB_cross_page_prefetch_mpki 0.93993
Core_0_DTLB_cross_page_prefetch_issued 321145
Core_0_DTLB_cross_page_prefetch_lookups 321145
Core_0_DTLB_cross_page_prefetch_useful 7748
Core_0_DTLB_cross_page_prefetch_useless 31710
Core_0_DTLB_cross_page_prefetch_late 219
Core_0_DTLB_cross_page_prefetch_too_early 200
Core_0_DTLB_cross_page_prefetch_too_early_among_fill 0.00509697
Core_0_DTLB_cross_page_prefetch_too_early_among_useless 0.00630716
Core_0_DTLB_cross_page_prefetch_pollution_evict 4365
Core_0_DTLB_cross_page_prefetch_pollution_demand 4339
Core_0_DTLB_cross_page_prefetch_pollution_among_prefetch_fill 0.111241
Core_0_DTLB_cross_page_prefetch_accuracy 0.0241262
Core_0_DTLB_cross_page_prefetch_coverage 0.000715266

========= STLB_vBerti Prefetch Stats =========
Core_0_STLB_demand_access 7596141
Core_0_STLB_demand_hit 359936
Core_0_STLB_demand_miss 7236205
Core_0_STLB_demand_mshr_merge 0
Core_0_STLB_demand_fill 7236210
Core_0_STLB_demand_miss_rate 0.952616
Core_0_STLB_demand_mpki 72.362
Core_0_STLB_vberti_prefetch_access 39567
Core_0_STLB_vberti_prefetch_hit 20815
Core_0_STLB_vberti_prefetch_miss 18752
Core_0_STLB_vberti_prefetch_mshr_merge 0
Core_0_STLB_vberti_prefetch_fill 18752
Core_0_STLB_vberti_prefetch_miss_rate 0.47393
Core_0_STLB_vberti_prefetch_mpki 0.18752

=== STLB_vBerti Same/Cross-page Prefetch Stats ===
Core_0_STLB_vberti_same_page_prefetch 109
Core_0_STLB_vberti_same_page_prefetch_hit 109
Core_0_STLB_vberti_same_page_prefetch_miss 0
Core_0_STLB_vberti_same_page_prefetch_mshr_merge 0
Core_0_STLB_vberti_same_page_prefetch_fill 0
Core_0_STLB_vberti_same_page_prefetch_miss_rate 0
Core_0_STLB_vberti_same_page_prefetch_mpki 0
Core_0_STLB_vberti_cross_page_prefetch 39458
Core_0_STLB_vberti_cross_page_prefetch_hit 20706
Core_0_STLB_vberti_cross_page_prefetch_miss 18752
Core_0_STLB_vberti_cross_page_prefetch_mshr_merge 0
Core_0_STLB_vberti_cross_page_prefetch_fill 18752
Core_0_STLB_vberti_cross_page_prefetch_miss_rate 0.475239
Core_0_STLB_vberti_cross_page_prefetch_mpki 0.18752
Core_0_STLB_same_page_prefetch_miss_rate 0
Core_0_STLB_same_page_prefetch_mpki 0
Core_0_STLB_cross_page_prefetch_miss_rate 0.475239
Core_0_STLB_cross_page_prefetch_mpki 0.18752
Core_0_STLB_cross_page_prefetch_issued 39458
Core_0_STLB_cross_page_prefetch_lookups 39458
Core_0_STLB_cross_page_prefetch_useful 276
Core_0_STLB_cross_page_prefetch_useless 18476
Core_0_STLB_cross_page_prefetch_late 0
Core_0_STLB_cross_page_prefetch_too_early 1705
Core_0_STLB_cross_page_prefetch_too_early_among_fill 0.0909236
Core_0_STLB_cross_page_prefetch_too_early_among_useless 0.0922819
Core_0_STLB_cross_page_prefetch_pollution_evict 17092
Core_0_STLB_cross_page_prefetch_pollution_demand 17090
Core_0_STLB_cross_page_prefetch_pollution_among_prefetch_fill 0.911476
Core_0_STLB_cross_page_prefetch_accuracy 0.00699478
Core_0_STLB_cross_page_prefetch_coverage 3.81401e-05

========= STLB Cross-page Prefetch Buffer Stats =========
Core_0_STLB_raw_demand_miss 7236205
Core_0_CP_PB_insert 0
Core_0_CP_PB_demand_hit 0
Core_0_STLB_PB_demand_miss 7236205
Core_0_CP_PB_coverage 0
Core_0_STLB_raw_demand_mpki 72.362
Core_0_STLB_PB_demand_mpki 72.362
Core_0_CP_PB_demand_hit_mpki 0

Core_0_TLB_demand_miss_rate 0.237156
Core_0_TLB_demand_mpki 72.362
Core_0_TLB_same_page_prefetch_miss_rate 0
Core_0_TLB_same_page_prefetch_mpki 0
Core_0_TLB_cross_page_prefetch_miss_rate 0.0583911
Core_0_TLB_cross_page_prefetch_mpki 0.18752
Core_0_TLB_cross_page_prefetch_issued 321145
Core_0_TLB_cross_page_prefetch_lookups 321145
Core_0_TLB_cross_page_prefetch_useful 7748
Core_0_TLB_cross_page_prefetch_useless 31710
Core_0_TLB_cross_page_prefetch_late 219
Core_0_TLB_cross_page_prefetch_too_early 200
Core_0_TLB_cross_page_prefetch_too_early_among_fill 0.00344881
Core_0_TLB_cross_page_prefetch_too_early_among_useless 0.00630716
Core_0_TLB_cross_page_prefetch_accuracy 0.0241262
Core_0_TLB_cross_page_prefetch_coverage 0.00106958
====== vBerti internal metric ========
Core_0_vBerti_end_to_end_issued 8933628
Core_0_vBerti_end_to_end_useful 254013
Core_0_vBerti_end_to_end_late 8300
Core_0_vBerti_end_to_end_accuracy 0.0284334
Core_0_vBerti_end_to_end_timely_accuracy 0.0275043
BERTI TO_L1: 2799399 TO_L2: 11153792 TO_L2_BC_MSHR: 444401
BERTI AVG_LAT: 263.8 NUM_TRACK_LATENCY: 8524890 NUM_CANT_TRACK_LATENCY: 0
BERTI CROSS_PAGE 652193 NO_CROSS_PAGE: 13953191
BERTI FOUND_BERTI: 59591161 NO_FOUND_BERTI: 16076702
BERTI AVERAGE_ISSUED: 2.57938
