[VMEM] WARNING: physical memory size is smaller than virtual memory size.

*** ChampSim Multicore Out-of-Order Simulator ***
Warmup Instructions: 50000000
Simulation Instructions: 100000000
Number of CPUs: 1
Page size: 4096
Core 0: /data2/zcq/champsim_traces_gap/sssp.urand-3381B.champsimtrace.xz
VBerti Prefetcher
BERTI HASH ENTANGLING
BERTI IP MASK ffff
Off-chip DRAM Size: 16 GiB Channels: 1 Width: 64-bit Data Rate: 3205 MT/s
Warmup halting CPU 0 at instruction 50000005 cycle 44090363 for remainder of phase
Warmup finished CPU 0 instructions: 50000005 cycles: 44090363 cumulative IPC: 1.134 (Simulation time: 00 hr 08 min 47 sec)
Warmup complete CPU 0 instructions: 50000005 cycles: 44090363 cumulative IPC: 1.134 (Simulation time: 00 hr 08 min 47 sec)
Simulation finished CPU 0 instructions: 100000000 cycles: 593305310 cumulative IPC: 0.1685 (Simulation time: 01 hr 09 min 11 sec)
Simulation complete CPU 0 instructions: 100000000 cycles: 593305310 cumulative IPC: 0.1685 (Simulation time: 01 hr 09 min 11 sec)

ChampSim completed all CPUs

=== Simulation ===
CPU 0 runs /data2/zcq/champsim_traces_gap/sssp.urand-3381B.champsimtrace.xz

Region of Interest Statistics

CPU 0 cumulative IPC: 0.1685 instructions: 100000000 cycles: 593305310
CPU 0 Branch Prediction Accuracy: 97.82% MPKI: 3.291 Average ROB Occupancy at Mispredict: 233.9
Branch type MPKI
BRANCH_DIRECT_JUMP: 0
BRANCH_INDIRECT: 0
BRANCH_CONDITIONAL: 3.291
BRANCH_DIRECT_CALL: 0
BRANCH_INDIRECT_CALL: 0
BRANCH_RETURN: 0

cpu0->cpu0_STLB TOTAL        ACCESS:    7844910 HIT:     188678 MISS:    7656232 MSHR_MERGE:          0
cpu0->cpu0_STLB LOAD         ACCESS:    7844910 HIT:     188678 MISS:    7656232 MSHR_MERGE:          0
cpu0->cpu0_STLB RFO          ACCESS:          0 HIT:          0 MISS:          0 MSHR_MERGE:          0
cpu0->cpu0_STLB PREFETCH     ACCESS:          0 HIT:          0 MISS:          0 MSHR_MERGE:          0
cpu0->cpu0_STLB WRITE        ACCESS:          0 HIT:          0 MISS:          0 MSHR_MERGE:          0
cpu0->cpu0_STLB TRANSLATION  ACCESS:          0 HIT:          0 MISS:          0 MSHR_MERGE:          0
cpu0->cpu0_STLB PREFETCH REQUESTED:          0 ISSUED:          0 USEFUL:          0 USELESS:          0 LATE:          0 TOO_EARLY:          0
cpu0->cpu0_STLB AVERAGE MISS LATENCY: 75.21 cycles
cpu0->cpu0_L2C TOTAL        ACCESS:   25291840 HIT:    6551740 MISS:   18740100 MSHR_MERGE:    2458423
cpu0->cpu0_L2C LOAD         ACCESS:    8408615 HIT:     238690 MISS:    8169925 MSHR_MERGE:       5493
cpu0->cpu0_L2C RFO          ACCESS:      36272 HIT:      23330 MISS:      12942 MSHR_MERGE:          0
cpu0->cpu0_L2C PREFETCH     ACCESS:    8710825 HIT:    4769527 MISS:    3941298 MSHR_MERGE:    2452930
cpu0->cpu0_L2C WRITE        ACCESS:     102153 HIT:     102152 MISS:          1 MSHR_MERGE:          0
cpu0->cpu0_L2C TRANSLATION  ACCESS:    8033975 HIT:    1418041 MISS:    6615934 MSHR_MERGE:          0
cpu0->cpu0_L2C PREFETCH REQUESTED:    3422047 ISSUED:    3421874 USEFUL:     482536 USELESS:     536888 LATE:        517 TOO_EARLY:        136
cpu0->cpu0_L2C AVERAGE MISS LATENCY: 165.5 cycles
cpu0->cpu0_L1I TOTAL        ACCESS:    1334620 HIT:    1334620 MISS:          0 MSHR_MERGE:          0
cpu0->cpu0_L1I LOAD         ACCESS:    1334620 HIT:    1334620 MISS:          0 MSHR_MERGE:          0
cpu0->cpu0_L1I RFO          ACCESS:          0 HIT:          0 MISS:          0 MSHR_MERGE:          0
cpu0->cpu0_L1I PREFETCH     ACCESS:          0 HIT:          0 MISS:          0 MSHR_MERGE:          0
cpu0->cpu0_L1I WRITE        ACCESS:          0 HIT:          0 MISS:          0 MSHR_MERGE:          0
cpu0->cpu0_L1I TRANSLATION  ACCESS:          0 HIT:          0 MISS:          0 MSHR_MERGE:          0
cpu0->cpu0_L1I PREFETCH REQUESTED:          0 ISSUED:          0 USEFUL:          0 USELESS:          0 LATE:          0 TOO_EARLY:          0
cpu0->cpu0_L1I AVERAGE MISS LATENCY: - cycles
cpu0->cpu0_L1D TOTAL        ACCESS:   64229526 HIT:   36648044 MISS:   27581482 MSHR_MERGE:    5680083
cpu0->cpu0_L1D LOAD         ACCESS:   32965857 HIT:   19898539 MISS:   13067318 MSHR_MERGE:    4658702
cpu0->cpu0_L1D RFO          ACCESS:          0 HIT:          0 MISS:          0 MSHR_MERGE:          0
cpu0->cpu0_L1D PREFETCH     ACCESS:    9557402 HIT:    3132467 MISS:    6424935 MSHR_MERGE:    1002401
cpu0->cpu0_L1D WRITE        ACCESS:     799357 HIT:     758573 MISS:      40784 MSHR_MERGE:       4510
cpu0->cpu0_L1D TRANSLATION  ACCESS:   20906910 HIT:   12858465 MISS:    8048445 MSHR_MERGE:      14470
cpu0->cpu0_L1D PREFETCH REQUESTED:   15056576 ISSUED:    9997639 USEFUL:     212434 USELESS:     326441 LATE:       4082 TOO_EARLY:       8257
cpu0->cpu0_L1D AVERAGE MISS LATENCY: 157.6 cycles
cpu0->cpu0_ITLB TOTAL        ACCESS:    1330962 HIT:    1330962 MISS:          0 MSHR_MERGE:          0
cpu0->cpu0_ITLB LOAD         ACCESS:    1330962 HIT:    1330962 MISS:          0 MSHR_MERGE:          0
cpu0->cpu0_ITLB RFO          ACCESS:          0 HIT:          0 MISS:          0 MSHR_MERGE:          0
cpu0->cpu0_ITLB PREFETCH     ACCESS:          0 HIT:          0 MISS:          0 MSHR_MERGE:          0
cpu0->cpu0_ITLB WRITE        ACCESS:          0 HIT:          0 MISS:          0 MSHR_MERGE:          0
cpu0->cpu0_ITLB TRANSLATION  ACCESS:          0 HIT:          0 MISS:          0 MSHR_MERGE:          0
cpu0->cpu0_ITLB PREFETCH REQUESTED:          0 ISSUED:          0 USEFUL:          0 USELESS:          0 LATE:          0 TOO_EARLY:          0
cpu0->cpu0_ITLB AVERAGE MISS LATENCY: - cycles
cpu0->cpu0_DTLB TOTAL        ACCESS:   39651223 HIT:   27030431 MISS:   12620792 MSHR_MERGE:    4775882
cpu0->cpu0_DTLB LOAD         ACCESS:   39651223 HIT:   27030431 MISS:   12620792 MSHR_MERGE:    4775882
cpu0->cpu0_DTLB RFO          ACCESS:          0 HIT:          0 MISS:          0 MSHR_MERGE:          0
cpu0->cpu0_DTLB PREFETCH     ACCESS:          0 HIT:          0 MISS:          0 MSHR_MERGE:          0
cpu0->cpu0_DTLB WRITE        ACCESS:          0 HIT:          0 MISS:          0 MSHR_MERGE:          0
cpu0->cpu0_DTLB TRANSLATION  ACCESS:          0 HIT:          0 MISS:          0 MSHR_MERGE:          0
cpu0->cpu0_DTLB PREFETCH REQUESTED:          0 ISSUED:          0 USEFUL:          0 USELESS:          0 LATE:          0 TOO_EARLY:          0
cpu0->cpu0_DTLB AVERAGE MISS LATENCY: 79.44 cycles
cpu0->LLC TOTAL        ACCESS:   16332209 HIT:    5746275 MISS:   10585934 MSHR_MERGE:      33157
cpu0->LLC LOAD         ACCESS:    8164432 HIT:       9822 MISS:    8154610 MSHR_MERGE:          6
cpu0->LLC RFO          ACCESS:      12942 HIT:      10000 MISS:       2942 MSHR_MERGE:          0
cpu0->LLC PREFETCH     ACCESS:    1488368 HIT:       8732 MISS:    1479636 MSHR_MERGE:      33151
cpu0->LLC WRITE        ACCESS:      50533 HIT:      22005 MISS:      28528 MSHR_MERGE:          0
cpu0->LLC TRANSLATION  ACCESS:    6615934 HIT:    5695716 MISS:     920218 MSHR_MERGE:          0
cpu0->LLC PREFETCH REQUESTED:          0 ISSUED:          0 USEFUL:          0 USELESS:          0 LATE:          0 TOO_EARLY:          0
cpu0->LLC AVERAGE MISS LATENCY: 243.6 cycles

DRAM Statistics

Channel 0 RQ ROW_BUFFER_HIT:        199
  ROW_BUFFER_MISS:   10524045
  AVG DBUS CONGESTED CYCLE: 3.767
Channel 0 WQ ROW_BUFFER_HIT:      10711
  ROW_BUFFER_MISS:      28156
  FULL:          0
Channel 0 REFRESHES ISSUED:      49442

[ROI Statistics]
[System Configuration]
num_cpus 1
cpu_freq 4000
fetch_width 6
decode_width 6
dispatch_width 6
execute_width 6
lq_width 2
sq_width 2
retire_width 6
scheduler_size 128
branch_mispredict_penalty 15
rob_size 352
lq_size 128
sq_size 72
ifetch_buffer_size 64
decode_buffer_size 32
dispatch_buffer_size 32
register_file_size 288
decode_latency 1
dispatch_latency 1
schedule_latency 1
execute_latency 1
page_size 4096
block_size 64
core_0_itlb_set 16
core_0_itlb_way 4
core_0_itlb_rq_size 16
core_0_itlb_wq_size 16
core_0_itlb_pq_size 0
core_0_itlb_mshr_size 8
core_0_itlb_hit_latency 1
core_0_itlb_fill_latency 1
core_0_itlb_max_tag_check 2
core_0_itlb_max_fill 2
core_0_dtlb_set 16
core_0_dtlb_way 4
core_0_dtlb_rq_size 16
core_0_dtlb_wq_size 16
core_0_dtlb_pq_size 0
core_0_dtlb_mshr_size 8
core_0_dtlb_hit_latency 1
core_0_dtlb_fill_latency 1
core_0_dtlb_max_tag_check 2
core_0_dtlb_max_fill 2
core_0_stlb_set 128
core_0_stlb_way 12
core_0_stlb_rq_size 32
core_0_stlb_wq_size 32
core_0_stlb_pq_size 0
core_0_stlb_mshr_size 16
core_0_stlb_hit_latency 4
core_0_stlb_fill_latency 4
core_0_stlb_max_tag_check 1
core_0_stlb_max_fill 1
core_0_l1i_set 64
core_0_l1i_way 8
core_0_l1i_rq_size 64
core_0_l1i_wq_size 64
core_0_l1i_pq_size 32
core_0_l1i_mshr_size 8
core_0_l1i_hit_latency 2
core_0_l1i_fill_latency 2
core_0_l1i_max_tag_check 2
core_0_l1i_max_fill 2
core_0_l1d_set 64
core_0_l1d_way 12
core_0_l1d_rq_size 64
core_0_l1d_wq_size 64
core_0_l1d_pq_size 8
core_0_l1d_mshr_size 16
core_0_l1d_hit_latency 2
core_0_l1d_fill_latency 3
core_0_l1d_max_tag_check 2
core_0_l1d_max_fill 2
core_0_l2c_set 1024
core_0_l2c_way 8
core_0_l2c_rq_size 32
core_0_l2c_wq_size 32
core_0_l2c_pq_size 16
core_0_l2c_mshr_size 32
core_0_l2c_hit_latency 5
core_0_l2c_fill_latency 5
core_0_l2c_max_tag_check 1
core_0_l2c_max_fill 1
llc_set 2048
llc_way 16
llc_rq_size 32
llc_wq_size 32
llc_pq_size 32
llc_mshr_size 64
llc_hit_latency 10
llc_fill_latency 10
llc_max_tag_check 1
llc_max_fill 1
dram_channels 1
dram_ranks 1
dram_bankgroups 8
dram_banks 4
dram_rows 65536
dram_columns 1024
dram_channel_width 8
dram_rq_size 64
dram_wq_size 64
dram_size 17179869184
core_0_itlb_prefetcher no
core_0_dtlb_prefetcher no
core_0_stlb_prefetcher no
core_0_l1i_prefetcher next_line
core_0_l1d_prefetcher vberti
core_0_l2c_prefetcher ip_stride
llc_prefetcher no
llc_replacement drrip

Core_0_instructions 100000000
Core_0_cycles 593305310
Core_0_IPC 0.168547
Core_0_branch_prediction_accuracy 97.8203
Core_0_branch_MPKI 3.29133
Core_0_average_ROB_occupancy_at_mispredict 233.92

Core_0_ITLB_total_access 1330962
Core_0_ITLB_total_hit 1330962
Core_0_ITLB_total_miss 0
Core_0_ITLB_total_MPKI 0
Core_0_ITLB_total_miss_rate 0
Core_0_ITLB_demand_access 1330962
Core_0_ITLB_demand_hit 1330962
Core_0_ITLB_demand_miss 0
Core_0_ITLB_demand_MPKI 0
Core_0_ITLB_demand_miss_rate 0
Core_0_ITLB_load_access 1330962
Core_0_ITLB_load_hit 1330962
Core_0_ITLB_load_miss 0
Core_0_ITLB_load_MPKI 0
Core_0_ITLB_load_miss_rate 0
Core_0_ITLB_rfo_access 0
Core_0_ITLB_rfo_hit 0
Core_0_ITLB_rfo_miss 0
Core_0_ITLB_rfo_MPKI 0
Core_0_ITLB_rfo_miss_rate 0
Core_0_ITLB_prefetch_access 0
Core_0_ITLB_prefetch_hit 0
Core_0_ITLB_prefetch_miss 0
Core_0_ITLB_prefetch_MPKI 0
Core_0_ITLB_prefetch_miss_rate 0
Core_0_ITLB_writeback_access 0
Core_0_ITLB_writeback_hit 0
Core_0_ITLB_writeback_miss 0
Core_0_ITLB_writeback_MPKI 0
Core_0_ITLB_writeback_miss_rate 0
Core_0_ITLB_prefetch_requested 0
Core_0_ITLB_prefetch_issued 0
Core_0_ITLB_prefetch_useful 0
Core_0_ITLB_prefetch_useless 0
Core_0_ITLB_prefetch_late 0
Core_0_ITLB_prefetch_fill 0
Core_0_ITLB_prefetch_too_early 0
Core_0_ITLB_prefetch_too_early_among_fill 0
Core_0_ITLB_prefetch_too_early_among_useless 0
Core_0_ITLB_prefetch_pollution_evict 0
Core_0_ITLB_prefetch_pollution_demand 0
Core_0_ITLB_prefetch_pollution_among_prefetch_fill 0
Core_0_ITLB_prefetch_accuracy 0
Core_0_ITLB_prefetch_coverage 0

Core_0_DTLB_total_access 39651223
Core_0_DTLB_total_hit 27030431
Core_0_DTLB_total_miss 12620792
Core_0_DTLB_total_MPKI 126.208
Core_0_DTLB_total_miss_rate 0.318295
Core_0_DTLB_demand_access 39651223
Core_0_DTLB_demand_hit 27030431
Core_0_DTLB_demand_miss 12620792
Core_0_DTLB_demand_MPKI 126.208
Core_0_DTLB_demand_miss_rate 0.318295
Core_0_DTLB_load_access 39651223
Core_0_DTLB_load_hit 27030431
Core_0_DTLB_load_miss 12620792
Core_0_DTLB_load_MPKI 126.208
Core_0_DTLB_load_miss_rate 0.318295
Core_0_DTLB_rfo_access 0
Core_0_DTLB_rfo_hit 0
Core_0_DTLB_rfo_miss 0
Core_0_DTLB_rfo_MPKI 0
Core_0_DTLB_rfo_miss_rate 0
Core_0_DTLB_prefetch_access 0
Core_0_DTLB_prefetch_hit 0
Core_0_DTLB_prefetch_miss 0
Core_0_DTLB_prefetch_MPKI 0
Core_0_DTLB_prefetch_miss_rate 0
Core_0_DTLB_writeback_access 0
Core_0_DTLB_writeback_hit 0
Core_0_DTLB_writeback_miss 0
Core_0_DTLB_writeback_MPKI 0
Core_0_DTLB_writeback_miss_rate 0
Core_0_DTLB_prefetch_requested 0
Core_0_DTLB_prefetch_issued 0
Core_0_DTLB_prefetch_useful 0
Core_0_DTLB_prefetch_useless 0
Core_0_DTLB_prefetch_late 0
Core_0_DTLB_prefetch_fill 0
Core_0_DTLB_prefetch_too_early 0
Core_0_DTLB_prefetch_too_early_among_fill 0
Core_0_DTLB_prefetch_too_early_among_useless 0
Core_0_DTLB_prefetch_pollution_evict 0
Core_0_DTLB_prefetch_pollution_demand 0
Core_0_DTLB_prefetch_pollution_among_prefetch_fill 0
Core_0_DTLB_prefetch_accuracy 0
Core_0_DTLB_prefetch_coverage 0

Core_0_STLB_total_access 7844910
Core_0_STLB_total_hit 188678
Core_0_STLB_total_miss 7656232
Core_0_STLB_total_MPKI 76.5623
Core_0_STLB_total_miss_rate 0.975949
Core_0_STLB_demand_access 7844910
Core_0_STLB_demand_hit 188678
Core_0_STLB_demand_miss 7656232
Core_0_STLB_demand_MPKI 76.5623
Core_0_STLB_demand_miss_rate 0.975949
Core_0_STLB_load_access 7844910
Core_0_STLB_load_hit 188678
Core_0_STLB_load_miss 7656232
Core_0_STLB_load_MPKI 76.5623
Core_0_STLB_load_miss_rate 0.975949
Core_0_STLB_rfo_access 0
Core_0_STLB_rfo_hit 0
Core_0_STLB_rfo_miss 0
Core_0_STLB_rfo_MPKI 0
Core_0_STLB_rfo_miss_rate 0
Core_0_STLB_prefetch_access 0
Core_0_STLB_prefetch_hit 0
Core_0_STLB_prefetch_miss 0
Core_0_STLB_prefetch_MPKI 0
Core_0_STLB_prefetch_miss_rate 0
Core_0_STLB_writeback_access 0
Core_0_STLB_writeback_hit 0
Core_0_STLB_writeback_miss 0
Core_0_STLB_writeback_MPKI 0
Core_0_STLB_writeback_miss_rate 0
Core_0_STLB_prefetch_requested 0
Core_0_STLB_prefetch_issued 0
Core_0_STLB_prefetch_useful 0
Core_0_STLB_prefetch_useless 0
Core_0_STLB_prefetch_late 0
Core_0_STLB_prefetch_fill 0
Core_0_STLB_prefetch_too_early 0
Core_0_STLB_prefetch_too_early_among_fill 0
Core_0_STLB_prefetch_too_early_among_useless 0
Core_0_STLB_prefetch_pollution_evict 0
Core_0_STLB_prefetch_pollution_demand 0
Core_0_STLB_prefetch_pollution_among_prefetch_fill 0
Core_0_STLB_prefetch_accuracy 0
Core_0_STLB_prefetch_coverage 0

Core_0_L1I_total_access 1334620
Core_0_L1I_total_hit 1334620
Core_0_L1I_total_miss 0
Core_0_L1I_total_MPKI 0
Core_0_L1I_total_miss_rate 0
Core_0_L1I_demand_access 1334620
Core_0_L1I_demand_hit 1334620
Core_0_L1I_demand_miss 0
Core_0_L1I_demand_MPKI 0
Core_0_L1I_demand_miss_rate 0
Core_0_L1I_load_access 1334620
Core_0_L1I_load_hit 1334620
Core_0_L1I_load_miss 0
Core_0_L1I_load_MPKI 0
Core_0_L1I_load_miss_rate 0
Core_0_L1I_rfo_access 0
Core_0_L1I_rfo_hit 0
Core_0_L1I_rfo_miss 0
Core_0_L1I_rfo_MPKI 0
Core_0_L1I_rfo_miss_rate 0
Core_0_L1I_prefetch_access 0
Core_0_L1I_prefetch_hit 0
Core_0_L1I_prefetch_miss 0
Core_0_L1I_prefetch_MPKI 0
Core_0_L1I_prefetch_miss_rate 0
Core_0_L1I_writeback_access 0
Core_0_L1I_writeback_hit 0
Core_0_L1I_writeback_miss 0
Core_0_L1I_writeback_MPKI 0
Core_0_L1I_writeback_miss_rate 0
Core_0_L1I_prefetch_requested 0
Core_0_L1I_prefetch_issued 0
Core_0_L1I_prefetch_useful 0
Core_0_L1I_prefetch_useless 0
Core_0_L1I_prefetch_late 0
Core_0_L1I_prefetch_fill 0
Core_0_L1I_prefetch_too_early 0
Core_0_L1I_prefetch_too_early_among_fill 0
Core_0_L1I_prefetch_too_early_among_useless 0
Core_0_L1I_prefetch_pollution_evict 0
Core_0_L1I_prefetch_pollution_demand 0
Core_0_L1I_prefetch_pollution_among_prefetch_fill 0
Core_0_L1I_prefetch_accuracy 0
Core_0_L1I_prefetch_coverage 0

Core_0_L1D_total_access 43322616
Core_0_L1D_total_hit 23789579
Core_0_L1D_total_miss 19533037
Core_0_L1D_total_MPKI 195.33
Core_0_L1D_total_miss_rate 0.450874
Core_0_L1D_demand_access 32965857
Core_0_L1D_demand_hit 19898539
Core_0_L1D_demand_miss 13067318
Core_0_L1D_demand_MPKI 130.673
Core_0_L1D_demand_miss_rate 0.396389
Core_0_L1D_load_access 32965857
Core_0_L1D_load_hit 19898539
Core_0_L1D_load_miss 13067318
Core_0_L1D_load_MPKI 130.673
Core_0_L1D_load_miss_rate 0.396389
Core_0_L1D_rfo_access 0
Core_0_L1D_rfo_hit 0
Core_0_L1D_rfo_miss 0
Core_0_L1D_rfo_MPKI 0
Core_0_L1D_rfo_miss_rate 0
Core_0_L1D_prefetch_access 9557402
Core_0_L1D_prefetch_hit 3132467
Core_0_L1D_prefetch_miss 6424935
Core_0_L1D_prefetch_MPKI 64.2494
Core_0_L1D_prefetch_miss_rate 0.672247
Core_0_L1D_writeback_access 799357
Core_0_L1D_writeback_hit 758573
Core_0_L1D_writeback_miss 40784
Core_0_L1D_writeback_MPKI 0.40784
Core_0_L1D_writeback_miss_rate 0.051021
Core_0_L1D_prefetch_requested 15056576
Core_0_L1D_prefetch_issued 9997639
Core_0_L1D_prefetch_useful 212434
Core_0_L1D_prefetch_useless 326441
Core_0_L1D_prefetch_late 4082
Core_0_L1D_prefetch_fill 534822
Core_0_L1D_prefetch_too_early 8257
Core_0_L1D_prefetch_too_early_among_fill 0.0154388
Core_0_L1D_prefetch_too_early_among_useless 0.025294
Core_0_L1D_prefetch_pollution_evict 2059
Core_0_L1D_prefetch_pollution_demand 1794
Core_0_L1D_cross_page_pf_translation_only_requested 708966
Core_0_L1D_cross_page_pf_translation_only_issued 440245
Core_0_L1D_cross_page_pf_translation_only_dropped 440245
Core_0_L1D_prefetch_pollution_among_prefetch_fill 0.00384988
Core_0_L1D_prefetch_accuracy 0.0212484
Core_0_L1D_prefetch_coverage 0.0159968

Core_0_L2C_total_access 17257865
Core_0_L2C_total_hit 5133699
Core_0_L2C_total_miss 12124166
Core_0_L2C_total_MPKI 121.242
Core_0_L2C_total_miss_rate 0.70253
Core_0_L2C_demand_access 8444887
Core_0_L2C_demand_hit 262020
Core_0_L2C_demand_miss 8182867
Core_0_L2C_demand_MPKI 81.8287
Core_0_L2C_demand_miss_rate 0.968973
Core_0_L2C_load_access 8408615
Core_0_L2C_load_hit 238690
Core_0_L2C_load_miss 8169925
Core_0_L2C_load_MPKI 81.6993
Core_0_L2C_load_miss_rate 0.971614
Core_0_L2C_rfo_access 36272
Core_0_L2C_rfo_hit 23330
Core_0_L2C_rfo_miss 12942
Core_0_L2C_rfo_MPKI 0.12942
Core_0_L2C_rfo_miss_rate 0.356804
Core_0_L2C_prefetch_access 8710825
Core_0_L2C_prefetch_hit 4769527
Core_0_L2C_prefetch_miss 3941298
Core_0_L2C_prefetch_MPKI 39.413
Core_0_L2C_prefetch_miss_rate 0.45246
Core_0_L2C_writeback_access 102153
Core_0_L2C_writeback_hit 102152
Core_0_L2C_writeback_miss 1
Core_0_L2C_writeback_MPKI 1e-05
Core_0_L2C_writeback_miss_rate 9.78924e-06
Core_0_L2C_prefetch_requested 3422047
Core_0_L2C_prefetch_issued 3421874
Core_0_L2C_prefetch_useful 482536
Core_0_L2C_prefetch_useless 536888
Core_0_L2C_prefetch_late 517
Core_0_L2C_prefetch_fill 1438825
Core_0_L2C_prefetch_too_early 136
Core_0_L2C_prefetch_too_early_among_fill 9.45216e-05
Core_0_L2C_prefetch_too_early_among_useless 0.000253312
Core_0_L2C_prefetch_pollution_evict 4260
Core_0_L2C_prefetch_pollution_demand 4248
Core_0_L2C_prefetch_pollution_among_prefetch_fill 0.00296075
Core_0_L2C_prefetch_accuracy 0.141015
Core_0_L2C_prefetch_coverage 0.0556854

Core_0_LLC_total_access 9716275
Core_0_LLC_total_hit 50559
Core_0_LLC_total_miss 9665716
Core_0_LLC_total_MPKI 96.6572
Core_0_LLC_total_miss_rate 0.994796
Core_0_LLC_demand_access 8177374
Core_0_LLC_demand_hit 19822
Core_0_LLC_demand_miss 8157552
Core_0_LLC_demand_MPKI 81.5755
Core_0_LLC_demand_miss_rate 0.997576
Core_0_LLC_load_access 8164432
Core_0_LLC_load_hit 9822
Core_0_LLC_load_miss 8154610
Core_0_LLC_load_MPKI 81.5461
Core_0_LLC_load_miss_rate 0.998797
Core_0_LLC_rfo_access 12942
Core_0_LLC_rfo_hit 10000
Core_0_LLC_rfo_miss 2942
Core_0_LLC_rfo_MPKI 0.02942
Core_0_LLC_rfo_miss_rate 0.227322
Core_0_LLC_prefetch_access 1488368
Core_0_LLC_prefetch_hit 8732
Core_0_LLC_prefetch_miss 1479636
Core_0_LLC_prefetch_MPKI 14.7964
Core_0_LLC_prefetch_miss_rate 0.994133
Core_0_LLC_writeback_access 50533
Core_0_LLC_writeback_hit 22005
Core_0_LLC_writeback_miss 28528
Core_0_LLC_writeback_MPKI 0.28528
Core_0_LLC_writeback_miss_rate 0.564542
Core_0_LLC_prefetch_requested 0
Core_0_LLC_prefetch_issued 0
Core_0_LLC_prefetch_useful 0
Core_0_LLC_prefetch_useless 0
Core_0_LLC_prefetch_late 0
Core_0_LLC_prefetch_fill 1446480
Core_0_LLC_prefetch_too_early 0
Core_0_LLC_prefetch_too_early_among_fill 0
Core_0_LLC_prefetch_too_early_among_useless 0
Core_0_LLC_prefetch_pollution_evict 19282
Core_0_LLC_prefetch_pollution_demand 19282
Core_0_LLC_prefetch_pollution_among_prefetch_fill 0.0133303
Core_0_LLC_prefetch_accuracy 0
Core_0_LLC_prefetch_coverage 0

[DRAM Statistics]
Channel_0_RQ_row_buffer_hit 199
Channel_0_RQ_row_buffer_miss 10524045
Channel_0_WQ_row_buffer_hit 10711
Channel_0_WQ_row_buffer_miss 28156
Channel_0_WQ_full 0
Channel_0_dbus_congested 17113239
DRAM_total_RQ_row_buffer_hit 199
DRAM_total_RQ_row_buffer_miss 10524045
DRAM_total_WQ_row_buffer_hit 10711
DRAM_total_WQ_row_buffer_miss 28156
DRAM_total_WQ_full 0
DRAM_total_dbus_congested 17113239
DRAM_avg_congested_cycle 3.7673

====== DRAM_RQ_TRAFFIC ========
DRAM_RQ_READ_TRAFFIC_BREAKDOWN:
data_demand_read.count = 8157546
data_demand_read.share = 77.51%

inst_demand_read.count = 0
inst_demand_read.share = 0.00%

cache_inst_prefetch.count = 0
cache_inst_prefetch.share = 0.00%

cache_data_prefetch.count = 1446485
cache_data_prefetch.share = 13.74%

stlb_data_demand.count = 917895
stlb_data_demand.share = 8.72%

stlb_inst_demand.count = 0
stlb_inst_demand.share = 0.00%

stlb_l1i_pref.count = 0
stlb_l1i_pref.share = 0.00%

stlb_l1d_pref.count = 2323
stlb_l1d_pref.share = 0.02%

DRAM_RQ_READ_TRAFFIC_SUMMARY:
cache_demand.count = 8157546
cache_demand.share = 77.51%

cache_prefetch.count = 1446485
cache_prefetch.share = 13.74%

stlb_demand.count = 917895
stlb_demand.share = 8.72%

stlb_prefetch.count = 2323
stlb_prefetch.share = 0.02%

DRAM_RQ_READ_TRAFFIC_DEBUG:
total_classified_read.count = 10524249
unclassified_read.count = 0
total_read_with_other.count = 10524249

classified_plus_unclassified_check.count = 10524249
dram_rq_read_total_observed.count = 10524249
dram_rq_read_total_observed.per_1K_instructions = 105.242

STLB_MISS_PTW_DRAM_TOUCH_BREAKDOWN:
stlb_miss_total.count = 7656232

stlb_miss_touch_dram.count = 840777
stlb_miss_touch_dram.share = 10.98%

stlb_miss_no_dram_touch.count = 6815455
stlb_miss_no_dram_touch.share = 89.02%

STLB_MISS_PTW_DRAM_TOUCH_DEBUG:
stlb_miss_touch_plus_no_touch.count = 7656232
stlb_miss_total_check.count = 7656232

======STLB miss causes ========
Core_0_STLB_miss_cause_breakdown
Core_0_STLB_cause_Demand_Data_miss 7638397
Core_0_STLB_cause_Demand_Data_miss_rate 0.973676
Core_0_STLB_cause_Demand_Instruction_miss 0
Core_0_STLB_cause_Demand_Instruction_miss_rate 0
Core_0_STLB_cause_L1D_Prefetch_miss 17835
Core_0_STLB_cause_L1D_Prefetch_miss_rate 0.00227345
Core_0_STLB_cause_L1D_Prefetch_Same_Page_miss 0
Core_0_STLB_cause_L1D_Prefetch_Same_Page_miss_rate 0
Core_0_STLB_cause_L1D_Prefetch_Cross_Page_miss 17835
Core_0_STLB_cause_L1D_Prefetch_Cross_Page_miss_rate 0.00227345
Core_0_STLB_cause_L1I_Prefetch_miss 0
Core_0_STLB_cause_L1I_Prefetch_miss_rate 0
Core_0_STLB_cause_Other_miss 0
Core_0_STLB_cause_Other_miss_rate 0
Core_0_STLB_Demand_miss 7638397
Core_0_STLB_Demand_miss_rate 0.973676
Core_0_STLB_L1D_Prefetch_miss 17835
Core_0_STLB_L1D_Prefetch_miss_rate 0.00227345
Core_0_STLB_Other_miss 0
Core_0_STLB_Other_miss_rate 0

========== vBerti-TLB Cross-page Flow Stats ==========

Core_0_vBerti_Requested 15056576
Core_0_vBerti_Cross_page_prefetch_in_Requested 708966
Core_0_vBerti_Same_page_prefetch_in_Requested 14347610
Core_0_vBerti_Cross_page_prefetch_of_Requested 0.0470868
Core_0_vBerti_Issued 9997639
Core_0_vBerti_InPQ_Same_page_prefetch 9557394
Core_0_vBerti_InPQ_Cross_page_prefetch 440245
Core_0_vBerti_PQ_Drop_Rate 0.335995
Core_0_vBerti_InPQ_Cross_page_prefetch_of_Requested 0.0292394
Core_0_vBerti_Cross_page_PQ_Drop_rate 0.379032
Core_0_vBerti_Cross_page_prefetch_of_Issued 0.0440349
Core_0_CP_PF_PQFULL_drop 268721
Core_0_CP_PF_PQFULL_TLB_rescue_enqueued 0
Core_0_CP_PF_PQFULL_TLB_rescue_issued 0
Core_0_CP_PF_PQFULL_TLB_rescue_translated 0

========= DTLB_vBerti Prefetch Stats =========
Core_0_DTLB_demand_access 32534165
Core_0_DTLB_demand_hit 19998873
Core_0_DTLB_demand_miss 12535292
Core_0_DTLB_demand_mshr_merge 4714299
Core_0_DTLB_demand_fill 7821123
Core_0_DTLB_demand_miss_rate 0.385296
Core_0_DTLB_demand_mpki 125.353
Core_0_DTLB_vberti_prefetch_access 7117058
Core_0_DTLB_vberti_prefetch_hit 7031558
Core_0_DTLB_vberti_prefetch_miss 85500
Core_0_DTLB_vberti_prefetch_mshr_merge 61583
Core_0_DTLB_vberti_prefetch_fill 23795
Core_0_DTLB_vberti_prefetch_miss_rate 0.0120134
Core_0_DTLB_vberti_prefetch_mpki 0.855

=== DTLB_vBerti Same/Cross-page Prefetch Stats ===
Core_0_DTLB_vberti_same_page_prefetch 6787138
Core_0_DTLB_vberti_same_page_prefetch_hit 6787089
Core_0_DTLB_vberti_same_page_prefetch_miss 49
Core_0_DTLB_vberti_same_page_prefetch_mshr_merge 17
Core_0_DTLB_vberti_same_page_prefetch_fill 31
Core_0_DTLB_vberti_same_page_prefetch_miss_rate 7.21954e-06
Core_0_DTLB_vberti_same_page_prefetch_mpki 0.00049
Core_0_DTLB_vberti_cross_page_prefetch 329920
Core_0_DTLB_vberti_cross_page_prefetch_hit 244469
Core_0_DTLB_vberti_cross_page_prefetch_miss 85451
Core_0_DTLB_vberti_cross_page_prefetch_mshr_merge 61566
Core_0_DTLB_vberti_cross_page_prefetch_fill 23764
Core_0_DTLB_vberti_cross_page_prefetch_miss_rate 0.259005
Core_0_DTLB_vberti_cross_page_prefetch_mpki 0.85451
Core_0_DTLB_same_page_prefetch_miss_rate 7.21954e-06
Core_0_DTLB_same_page_prefetch_mpki 0.00049
Core_0_DTLB_cross_page_prefetch_miss_rate 0.259005
Core_0_DTLB_cross_page_prefetch_mpki 0.85451
Core_0_DTLB_cross_page_prefetch_issued 329920
Core_0_DTLB_cross_page_prefetch_lookups 329920
Core_0_DTLB_cross_page_prefetch_useful 6320
Core_0_DTLB_cross_page_prefetch_useless 17565
Core_0_DTLB_cross_page_prefetch_late 121
Core_0_DTLB_cross_page_prefetch_too_early 142
Core_0_DTLB_cross_page_prefetch_too_early_among_fill 0.00597543
Core_0_DTLB_cross_page_prefetch_too_early_among_useless 0.00808426
Core_0_DTLB_cross_page_prefetch_pollution_evict 3300
Core_0_DTLB_cross_page_prefetch_pollution_demand 3281
Core_0_DTLB_cross_page_prefetch_pollution_among_prefetch_fill 0.138866
Core_0_DTLB_cross_page_prefetch_accuracy 0.0191562
Core_0_DTLB_cross_page_prefetch_coverage 0.000503922

========= STLB_vBerti Prefetch Stats =========
Core_0_STLB_demand_access 7820993
Core_0_STLB_demand_hit 182596
Core_0_STLB_demand_miss 7638397
Core_0_STLB_demand_mshr_merge 0
Core_0_STLB_demand_fill 7638405
Core_0_STLB_demand_miss_rate 0.976653
Core_0_STLB_demand_mpki 76.384
Core_0_STLB_vberti_prefetch_access 23917
Core_0_STLB_vberti_prefetch_hit 6082
Core_0_STLB_vberti_prefetch_miss 17835
Core_0_STLB_vberti_prefetch_mshr_merge 0
Core_0_STLB_vberti_prefetch_fill 17835
Core_0_STLB_vberti_prefetch_miss_rate 0.745704
Core_0_STLB_vberti_prefetch_mpki 0.17835

=== STLB_vBerti Same/Cross-page Prefetch Stats ===
Core_0_STLB_vberti_same_page_prefetch 32
Core_0_STLB_vberti_same_page_prefetch_hit 32
Core_0_STLB_vberti_same_page_prefetch_miss 0
Core_0_STLB_vberti_same_page_prefetch_mshr_merge 0
Core_0_STLB_vberti_same_page_prefetch_fill 0
Core_0_STLB_vberti_same_page_prefetch_miss_rate 0
Core_0_STLB_vberti_same_page_prefetch_mpki 0
Core_0_STLB_vberti_cross_page_prefetch 23885
Core_0_STLB_vberti_cross_page_prefetch_hit 6050
Core_0_STLB_vberti_cross_page_prefetch_miss 17835
Core_0_STLB_vberti_cross_page_prefetch_mshr_merge 0
Core_0_STLB_vberti_cross_page_prefetch_fill 17835
Core_0_STLB_vberti_cross_page_prefetch_miss_rate 0.746703
Core_0_STLB_vberti_cross_page_prefetch_mpki 0.17835
Core_0_STLB_same_page_prefetch_miss_rate 0
Core_0_STLB_same_page_prefetch_mpki 0
Core_0_STLB_cross_page_prefetch_miss_rate 0.746703
Core_0_STLB_cross_page_prefetch_mpki 0.17835
Core_0_STLB_cross_page_prefetch_issued 23885
Core_0_STLB_cross_page_prefetch_lookups 23885
Core_0_STLB_cross_page_prefetch_useful 307
Core_0_STLB_cross_page_prefetch_useless 17528
Core_0_STLB_cross_page_prefetch_late 0
Core_0_STLB_cross_page_prefetch_too_early 1242
Core_0_STLB_cross_page_prefetch_too_early_among_fill 0.0696384
Core_0_STLB_cross_page_prefetch_too_early_among_useless 0.0708581
Core_0_STLB_cross_page_prefetch_pollution_evict 16340
Core_0_STLB_cross_page_prefetch_pollution_demand 16338
Core_0_STLB_cross_page_prefetch_pollution_among_prefetch_fill 0.916176
Core_0_STLB_cross_page_prefetch_accuracy 0.0128533
Core_0_STLB_cross_page_prefetch_coverage 4.01901e-05

========= STLB Cross-page Prefetch Buffer Stats =========
Core_0_STLB_raw_demand_miss 7638397
Core_0_CP_PB_insert 0
Core_0_CP_PB_demand_hit 0
Core_0_STLB_PB_demand_miss 7638397
Core_0_CP_PB_coverage 0
Core_0_STLB_raw_demand_mpki 76.384
Core_0_STLB_PB_demand_mpki 76.384
Core_0_CP_PB_demand_hit_mpki 0

Core_0_TLB_demand_miss_rate 0.234781
Core_0_TLB_demand_mpki 76.384
Core_0_TLB_same_page_prefetch_miss_rate 0
Core_0_TLB_same_page_prefetch_mpki 0
Core_0_TLB_cross_page_prefetch_miss_rate 0.0540586
Core_0_TLB_cross_page_prefetch_mpki 0.17835
Core_0_TLB_cross_page_prefetch_issued 329920
Core_0_TLB_cross_page_prefetch_lookups 329920
Core_0_TLB_cross_page_prefetch_useful 6320
Core_0_TLB_cross_page_prefetch_useless 17565
Core_0_TLB_cross_page_prefetch_late 121
Core_0_TLB_cross_page_prefetch_too_early 142
Core_0_TLB_cross_page_prefetch_too_early_among_fill 0.00341354
Core_0_TLB_cross_page_prefetch_too_early_among_useless 0.00808426
Core_0_TLB_cross_page_prefetch_accuracy 0.0191562
Core_0_TLB_cross_page_prefetch_coverage 0.000826715
====== vBerti internal metric ========
Core_0_vBerti_end_to_end_issued 9557394
Core_0_vBerti_end_to_end_useful 185941
Core_0_vBerti_end_to_end_late 6982
Core_0_vBerti_end_to_end_accuracy 0.0194552
Core_0_vBerti_end_to_end_timely_accuracy 0.0187247
BERTI TO_L1: 2818331 TO_L2: 11529279 TO_L2_BC_MSHR: 814445
BERTI AVG_LAT: 277.943 NUM_TRACK_LATENCY: 8947055 NUM_CANT_TRACK_LATENCY: 0
BERTI CROSS_PAGE 708966 NO_CROSS_PAGE: 14347610
BERTI FOUND_BERTI: 74906863 NO_FOUND_BERTI: 17976956
BERTI AVERAGE_ISSUED: 2.80335
