[VMEM] WARNING: physical memory size is smaller than virtual memory size.

*** ChampSim Multicore Out-of-Order Simulator ***
Warmup Instructions: 50000000
Simulation Instructions: 100000000
Number of CPUs: 1
Page size: 4096
Core 0: /data2/zcq/champsim_traces_gap/tc.twitter-34B.champsimtrace.xz
VBerti Prefetcher
BERTI HASH ENTANGLING
BERTI IP MASK ffff
Off-chip DRAM Size: 16 GiB Channels: 1 Width: 64-bit Data Rate: 3205 MT/s
Warmup halting CPU 0 at instruction 50000000 cycle 14327108 for remainder of phase
Warmup finished CPU 0 instructions: 50000000 cycles: 14327108 cumulative IPC: 3.49 (Simulation time: 00 hr 02 min 41 sec)
Warmup complete CPU 0 instructions: 50000000 cycles: 14327108 cumulative IPC: 3.49 (Simulation time: 00 hr 02 min 41 sec)
Simulation finished CPU 0 instructions: 100000000 cycles: 169357262 cumulative IPC: 0.5905 (Simulation time: 00 hr 17 min 07 sec)
Simulation complete CPU 0 instructions: 100000000 cycles: 169357262 cumulative IPC: 0.5905 (Simulation time: 00 hr 17 min 07 sec)

ChampSim completed all CPUs

=== Simulation ===
CPU 0 runs /data2/zcq/champsim_traces_gap/tc.twitter-34B.champsimtrace.xz

Region of Interest Statistics

CPU 0 cumulative IPC: 0.5905 instructions: 100000000 cycles: 169357262
CPU 0 Branch Prediction Accuracy: 81.82% MPKI: 44.18 Average ROB Occupancy at Mispredict: 6.377
Branch type MPKI
BRANCH_DIRECT_JUMP: 0.00818
BRANCH_INDIRECT: 0
BRANCH_CONDITIONAL: 44.17
BRANCH_DIRECT_CALL: 2e-05
BRANCH_INDIRECT_CALL: 0
BRANCH_RETURN: 2e-05

cpu0->cpu0_STLB TOTAL        ACCESS:     451793 HIT:      18807 MISS:     432986 MSHR_MERGE:          0
cpu0->cpu0_STLB LOAD         ACCESS:     451793 HIT:      18807 MISS:     432986 MSHR_MERGE:          0
cpu0->cpu0_STLB RFO          ACCESS:          0 HIT:          0 MISS:          0 MSHR_MERGE:          0
cpu0->cpu0_STLB PREFETCH     ACCESS:          0 HIT:          0 MISS:          0 MSHR_MERGE:          0
cpu0->cpu0_STLB WRITE        ACCESS:          0 HIT:          0 MISS:          0 MSHR_MERGE:          0
cpu0->cpu0_STLB TRANSLATION  ACCESS:          0 HIT:          0 MISS:          0 MSHR_MERGE:          0
cpu0->cpu0_STLB PREFETCH REQUESTED:          0 ISSUED:          0 USEFUL:          0 USELESS:          0 LATE:          0 TOO_EARLY:          0
cpu0->cpu0_STLB AVERAGE MISS LATENCY: 100.4 cycles
cpu0->cpu0_L2C TOTAL        ACCESS:    4126206 HIT:    2671874 MISS:    1454332 MSHR_MERGE:     163585
cpu0->cpu0_L2C LOAD         ACCESS:     786925 HIT:      42151 MISS:     744774 MSHR_MERGE:       5451
cpu0->cpu0_L2C RFO          ACCESS:      10084 HIT:       4994 MISS:       5090 MSHR_MERGE:        653
cpu0->cpu0_L2C PREFETCH     ACCESS:    2784452 HIT:    2252174 MISS:     532278 MSHR_MERGE:     157481
cpu0->cpu0_L2C WRITE        ACCESS:     270388 HIT:     270374 MISS:         14 MSHR_MERGE:          0
cpu0->cpu0_L2C TRANSLATION  ACCESS:     274357 HIT:     102181 MISS:     172176 MSHR_MERGE:          0
cpu0->cpu0_L2C PREFETCH REQUESTED:     879566 ISSUED:     877757 USEFUL:      96321 USELESS:      15554 LATE:        738 TOO_EARLY:        374
cpu0->cpu0_L2C AVERAGE MISS LATENCY: 257 cycles
cpu0->cpu0_L1I TOTAL        ACCESS:    1344990 HIT:    1344984 MISS:          6 MSHR_MERGE:          0
cpu0->cpu0_L1I LOAD         ACCESS:    1344990 HIT:    1344984 MISS:          6 MSHR_MERGE:          0
cpu0->cpu0_L1I RFO          ACCESS:          0 HIT:          0 MISS:          0 MSHR_MERGE:          0
cpu0->cpu0_L1I PREFETCH     ACCESS:          0 HIT:          0 MISS:          0 MSHR_MERGE:          0
cpu0->cpu0_L1I WRITE        ACCESS:          0 HIT:          0 MISS:          0 MSHR_MERGE:          0
cpu0->cpu0_L1I TRANSLATION  ACCESS:          0 HIT:          0 MISS:          0 MSHR_MERGE:          0
cpu0->cpu0_L1I PREFETCH REQUESTED:          0 ISSUED:          0 USEFUL:          0 USELESS:          0 LATE:          0 TOO_EARLY:          0
cpu0->cpu0_L1I AVERAGE MISS LATENCY: 164.7 cycles
cpu0->cpu0_L1D TOTAL        ACCESS:   64717696 HIT:   61540501 MISS:    3177195 MSHR_MERGE:     172525
cpu0->cpu0_L1D LOAD         ACCESS:   17071727 HIT:   16237097 MISS:     834630 MSHR_MERGE:      47711
cpu0->cpu0_L1D RFO          ACCESS:          0 HIT:          0 MISS:          0 MSHR_MERGE:          0
cpu0->cpu0_L1D PREFETCH     ACCESS:   37722996 HIT:   35777475 MISS:    1945521 MSHR_MERGE:      12241
cpu0->cpu0_L1D WRITE        ACCESS:    9108952 HIT:    9041479 MISS:      67473 MSHR_MERGE:      57359
cpu0->cpu0_L1D TRANSLATION  ACCESS:     814021 HIT:     484450 MISS:     329571 MSHR_MERGE:      55214
cpu0->cpu0_L1D PREFETCH REQUESTED:  145794315 ISSUED:   40780750 USEFUL:     301182 USELESS:      21190 LATE:       2252 TOO_EARLY:        868
cpu0->cpu0_L1D AVERAGE MISS LATENCY: 230.1 cycles
cpu0->cpu0_ITLB TOTAL        ACCESS:    1295587 HIT:    1295586 MISS:          1 MSHR_MERGE:          0
cpu0->cpu0_ITLB LOAD         ACCESS:    1295587 HIT:    1295586 MISS:          1 MSHR_MERGE:          0
cpu0->cpu0_ITLB RFO          ACCESS:          0 HIT:          0 MISS:          0 MSHR_MERGE:          0
cpu0->cpu0_ITLB PREFETCH     ACCESS:          0 HIT:          0 MISS:          0 MSHR_MERGE:          0
cpu0->cpu0_ITLB WRITE        ACCESS:          0 HIT:          0 MISS:          0 MSHR_MERGE:          0
cpu0->cpu0_ITLB TRANSLATION  ACCESS:          0 HIT:          0 MISS:          0 MSHR_MERGE:          0
cpu0->cpu0_ITLB PREFETCH REQUESTED:          0 ISSUED:          0 USEFUL:          0 USELESS:          0 LATE:          0 TOO_EARLY:          0
cpu0->cpu0_ITLB AVERAGE MISS LATENCY: 591 cycles
cpu0->cpu0_DTLB TOTAL        ACCESS:   48294591 HIT:   47592179 MISS:     702412 MSHR_MERGE:     250620
cpu0->cpu0_DTLB LOAD         ACCESS:   48294591 HIT:   47592179 MISS:     702412 MSHR_MERGE:     250620
cpu0->cpu0_DTLB RFO          ACCESS:          0 HIT:          0 MISS:          0 MSHR_MERGE:          0
cpu0->cpu0_DTLB PREFETCH     ACCESS:          0 HIT:          0 MISS:          0 MSHR_MERGE:          0
cpu0->cpu0_DTLB WRITE        ACCESS:          0 HIT:          0 MISS:          0 MSHR_MERGE:          0
cpu0->cpu0_DTLB TRANSLATION  ACCESS:          0 HIT:          0 MISS:          0 MSHR_MERGE:          0
cpu0->cpu0_DTLB PREFETCH REQUESTED:          0 ISSUED:          0 USEFUL:          0 USELESS:          0 LATE:          0 TOO_EARLY:          0
cpu0->cpu0_DTLB AVERAGE MISS LATENCY: 102.2 cycles
cpu0->LLC TOTAL        ACCESS:    1436310 HIT:     385121 MISS:    1051189 MSHR_MERGE:      28572
cpu0->LLC LOAD         ACCESS:     739323 HIT:      23039 MISS:     716284 MSHR_MERGE:       2228
cpu0->LLC RFO          ACCESS:       4437 HIT:        522 MISS:       3915 MSHR_MERGE:          0
cpu0->LLC PREFETCH     ACCESS:     374791 HIT:     112359 MISS:     262432 MSHR_MERGE:      26344
cpu0->LLC WRITE        ACCESS:     145583 HIT:     120684 MISS:      24899 MSHR_MERGE:          0
cpu0->LLC TRANSLATION  ACCESS:     172176 HIT:     128517 MISS:      43659 MSHR_MERGE:          0
cpu0->LLC PREFETCH REQUESTED:          0 ISSUED:          0 USEFUL:          0 USELESS:          0 LATE:          0 TOO_EARLY:          0
cpu0->LLC AVERAGE MISS LATENCY: 280.6 cycles

DRAM Statistics

Channel 0 RQ ROW_BUFFER_HIT:      41479
  ROW_BUFFER_MISS:     956236
  AVG DBUS CONGESTED CYCLE: 3.939
Channel 0 WQ ROW_BUFFER_HIT:       4533
  ROW_BUFFER_MISS:      66668
  FULL:          0
Channel 0 REFRESHES ISSUED:      14114

[ROI Statistics]
[System Configuration]
num_cpus 1
cpu_freq 4000
fetch_width 6
decode_width 6
dispatch_width 6
execute_width 6
lq_width 2
sq_width 2
retire_width 6
scheduler_size 128
branch_mispredict_penalty 15
rob_size 352
lq_size 128
sq_size 72
ifetch_buffer_size 64
decode_buffer_size 32
dispatch_buffer_size 32
register_file_size 288
decode_latency 1
dispatch_latency 1
schedule_latency 1
execute_latency 1
page_size 4096
block_size 64
core_0_itlb_set 16
core_0_itlb_way 4
core_0_itlb_rq_size 16
core_0_itlb_wq_size 16
core_0_itlb_pq_size 0
core_0_itlb_mshr_size 8
core_0_itlb_hit_latency 1
core_0_itlb_fill_latency 1
core_0_itlb_max_tag_check 2
core_0_itlb_max_fill 2
core_0_dtlb_set 16
core_0_dtlb_way 4
core_0_dtlb_rq_size 16
core_0_dtlb_wq_size 16
core_0_dtlb_pq_size 0
core_0_dtlb_mshr_size 8
core_0_dtlb_hit_latency 1
core_0_dtlb_fill_latency 1
core_0_dtlb_max_tag_check 2
core_0_dtlb_max_fill 2
core_0_stlb_set 128
core_0_stlb_way 12
core_0_stlb_rq_size 32
core_0_stlb_wq_size 32
core_0_stlb_pq_size 0
core_0_stlb_mshr_size 16
core_0_stlb_hit_latency 4
core_0_stlb_fill_latency 4
core_0_stlb_max_tag_check 1
core_0_stlb_max_fill 1
core_0_l1i_set 64
core_0_l1i_way 8
core_0_l1i_rq_size 64
core_0_l1i_wq_size 64
core_0_l1i_pq_size 32
core_0_l1i_mshr_size 8
core_0_l1i_hit_latency 2
core_0_l1i_fill_latency 2
core_0_l1i_max_tag_check 2
core_0_l1i_max_fill 2
core_0_l1d_set 64
core_0_l1d_way 12
core_0_l1d_rq_size 64
core_0_l1d_wq_size 64
core_0_l1d_pq_size 8
core_0_l1d_mshr_size 16
core_0_l1d_hit_latency 2
core_0_l1d_fill_latency 3
core_0_l1d_max_tag_check 2
core_0_l1d_max_fill 2
core_0_l2c_set 1024
core_0_l2c_way 8
core_0_l2c_rq_size 32
core_0_l2c_wq_size 32
core_0_l2c_pq_size 16
core_0_l2c_mshr_size 32
core_0_l2c_hit_latency 5
core_0_l2c_fill_latency 5
core_0_l2c_max_tag_check 1
core_0_l2c_max_fill 1
llc_set 2048
llc_way 16
llc_rq_size 32
llc_wq_size 32
llc_pq_size 32
llc_mshr_size 64
llc_hit_latency 10
llc_fill_latency 10
llc_max_tag_check 1
llc_max_fill 1
dram_channels 1
dram_ranks 1
dram_bankgroups 8
dram_banks 4
dram_rows 65536
dram_columns 1024
dram_channel_width 8
dram_rq_size 64
dram_wq_size 64
dram_size 17179869184
core_0_itlb_prefetcher no
core_0_dtlb_prefetcher no
core_0_stlb_prefetcher no
core_0_l1i_prefetcher next_line
core_0_l1d_prefetcher vberti
core_0_l2c_prefetcher ip_stride
llc_prefetcher no
llc_replacement drrip

Core_0_instructions 100000000
Core_0_cycles 169357262
Core_0_IPC 0.590468
Core_0_branch_prediction_accuracy 81.8171
Core_0_branch_MPKI 44.1768
Core_0_average_ROB_occupancy_at_mispredict 6.3766

Core_0_ITLB_total_access 1295587
Core_0_ITLB_total_hit 1295586
Core_0_ITLB_total_miss 1
Core_0_ITLB_total_MPKI 1e-05
Core_0_ITLB_total_miss_rate 7.71851e-07
Core_0_ITLB_demand_access 1295587
Core_0_ITLB_demand_hit 1295586
Core_0_ITLB_demand_miss 1
Core_0_ITLB_demand_MPKI 1e-05
Core_0_ITLB_demand_miss_rate 7.71851e-07
Core_0_ITLB_load_access 1295587
Core_0_ITLB_load_hit 1295586
Core_0_ITLB_load_miss 1
Core_0_ITLB_load_MPKI 1e-05
Core_0_ITLB_load_miss_rate 7.71851e-07
Core_0_ITLB_rfo_access 0
Core_0_ITLB_rfo_hit 0
Core_0_ITLB_rfo_miss 0
Core_0_ITLB_rfo_MPKI 0
Core_0_ITLB_rfo_miss_rate 0
Core_0_ITLB_prefetch_access 0
Core_0_ITLB_prefetch_hit 0
Core_0_ITLB_prefetch_miss 0
Core_0_ITLB_prefetch_MPKI 0
Core_0_ITLB_prefetch_miss_rate 0
Core_0_ITLB_writeback_access 0
Core_0_ITLB_writeback_hit 0
Core_0_ITLB_writeback_miss 0
Core_0_ITLB_writeback_MPKI 0
Core_0_ITLB_writeback_miss_rate 0
Core_0_ITLB_prefetch_requested 0
Core_0_ITLB_prefetch_issued 0
Core_0_ITLB_prefetch_useful 0
Core_0_ITLB_prefetch_useless 0
Core_0_ITLB_prefetch_late 0
Core_0_ITLB_prefetch_fill 0
Core_0_ITLB_prefetch_too_early 0
Core_0_ITLB_prefetch_too_early_among_fill 0
Core_0_ITLB_prefetch_too_early_among_useless 0
Core_0_ITLB_prefetch_pollution_evict 0
Core_0_ITLB_prefetch_pollution_demand 0
Core_0_ITLB_prefetch_pollution_among_prefetch_fill 0
Core_0_ITLB_prefetch_accuracy 0
Core_0_ITLB_prefetch_coverage 0

Core_0_DTLB_total_access 48294591
Core_0_DTLB_total_hit 47592179
Core_0_DTLB_total_miss 702412
Core_0_DTLB_total_MPKI 7.02412
Core_0_DTLB_total_miss_rate 0.0145443
Core_0_DTLB_demand_access 48294591
Core_0_DTLB_demand_hit 47592179
Core_0_DTLB_demand_miss 702412
Core_0_DTLB_demand_MPKI 7.02412
Core_0_DTLB_demand_miss_rate 0.0145443
Core_0_DTLB_load_access 48294591
Core_0_DTLB_load_hit 47592179
Core_0_DTLB_load_miss 702412
Core_0_DTLB_load_MPKI 7.02412
Core_0_DTLB_load_miss_rate 0.0145443
Core_0_DTLB_rfo_access 0
Core_0_DTLB_rfo_hit 0
Core_0_DTLB_rfo_miss 0
Core_0_DTLB_rfo_MPKI 0
Core_0_DTLB_rfo_miss_rate 0
Core_0_DTLB_prefetch_access 0
Core_0_DTLB_prefetch_hit 0
Core_0_DTLB_prefetch_miss 0
Core_0_DTLB_prefetch_MPKI 0
Core_0_DTLB_prefetch_miss_rate 0
Core_0_DTLB_writeback_access 0
Core_0_DTLB_writeback_hit 0
Core_0_DTLB_writeback_miss 0
Core_0_DTLB_writeback_MPKI 0
Core_0_DTLB_writeback_miss_rate 0
Core_0_DTLB_prefetch_requested 0
Core_0_DTLB_prefetch_issued 0
Core_0_DTLB_prefetch_useful 0
Core_0_DTLB_prefetch_useless 0
Core_0_DTLB_prefetch_late 0
Core_0_DTLB_prefetch_fill 0
Core_0_DTLB_prefetch_too_early 0
Core_0_DTLB_prefetch_too_early_among_fill 0
Core_0_DTLB_prefetch_too_early_among_useless 0
Core_0_DTLB_prefetch_pollution_evict 0
Core_0_DTLB_prefetch_pollution_demand 0
Core_0_DTLB_prefetch_pollution_among_prefetch_fill 0
Core_0_DTLB_prefetch_accuracy 0
Core_0_DTLB_prefetch_coverage 0

Core_0_STLB_total_access 451793
Core_0_STLB_total_hit 18807
Core_0_STLB_total_miss 432986
Core_0_STLB_total_MPKI 4.32986
Core_0_STLB_total_miss_rate 0.958373
Core_0_STLB_demand_access 451793
Core_0_STLB_demand_hit 18807
Core_0_STLB_demand_miss 432986
Core_0_STLB_demand_MPKI 4.32986
Core_0_STLB_demand_miss_rate 0.958373
Core_0_STLB_load_access 451793
Core_0_STLB_load_hit 18807
Core_0_STLB_load_miss 432986
Core_0_STLB_load_MPKI 4.32986
Core_0_STLB_load_miss_rate 0.958373
Core_0_STLB_rfo_access 0
Core_0_STLB_rfo_hit 0
Core_0_STLB_rfo_miss 0
Core_0_STLB_rfo_MPKI 0
Core_0_STLB_rfo_miss_rate 0
Core_0_STLB_prefetch_access 0
Core_0_STLB_prefetch_hit 0
Core_0_STLB_prefetch_miss 0
Core_0_STLB_prefetch_MPKI 0
Core_0_STLB_prefetch_miss_rate 0
Core_0_STLB_writeback_access 0
Core_0_STLB_writeback_hit 0
Core_0_STLB_writeback_miss 0
Core_0_STLB_writeback_MPKI 0
Core_0_STLB_writeback_miss_rate 0
Core_0_STLB_prefetch_requested 0
Core_0_STLB_prefetch_issued 0
Core_0_STLB_prefetch_useful 0
Core_0_STLB_prefetch_useless 0
Core_0_STLB_prefetch_late 0
Core_0_STLB_prefetch_fill 0
Core_0_STLB_prefetch_too_early 0
Core_0_STLB_prefetch_too_early_among_fill 0
Core_0_STLB_prefetch_too_early_among_useless 0
Core_0_STLB_prefetch_pollution_evict 0
Core_0_STLB_prefetch_pollution_demand 0
Core_0_STLB_prefetch_pollution_among_prefetch_fill 0
Core_0_STLB_prefetch_accuracy 0
Core_0_STLB_prefetch_coverage 0

Core_0_L1I_total_access 1344990
Core_0_L1I_total_hit 1344984
Core_0_L1I_total_miss 6
Core_0_L1I_total_MPKI 6e-05
Core_0_L1I_total_miss_rate 4.461e-06
Core_0_L1I_demand_access 1344990
Core_0_L1I_demand_hit 1344984
Core_0_L1I_demand_miss 6
Core_0_L1I_demand_MPKI 6e-05
Core_0_L1I_demand_miss_rate 4.461e-06
Core_0_L1I_load_access 1344990
Core_0_L1I_load_hit 1344984
Core_0_L1I_load_miss 6
Core_0_L1I_load_MPKI 6e-05
Core_0_L1I_load_miss_rate 4.461e-06
Core_0_L1I_rfo_access 0
Core_0_L1I_rfo_hit 0
Core_0_L1I_rfo_miss 0
Core_0_L1I_rfo_MPKI 0
Core_0_L1I_rfo_miss_rate 0
Core_0_L1I_prefetch_access 0
Core_0_L1I_prefetch_hit 0
Core_0_L1I_prefetch_miss 0
Core_0_L1I_prefetch_MPKI 0
Core_0_L1I_prefetch_miss_rate 0
Core_0_L1I_writeback_access 0
Core_0_L1I_writeback_hit 0
Core_0_L1I_writeback_miss 0
Core_0_L1I_writeback_MPKI 0
Core_0_L1I_writeback_miss_rate 0
Core_0_L1I_prefetch_requested 0
Core_0_L1I_prefetch_issued 0
Core_0_L1I_prefetch_useful 0
Core_0_L1I_prefetch_useless 0
Core_0_L1I_prefetch_late 0
Core_0_L1I_prefetch_fill 0
Core_0_L1I_prefetch_too_early 0
Core_0_L1I_prefetch_too_early_among_fill 0
Core_0_L1I_prefetch_too_early_among_useless 0
Core_0_L1I_prefetch_pollution_evict 0
Core_0_L1I_prefetch_pollution_demand 0
Core_0_L1I_prefetch_pollution_among_prefetch_fill 0
Core_0_L1I_prefetch_accuracy 0
Core_0_L1I_prefetch_coverage 0

Core_0_L1D_total_access 63903675
Core_0_L1D_total_hit 61056051
Core_0_L1D_total_miss 2847624
Core_0_L1D_total_MPKI 28.4762
Core_0_L1D_total_miss_rate 0.0445612
Core_0_L1D_demand_access 17071727
Core_0_L1D_demand_hit 16237097
Core_0_L1D_demand_miss 834630
Core_0_L1D_demand_MPKI 8.3463
Core_0_L1D_demand_miss_rate 0.0488896
Core_0_L1D_load_access 17071727
Core_0_L1D_load_hit 16237097
Core_0_L1D_load_miss 834630
Core_0_L1D_load_MPKI 8.3463
Core_0_L1D_load_miss_rate 0.0488896
Core_0_L1D_rfo_access 0
Core_0_L1D_rfo_hit 0
Core_0_L1D_rfo_miss 0
Core_0_L1D_rfo_MPKI 0
Core_0_L1D_rfo_miss_rate 0
Core_0_L1D_prefetch_access 37722996
Core_0_L1D_prefetch_hit 35777475
Core_0_L1D_prefetch_miss 1945521
Core_0_L1D_prefetch_MPKI 19.4552
Core_0_L1D_prefetch_miss_rate 0.0515739
Core_0_L1D_writeback_access 9108952
Core_0_L1D_writeback_hit 9041479
Core_0_L1D_writeback_miss 67473
Core_0_L1D_writeback_MPKI 0.67473
Core_0_L1D_writeback_miss_rate 0.00740733
Core_0_L1D_prefetch_requested 145794315
Core_0_L1D_prefetch_issued 40780750
Core_0_L1D_prefetch_useful 301182
Core_0_L1D_prefetch_useless 21190
Core_0_L1D_prefetch_late 2252
Core_0_L1D_prefetch_fill 320117
Core_0_L1D_prefetch_too_early 868
Core_0_L1D_prefetch_too_early_among_fill 0.00271151
Core_0_L1D_prefetch_too_early_among_useless 0.0409627
Core_0_L1D_prefetch_pollution_evict 2845
Core_0_L1D_prefetch_pollution_demand 2794
Core_0_L1D_cross_page_pf_translation_only_requested 20891660
Core_0_L1D_cross_page_pf_translation_only_issued 3057749
Core_0_L1D_cross_page_pf_translation_only_dropped 3057753
Core_0_L1D_prefetch_pollution_among_prefetch_fill 0.00888738
Core_0_L1D_prefetch_accuracy 0.0073854
Core_0_L1D_prefetch_coverage 0.265169

Core_0_L2C_total_access 3851849
Core_0_L2C_total_hit 2569693
Core_0_L2C_total_miss 1282156
Core_0_L2C_total_MPKI 12.8216
Core_0_L2C_total_miss_rate 0.332868
Core_0_L2C_demand_access 797009
Core_0_L2C_demand_hit 47145
Core_0_L2C_demand_miss 749864
Core_0_L2C_demand_MPKI 7.49864
Core_0_L2C_demand_miss_rate 0.940848
Core_0_L2C_load_access 786925
Core_0_L2C_load_hit 42151
Core_0_L2C_load_miss 744774
Core_0_L2C_load_MPKI 7.44774
Core_0_L2C_load_miss_rate 0.946436
Core_0_L2C_rfo_access 10084
Core_0_L2C_rfo_hit 4994
Core_0_L2C_rfo_miss 5090
Core_0_L2C_rfo_MPKI 0.0509
Core_0_L2C_rfo_miss_rate 0.50476
Core_0_L2C_prefetch_access 2784452
Core_0_L2C_prefetch_hit 2252174
Core_0_L2C_prefetch_miss 532278
Core_0_L2C_prefetch_MPKI 5.32278
Core_0_L2C_prefetch_miss_rate 0.191161
Core_0_L2C_writeback_access 270388
Core_0_L2C_writeback_hit 270374
Core_0_L2C_writeback_miss 14
Core_0_L2C_writeback_MPKI 0.00014
Core_0_L2C_writeback_miss_rate 5.17774e-05
Core_0_L2C_prefetch_requested 879566
Core_0_L2C_prefetch_issued 877757
Core_0_L2C_prefetch_useful 96321
Core_0_L2C_prefetch_useless 15554
Core_0_L2C_prefetch_late 738
Core_0_L2C_prefetch_fill 294622
Core_0_L2C_prefetch_too_early 374
Core_0_L2C_prefetch_too_early_among_fill 0.00126942
Core_0_L2C_prefetch_too_early_among_useless 0.0240453
Core_0_L2C_prefetch_pollution_evict 5694
Core_0_L2C_prefetch_pollution_demand 5689
Core_0_L2C_prefetch_pollution_among_prefetch_fill 0.0193265
Core_0_L2C_prefetch_accuracy 0.109735
Core_0_L2C_prefetch_coverage 0.11383

Core_0_LLC_total_access 1264134
Core_0_LLC_total_hit 256604
Core_0_LLC_total_miss 1007530
Core_0_LLC_total_MPKI 10.0753
Core_0_LLC_total_miss_rate 0.797012
Core_0_LLC_demand_access 743760
Core_0_LLC_demand_hit 23561
Core_0_LLC_demand_miss 720199
Core_0_LLC_demand_MPKI 7.20199
Core_0_LLC_demand_miss_rate 0.968322
Core_0_LLC_load_access 739323
Core_0_LLC_load_hit 23039
Core_0_LLC_load_miss 716284
Core_0_LLC_load_MPKI 7.16284
Core_0_LLC_load_miss_rate 0.968838
Core_0_LLC_rfo_access 4437
Core_0_LLC_rfo_hit 522
Core_0_LLC_rfo_miss 3915
Core_0_LLC_rfo_MPKI 0.03915
Core_0_LLC_rfo_miss_rate 0.882353
Core_0_LLC_prefetch_access 374791
Core_0_LLC_prefetch_hit 112359
Core_0_LLC_prefetch_miss 262432
Core_0_LLC_prefetch_MPKI 2.62432
Core_0_LLC_prefetch_miss_rate 0.700209
Core_0_LLC_writeback_access 145583
Core_0_LLC_writeback_hit 120684
Core_0_LLC_writeback_miss 24899
Core_0_LLC_writeback_MPKI 0.24899
Core_0_LLC_writeback_miss_rate 0.17103
Core_0_LLC_prefetch_requested 0
Core_0_LLC_prefetch_issued 0
Core_0_LLC_prefetch_useful 0
Core_0_LLC_prefetch_useless 0
Core_0_LLC_prefetch_late 0
Core_0_LLC_prefetch_fill 233860
Core_0_LLC_prefetch_too_early 0
Core_0_LLC_prefetch_too_early_among_fill 0
Core_0_LLC_prefetch_too_early_among_useless 0
Core_0_LLC_prefetch_pollution_evict 12557
Core_0_LLC_prefetch_pollution_demand 12557
Core_0_LLC_prefetch_pollution_among_prefetch_fill 0.0536945
Core_0_LLC_prefetch_accuracy 0
Core_0_LLC_prefetch_coverage 0

[DRAM Statistics]
Channel_0_RQ_row_buffer_hit 41479
Channel_0_RQ_row_buffer_miss 956236
Channel_0_WQ_row_buffer_hit 4533
Channel_0_WQ_row_buffer_miss 66668
Channel_0_WQ_full 0
Channel_0_dbus_congested 2159329
DRAM_total_RQ_row_buffer_hit 41479
DRAM_total_RQ_row_buffer_miss 956236
DRAM_total_WQ_row_buffer_hit 4533
DRAM_total_WQ_row_buffer_miss 66668
DRAM_total_WQ_full 0
DRAM_total_dbus_congested 2159329
DRAM_avg_congested_cycle 3.93948

====== DRAM_RQ_TRAFFIC ========
DRAM_RQ_READ_TRAFFIC_BREAKDOWN:
data_demand_read.count = 717965
data_demand_read.share = 71.96%

inst_demand_read.count = 6
inst_demand_read.share = 0.00%

cache_inst_prefetch.count = 0
cache_inst_prefetch.share = 0.00%

cache_data_prefetch.count = 236088
cache_data_prefetch.share = 23.66%

stlb_data_demand.count = 41069
stlb_data_demand.share = 4.12%

stlb_inst_demand.count = 2
stlb_inst_demand.share = 0.00%

stlb_l1i_pref.count = 0
stlb_l1i_pref.share = 0.00%

stlb_l1d_pref.count = 2588
stlb_l1d_pref.share = 0.26%

DRAM_RQ_READ_TRAFFIC_SUMMARY:
cache_demand.count = 717971
cache_demand.share = 71.96%

cache_prefetch.count = 236088
cache_prefetch.share = 23.66%

stlb_demand.count = 41071
stlb_demand.share = 4.12%

stlb_prefetch.count = 2588
stlb_prefetch.share = 0.26%

DRAM_RQ_READ_TRAFFIC_DEBUG:
total_classified_read.count = 997718
unclassified_read.count = 0
total_read_with_other.count = 997718

classified_plus_unclassified_check.count = 997718
dram_rq_read_total_observed.count = 997718
dram_rq_read_total_observed.per_1K_instructions = 9.97718

STLB_MISS_PTW_DRAM_TOUCH_BREAKDOWN:
stlb_miss_total.count = 432986

stlb_miss_touch_dram.count = 44250
stlb_miss_touch_dram.share = 10.22%

stlb_miss_no_dram_touch.count = 388736
stlb_miss_no_dram_touch.share = 89.78%

STLB_MISS_PTW_DRAM_TOUCH_DEBUG:
stlb_miss_touch_plus_no_touch.count = 432986
stlb_miss_total_check.count = 432986

======STLB miss causes ========
Core_0_STLB_miss_cause_breakdown
Core_0_STLB_cause_Demand_Data_miss 376695
Core_0_STLB_cause_Demand_Data_miss_rate 0.833778
Core_0_STLB_cause_Demand_Instruction_miss 1
Core_0_STLB_cause_Demand_Instruction_miss_rate 2.2134e-06
Core_0_STLB_cause_L1D_Prefetch_miss 56290
Core_0_STLB_cause_L1D_Prefetch_miss_rate 0.124592
Core_0_STLB_cause_L1D_Prefetch_Same_Page_miss 0
Core_0_STLB_cause_L1D_Prefetch_Same_Page_miss_rate 0
Core_0_STLB_cause_L1D_Prefetch_Cross_Page_miss 56290
Core_0_STLB_cause_L1D_Prefetch_Cross_Page_miss_rate 0.124592
Core_0_STLB_cause_L1I_Prefetch_miss 0
Core_0_STLB_cause_L1I_Prefetch_miss_rate 0
Core_0_STLB_cause_Other_miss 0
Core_0_STLB_cause_Other_miss_rate 0
Core_0_STLB_Demand_miss 376696
Core_0_STLB_Demand_miss_rate 0.83378
Core_0_STLB_L1D_Prefetch_miss 56290
Core_0_STLB_L1D_Prefetch_miss_rate 0.124592
Core_0_STLB_Other_miss 0
Core_0_STLB_Other_miss_rate 0

========== vBerti-TLB Cross-page Flow Stats ==========

Core_0_vBerti_Requested 145794315
Core_0_vBerti_Cross_page_prefetch_in_Requested 20891660
Core_0_vBerti_Same_page_prefetch_in_Requested 124902655
Core_0_vBerti_Cross_page_prefetch_of_Requested 0.143295
Core_0_vBerti_Issued 40780750
Core_0_vBerti_InPQ_Same_page_prefetch 37723001
Core_0_vBerti_InPQ_Cross_page_prefetch 3057749
Core_0_vBerti_PQ_Drop_Rate 0.720286
Core_0_vBerti_InPQ_Cross_page_prefetch_of_Requested 0.020973
Core_0_vBerti_Cross_page_PQ_Drop_rate 0.853638
Core_0_vBerti_Cross_page_prefetch_of_Issued 0.0749802
Core_0_CP_PF_PQFULL_drop 17833911
Core_0_CP_PF_PQFULL_TLB_rescue_enqueued 0
Core_0_CP_PF_PQFULL_TLB_rescue_issued 0
Core_0_CP_PF_PQFULL_TLB_rescue_translated 0

========= DTLB_vBerti Prefetch Stats =========
Core_0_DTLB_demand_access 23261605
Core_0_DTLB_demand_hit 22693428
Core_0_DTLB_demand_miss 568177
Core_0_DTLB_demand_mshr_merge 175571
Core_0_DTLB_demand_fill 394747
Core_0_DTLB_demand_miss_rate 0.0244255
Core_0_DTLB_demand_mpki 5.68177
Core_0_DTLB_vberti_prefetch_access 25032986
Core_0_DTLB_vberti_prefetch_hit 24898751
Core_0_DTLB_vberti_prefetch_miss 134235
Core_0_DTLB_vberti_prefetch_mshr_merge 75049
Core_0_DTLB_vberti_prefetch_fill 57045
Core_0_DTLB_vberti_prefetch_miss_rate 0.00536232
Core_0_DTLB_vberti_prefetch_mpki 1.34235

=== DTLB_vBerti Same/Cross-page Prefetch Stats ===
Core_0_DTLB_vberti_same_page_prefetch 23019291
Core_0_DTLB_vberti_same_page_prefetch_hit 23019264
Core_0_DTLB_vberti_same_page_prefetch_miss 27
Core_0_DTLB_vberti_same_page_prefetch_mshr_merge 8
Core_0_DTLB_vberti_same_page_prefetch_fill 18
Core_0_DTLB_vberti_same_page_prefetch_miss_rate 1.17293e-06
Core_0_DTLB_vberti_same_page_prefetch_mpki 0.00027
Core_0_DTLB_vberti_cross_page_prefetch 2013695
Core_0_DTLB_vberti_cross_page_prefetch_hit 1879487
Core_0_DTLB_vberti_cross_page_prefetch_miss 134208
Core_0_DTLB_vberti_cross_page_prefetch_mshr_merge 75041
Core_0_DTLB_vberti_cross_page_prefetch_fill 57027
Core_0_DTLB_vberti_cross_page_prefetch_miss_rate 0.0666476
Core_0_DTLB_vberti_cross_page_prefetch_mpki 1.34208
Core_0_DTLB_same_page_prefetch_miss_rate 1.17293e-06
Core_0_DTLB_same_page_prefetch_mpki 0.00027
Core_0_DTLB_cross_page_prefetch_miss_rate 0.0666476
Core_0_DTLB_cross_page_prefetch_mpki 1.34208
Core_0_DTLB_cross_page_prefetch_issued 2013695
Core_0_DTLB_cross_page_prefetch_lookups 2013695
Core_0_DTLB_cross_page_prefetch_useful 14435
Core_0_DTLB_cross_page_prefetch_useless 44732
Core_0_DTLB_cross_page_prefetch_late 2140
Core_0_DTLB_cross_page_prefetch_too_early 206
Core_0_DTLB_cross_page_prefetch_too_early_among_fill 0.00361232
Core_0_DTLB_cross_page_prefetch_too_early_among_useless 0.0046052
Core_0_DTLB_cross_page_prefetch_pollution_evict 576
Core_0_DTLB_cross_page_prefetch_pollution_demand 447
Core_0_DTLB_cross_page_prefetch_pollution_among_prefetch_fill 0.0101005
Core_0_DTLB_cross_page_prefetch_accuracy 0.00716841
Core_0_DTLB_cross_page_prefetch_coverage 0.0247764

========= STLB_vBerti Prefetch Stats =========
Core_0_STLB_demand_access 392607
Core_0_STLB_demand_hit 15911
Core_0_STLB_demand_miss 376696
Core_0_STLB_demand_mshr_merge 0
Core_0_STLB_demand_fill 376696
Core_0_STLB_demand_miss_rate 0.959473
Core_0_STLB_demand_mpki 3.76696
Core_0_STLB_vberti_prefetch_access 59186
Core_0_STLB_vberti_prefetch_hit 2896
Core_0_STLB_vberti_prefetch_miss 56290
Core_0_STLB_vberti_prefetch_mshr_merge 0
Core_0_STLB_vberti_prefetch_fill 56290
Core_0_STLB_vberti_prefetch_miss_rate 0.95107
Core_0_STLB_vberti_prefetch_mpki 0.5629

=== STLB_vBerti Same/Cross-page Prefetch Stats ===
Core_0_STLB_vberti_same_page_prefetch 19
Core_0_STLB_vberti_same_page_prefetch_hit 19
Core_0_STLB_vberti_same_page_prefetch_miss 0
Core_0_STLB_vberti_same_page_prefetch_mshr_merge 0
Core_0_STLB_vberti_same_page_prefetch_fill 0
Core_0_STLB_vberti_same_page_prefetch_miss_rate 0
Core_0_STLB_vberti_same_page_prefetch_mpki 0
Core_0_STLB_vberti_cross_page_prefetch 59167
Core_0_STLB_vberti_cross_page_prefetch_hit 2877
Core_0_STLB_vberti_cross_page_prefetch_miss 56290
Core_0_STLB_vberti_cross_page_prefetch_mshr_merge 0
Core_0_STLB_vberti_cross_page_prefetch_fill 56290
Core_0_STLB_vberti_cross_page_prefetch_miss_rate 0.951375
Core_0_STLB_vberti_cross_page_prefetch_mpki 0.5629
Core_0_STLB_same_page_prefetch_miss_rate 0
Core_0_STLB_same_page_prefetch_mpki 0
Core_0_STLB_cross_page_prefetch_miss_rate 0.951375
Core_0_STLB_cross_page_prefetch_mpki 0.5629
Core_0_STLB_cross_page_prefetch_issued 59167
Core_0_STLB_cross_page_prefetch_lookups 59167
Core_0_STLB_cross_page_prefetch_useful 980
Core_0_STLB_cross_page_prefetch_useless 55310
Core_0_STLB_cross_page_prefetch_late 0
Core_0_STLB_cross_page_prefetch_too_early 10661
Core_0_STLB_cross_page_prefetch_too_early_among_fill 0.189394
Core_0_STLB_cross_page_prefetch_too_early_among_useless 0.19275
Core_0_STLB_cross_page_prefetch_pollution_evict 13107
Core_0_STLB_cross_page_prefetch_pollution_demand 11424
Core_0_STLB_cross_page_prefetch_pollution_among_prefetch_fill 0.232848
Core_0_STLB_cross_page_prefetch_accuracy 0.0165633
Core_0_STLB_cross_page_prefetch_coverage 0.00259482

========= STLB Cross-page Prefetch Buffer Stats =========
Core_0_STLB_raw_demand_miss 376695
Core_0_CP_PB_insert 0
Core_0_CP_PB_demand_hit 0
Core_0_STLB_PB_demand_miss 376695
Core_0_CP_PB_coverage 0
Core_0_STLB_raw_demand_mpki 3.76695
Core_0_STLB_PB_demand_mpki 3.76695
Core_0_CP_PB_demand_hit_mpki 0

Core_0_TLB_demand_miss_rate 0.0161939
Core_0_TLB_demand_mpki 3.76696
Core_0_TLB_same_page_prefetch_miss_rate 0
Core_0_TLB_same_page_prefetch_mpki 0
Core_0_TLB_cross_page_prefetch_miss_rate 0.0279536
Core_0_TLB_cross_page_prefetch_mpki 0.5629
Core_0_TLB_cross_page_prefetch_issued 2013695
Core_0_TLB_cross_page_prefetch_lookups 2013695
Core_0_TLB_cross_page_prefetch_useful 12840
Core_0_TLB_cross_page_prefetch_useless 44582
Core_0_TLB_cross_page_prefetch_late 2138
Core_0_TLB_cross_page_prefetch_too_early 205
Core_0_TLB_cross_page_prefetch_too_early_among_fill 0.00180908
Core_0_TLB_cross_page_prefetch_too_early_among_useless 0.00459827
Core_0_TLB_cross_page_prefetch_accuracy 0.00637634
Core_0_TLB_cross_page_prefetch_coverage 0.0329623
====== vBerti internal metric ========
Core_0_vBerti_end_to_end_issued 37723001
Core_0_vBerti_end_to_end_useful 37073
Core_0_vBerti_end_to_end_late 6645
Core_0_vBerti_end_to_end_accuracy 0.000982769
Core_0_vBerti_end_to_end_timely_accuracy 0.000806617
BERTI TO_L1: 84720170 TO_L2: 40182485 TO_L2_BC_MSHR: 11363343
BERTI AVG_LAT: 236.608 NUM_TRACK_LATENCY: 1115255 NUM_CANT_TRACK_LATENCY: 0
BERTI CROSS_PAGE 20891660 NO_CROSS_PAGE: 124902655
BERTI FOUND_BERTI: 25358191 NO_FOUND_BERTI: 11722988
BERTI AVERAGE_ISSUED: 3.79794
