[VMEM] WARNING: physical memory size is smaller than virtual memory size.

*** ChampSim Multicore Out-of-Order Simulator ***
Warmup Instructions: 50000000
Simulation Instructions: 100000000
Number of CPUs: 1
Page size: 4096
Core 0: /data2/zcq/champsim_traces_gap/tc.urand-825B.champsimtrace.xz
VBerti Prefetcher
BERTI HASH ENTANGLING
BERTI IP MASK ffff
Off-chip DRAM Size: 16 GiB Channels: 1 Width: 64-bit Data Rate: 3205 MT/s
Warmup halting CPU 0 at instruction 50000004 cycle 38740067 for remainder of phase
Warmup finished CPU 0 instructions: 50000004 cycles: 38740067 cumulative IPC: 1.291 (Simulation time: 00 hr 07 min 05 sec)
Warmup complete CPU 0 instructions: 50000004 cycles: 38740067 cumulative IPC: 1.291 (Simulation time: 00 hr 07 min 05 sec)
Simulation finished CPU 0 instructions: 100000004 cycles: 1355023970 cumulative IPC: 0.0738 (Simulation time: 01 hr 22 min 42 sec)
Simulation complete CPU 0 instructions: 100000004 cycles: 1355023970 cumulative IPC: 0.0738 (Simulation time: 01 hr 22 min 42 sec)

ChampSim completed all CPUs

=== Simulation ===
CPU 0 runs /data2/zcq/champsim_traces_gap/tc.urand-825B.champsimtrace.xz

Region of Interest Statistics

CPU 0 cumulative IPC: 0.0738 instructions: 100000004 cycles: 1355023970
CPU 0 Branch Prediction Accuracy: 81.64% MPKI: 42.96 Average ROB Occupancy at Mispredict: 7.511
Branch type MPKI
BRANCH_DIRECT_JUMP: 0
BRANCH_INDIRECT: 0
BRANCH_CONDITIONAL: 42.96
BRANCH_DIRECT_CALL: 0
BRANCH_INDIRECT_CALL: 0
BRANCH_RETURN: 0

cpu0->cpu0_STLB TOTAL        ACCESS:    3971847 HIT:      81304 MISS:    3890543 MSHR_MERGE:          0
cpu0->cpu0_STLB LOAD         ACCESS:    3971847 HIT:      81304 MISS:    3890543 MSHR_MERGE:          0
cpu0->cpu0_STLB RFO          ACCESS:          0 HIT:          0 MISS:          0 MSHR_MERGE:          0
cpu0->cpu0_STLB PREFETCH     ACCESS:          0 HIT:          0 MISS:          0 MSHR_MERGE:          0
cpu0->cpu0_STLB WRITE        ACCESS:          0 HIT:          0 MISS:          0 MSHR_MERGE:          0
cpu0->cpu0_STLB TRANSLATION  ACCESS:          0 HIT:          0 MISS:          0 MSHR_MERGE:          0
cpu0->cpu0_STLB PREFETCH REQUESTED:          0 ISSUED:          0 USEFUL:          0 USELESS:          0 LATE:          0 TOO_EARLY:          0
cpu0->cpu0_STLB AVERAGE MISS LATENCY: 106.2 cycles
cpu0->cpu0_L2C TOTAL        ACCESS:   13352870 HIT:    4665676 MISS:    8687194 MSHR_MERGE:      97169
cpu0->cpu0_L2C LOAD         ACCESS:    4725246 HIT:     278910 MISS:    4446336 MSHR_MERGE:        247
cpu0->cpu0_L2C RFO          ACCESS:       7586 HIT:       7585 MISS:          1 MSHR_MERGE:          0
cpu0->cpu0_L2C PREFETCH     ACCESS:    4154217 HIT:    3104957 MISS:    1049260 MSHR_MERGE:      96922
cpu0->cpu0_L2C WRITE        ACCESS:       7814 HIT:       7814 MISS:          0 MSHR_MERGE:          0
cpu0->cpu0_L2C TRANSLATION  ACCESS:    4458007 HIT:    1266410 MISS:    3191597 MSHR_MERGE:          0
cpu0->cpu0_L2C PREFETCH REQUESTED:    1021976 ISSUED:    1021976 USEFUL:     335157 USELESS:      13768 LATE:         19 TOO_EARLY:          8
cpu0->cpu0_L2C AVERAGE MISS LATENCY: 156 cycles
cpu0->cpu0_L1I TOTAL        ACCESS:          9 HIT:          9 MISS:          0 MSHR_MERGE:          0
cpu0->cpu0_L1I LOAD         ACCESS:          9 HIT:          9 MISS:          0 MSHR_MERGE:          0
cpu0->cpu0_L1I RFO          ACCESS:          0 HIT:          0 MISS:          0 MSHR_MERGE:          0
cpu0->cpu0_L1I PREFETCH     ACCESS:          0 HIT:          0 MISS:          0 MSHR_MERGE:          0
cpu0->cpu0_L1I WRITE        ACCESS:          0 HIT:          0 MISS:          0 MSHR_MERGE:          0
cpu0->cpu0_L1I TRANSLATION  ACCESS:          0 HIT:          0 MISS:          0 MSHR_MERGE:          0
cpu0->cpu0_L1I PREFETCH REQUESTED:          0 ISSUED:          0 USEFUL:          0 USELESS:          0 LATE:          0 TOO_EARLY:          0
cpu0->cpu0_L1I AVERAGE MISS LATENCY: - cycles
cpu0->cpu0_L1D TOTAL        ACCESS:   31986664 HIT:   18485561 MISS:   13501103 MSHR_MERGE:    1173340
cpu0->cpu0_L1D LOAD         ACCESS:   13982182 HIT:    8084982 MISS:    5897200 MSHR_MERGE:    1171954
cpu0->cpu0_L1D RFO          ACCESS:          0 HIT:          0 MISS:          0 MSHR_MERGE:          0
cpu0->cpu0_L1D PREFETCH     ACCESS:    6799265 HIT:    3662316 MISS:    3136949 MSHR_MERGE:         25
cpu0->cpu0_L1D WRITE        ACCESS:      38575 HIT:      30989 MISS:       7586 MSHR_MERGE:          0
cpu0->cpu0_L1D TRANSLATION  ACCESS:   11166642 HIT:    6707274 MISS:    4459368 MSHR_MERGE:       1361
cpu0->cpu0_L1D PREFETCH REQUESTED:    8546930 ISSUED:    7578231 USEFUL:     406207 USELESS:     118858 LATE:        208 TOO_EARLY:         21
cpu0->cpu0_L1D AVERAGE MISS LATENCY: 138.5 cycles
cpu0->cpu0_ITLB TOTAL        ACCESS:          8 HIT:          8 MISS:          0 MSHR_MERGE:          0
cpu0->cpu0_ITLB LOAD         ACCESS:          8 HIT:          8 MISS:          0 MSHR_MERGE:          0
cpu0->cpu0_ITLB RFO          ACCESS:          0 HIT:          0 MISS:          0 MSHR_MERGE:          0
cpu0->cpu0_ITLB PREFETCH     ACCESS:          0 HIT:          0 MISS:          0 MSHR_MERGE:          0
cpu0->cpu0_ITLB WRITE        ACCESS:          0 HIT:          0 MISS:          0 MSHR_MERGE:          0
cpu0->cpu0_ITLB TRANSLATION  ACCESS:          0 HIT:          0 MISS:          0 MSHR_MERGE:          0
cpu0->cpu0_ITLB PREFETCH REQUESTED:          0 ISSUED:          0 USEFUL:          0 USELESS:          0 LATE:          0 TOO_EARLY:          0
cpu0->cpu0_ITLB AVERAGE MISS LATENCY: - cycles
cpu0->cpu0_DTLB TOTAL        ACCESS:   18776026 HIT:   13451775 MISS:    5324251 MSHR_MERGE:    1352404
cpu0->cpu0_DTLB LOAD         ACCESS:   18776026 HIT:   13451775 MISS:    5324251 MSHR_MERGE:    1352404
cpu0->cpu0_DTLB RFO          ACCESS:          0 HIT:          0 MISS:          0 MSHR_MERGE:          0
cpu0->cpu0_DTLB PREFETCH     ACCESS:          0 HIT:          0 MISS:          0 MSHR_MERGE:          0
cpu0->cpu0_DTLB WRITE        ACCESS:          0 HIT:          0 MISS:          0 MSHR_MERGE:          0
cpu0->cpu0_DTLB TRANSLATION  ACCESS:          0 HIT:          0 MISS:          0 MSHR_MERGE:          0
cpu0->cpu0_DTLB PREFETCH REQUESTED:          0 ISSUED:          0 USEFUL:          0 USELESS:          0 LATE:          0 TOO_EARLY:          0
cpu0->cpu0_DTLB AVERAGE MISS LATENCY: 110 cycles
cpu0->LLC TOTAL        ACCESS:    8590026 HIT:    1820143 MISS:    6769883 MSHR_MERGE:          0
cpu0->LLC LOAD         ACCESS:    4446089 HIT:       3864 MISS:    4442225 MSHR_MERGE:          0
cpu0->LLC RFO          ACCESS:          1 HIT:          1 MISS:          0 MSHR_MERGE:          0
cpu0->LLC PREFETCH     ACCESS:     952338 HIT:         10 MISS:     952328 MSHR_MERGE:          0
cpu0->LLC WRITE        ACCESS:          1 HIT:          0 MISS:          1 MSHR_MERGE:          0
cpu0->LLC TRANSLATION  ACCESS:    3191597 HIT:    1816268 MISS:    1375329 MSHR_MERGE:          0
cpu0->LLC PREFETCH REQUESTED:          0 ISSUED:          0 USEFUL:          0 USELESS:          0 LATE:          0 TOO_EARLY:          0
cpu0->LLC AVERAGE MISS LATENCY: 184.2 cycles

DRAM Statistics

Channel 0 RQ ROW_BUFFER_HIT:        517
  ROW_BUFFER_MISS:    6769365
  AVG DBUS CONGESTED CYCLE: 2.897
Channel 0 WQ ROW_BUFFER_HIT:          0
  ROW_BUFFER_MISS:          1
  FULL:          0
Channel 0 REFRESHES ISSUED:     112919

[ROI Statistics]
[System Configuration]
num_cpus 1
cpu_freq 4000
fetch_width 6
decode_width 6
dispatch_width 6
execute_width 6
lq_width 2
sq_width 2
retire_width 6
scheduler_size 128
branch_mispredict_penalty 15
rob_size 352
lq_size 128
sq_size 72
ifetch_buffer_size 64
decode_buffer_size 32
dispatch_buffer_size 32
register_file_size 288
decode_latency 1
dispatch_latency 1
schedule_latency 1
execute_latency 1
page_size 4096
block_size 64
core_0_itlb_set 16
core_0_itlb_way 4
core_0_itlb_rq_size 16
core_0_itlb_wq_size 16
core_0_itlb_pq_size 0
core_0_itlb_mshr_size 8
core_0_itlb_hit_latency 1
core_0_itlb_fill_latency 1
core_0_itlb_max_tag_check 2
core_0_itlb_max_fill 2
core_0_dtlb_set 16
core_0_dtlb_way 4
core_0_dtlb_rq_size 16
core_0_dtlb_wq_size 16
core_0_dtlb_pq_size 0
core_0_dtlb_mshr_size 8
core_0_dtlb_hit_latency 1
core_0_dtlb_fill_latency 1
core_0_dtlb_max_tag_check 2
core_0_dtlb_max_fill 2
core_0_stlb_set 128
core_0_stlb_way 12
core_0_stlb_rq_size 32
core_0_stlb_wq_size 32
core_0_stlb_pq_size 0
core_0_stlb_mshr_size 16
core_0_stlb_hit_latency 4
core_0_stlb_fill_latency 4
core_0_stlb_max_tag_check 1
core_0_stlb_max_fill 1
core_0_l1i_set 64
core_0_l1i_way 8
core_0_l1i_rq_size 64
core_0_l1i_wq_size 64
core_0_l1i_pq_size 32
core_0_l1i_mshr_size 8
core_0_l1i_hit_latency 2
core_0_l1i_fill_latency 2
core_0_l1i_max_tag_check 2
core_0_l1i_max_fill 2
core_0_l1d_set 64
core_0_l1d_way 12
core_0_l1d_rq_size 64
core_0_l1d_wq_size 64
core_0_l1d_pq_size 8
core_0_l1d_mshr_size 16
core_0_l1d_hit_latency 2
core_0_l1d_fill_latency 3
core_0_l1d_max_tag_check 2
core_0_l1d_max_fill 2
core_0_l2c_set 1024
core_0_l2c_way 8
core_0_l2c_rq_size 32
core_0_l2c_wq_size 32
core_0_l2c_pq_size 16
core_0_l2c_mshr_size 32
core_0_l2c_hit_latency 5
core_0_l2c_fill_latency 5
core_0_l2c_max_tag_check 1
core_0_l2c_max_fill 1
llc_set 2048
llc_way 16
llc_rq_size 32
llc_wq_size 32
llc_pq_size 32
llc_mshr_size 64
llc_hit_latency 10
llc_fill_latency 10
llc_max_tag_check 1
llc_max_fill 1
dram_channels 1
dram_ranks 1
dram_bankgroups 8
dram_banks 4
dram_rows 65536
dram_columns 1024
dram_channel_width 8
dram_rq_size 64
dram_wq_size 64
dram_size 17179869184
core_0_itlb_prefetcher no
core_0_dtlb_prefetcher no
core_0_stlb_prefetcher no
core_0_l1i_prefetcher next_line
core_0_l1d_prefetcher vberti
core_0_l2c_prefetcher ip_stride
llc_prefetcher no
llc_replacement drrip

Core_0_instructions 100000004
Core_0_cycles 1355023970
Core_0_IPC 0.0737994
Core_0_branch_prediction_accuracy 81.6392
Core_0_branch_MPKI 42.956
Core_0_average_ROB_occupancy_at_mispredict 7.51118

Core_0_ITLB_total_access 8
Core_0_ITLB_total_hit 8
Core_0_ITLB_total_miss 0
Core_0_ITLB_total_MPKI 0
Core_0_ITLB_total_miss_rate 0
Core_0_ITLB_demand_access 8
Core_0_ITLB_demand_hit 8
Core_0_ITLB_demand_miss 0
Core_0_ITLB_demand_MPKI 0
Core_0_ITLB_demand_miss_rate 0
Core_0_ITLB_load_access 8
Core_0_ITLB_load_hit 8
Core_0_ITLB_load_miss 0
Core_0_ITLB_load_MPKI 0
Core_0_ITLB_load_miss_rate 0
Core_0_ITLB_rfo_access 0
Core_0_ITLB_rfo_hit 0
Core_0_ITLB_rfo_miss 0
Core_0_ITLB_rfo_MPKI 0
Core_0_ITLB_rfo_miss_rate 0
Core_0_ITLB_prefetch_access 0
Core_0_ITLB_prefetch_hit 0
Core_0_ITLB_prefetch_miss 0
Core_0_ITLB_prefetch_MPKI 0
Core_0_ITLB_prefetch_miss_rate 0
Core_0_ITLB_writeback_access 0
Core_0_ITLB_writeback_hit 0
Core_0_ITLB_writeback_miss 0
Core_0_ITLB_writeback_MPKI 0
Core_0_ITLB_writeback_miss_rate 0
Core_0_ITLB_prefetch_requested 0
Core_0_ITLB_prefetch_issued 0
Core_0_ITLB_prefetch_useful 0
Core_0_ITLB_prefetch_useless 0
Core_0_ITLB_prefetch_late 0
Core_0_ITLB_prefetch_fill 0
Core_0_ITLB_prefetch_too_early 0
Core_0_ITLB_prefetch_too_early_among_fill 0
Core_0_ITLB_prefetch_too_early_among_useless 0
Core_0_ITLB_prefetch_pollution_evict 0
Core_0_ITLB_prefetch_pollution_demand 0
Core_0_ITLB_prefetch_pollution_among_prefetch_fill 0
Core_0_ITLB_prefetch_accuracy 0
Core_0_ITLB_prefetch_coverage 0

Core_0_DTLB_total_access 18776026
Core_0_DTLB_total_hit 13451775
Core_0_DTLB_total_miss 5324251
Core_0_DTLB_total_MPKI 53.2425
Core_0_DTLB_total_miss_rate 0.283566
Core_0_DTLB_demand_access 18776026
Core_0_DTLB_demand_hit 13451775
Core_0_DTLB_demand_miss 5324251
Core_0_DTLB_demand_MPKI 53.2425
Core_0_DTLB_demand_miss_rate 0.283566
Core_0_DTLB_load_access 18776026
Core_0_DTLB_load_hit 13451775
Core_0_DTLB_load_miss 5324251
Core_0_DTLB_load_MPKI 53.2425
Core_0_DTLB_load_miss_rate 0.283566
Core_0_DTLB_rfo_access 0
Core_0_DTLB_rfo_hit 0
Core_0_DTLB_rfo_miss 0
Core_0_DTLB_rfo_MPKI 0
Core_0_DTLB_rfo_miss_rate 0
Core_0_DTLB_prefetch_access 0
Core_0_DTLB_prefetch_hit 0
Core_0_DTLB_prefetch_miss 0
Core_0_DTLB_prefetch_MPKI 0
Core_0_DTLB_prefetch_miss_rate 0
Core_0_DTLB_writeback_access 0
Core_0_DTLB_writeback_hit 0
Core_0_DTLB_writeback_miss 0
Core_0_DTLB_writeback_MPKI 0
Core_0_DTLB_writeback_miss_rate 0
Core_0_DTLB_prefetch_requested 0
Core_0_DTLB_prefetch_issued 0
Core_0_DTLB_prefetch_useful 0
Core_0_DTLB_prefetch_useless 0
Core_0_DTLB_prefetch_late 0
Core_0_DTLB_prefetch_fill 0
Core_0_DTLB_prefetch_too_early 0
Core_0_DTLB_prefetch_too_early_among_fill 0
Core_0_DTLB_prefetch_too_early_among_useless 0
Core_0_DTLB_prefetch_pollution_evict 0
Core_0_DTLB_prefetch_pollution_demand 0
Core_0_DTLB_prefetch_pollution_among_prefetch_fill 0
Core_0_DTLB_prefetch_accuracy 0
Core_0_DTLB_prefetch_coverage 0

Core_0_STLB_total_access 3971847
Core_0_STLB_total_hit 81304
Core_0_STLB_total_miss 3890543
Core_0_STLB_total_MPKI 38.9054
Core_0_STLB_total_miss_rate 0.97953
Core_0_STLB_demand_access 3971847
Core_0_STLB_demand_hit 81304
Core_0_STLB_demand_miss 3890543
Core_0_STLB_demand_MPKI 38.9054
Core_0_STLB_demand_miss_rate 0.97953
Core_0_STLB_load_access 3971847
Core_0_STLB_load_hit 81304
Core_0_STLB_load_miss 3890543
Core_0_STLB_load_MPKI 38.9054
Core_0_STLB_load_miss_rate 0.97953
Core_0_STLB_rfo_access 0
Core_0_STLB_rfo_hit 0
Core_0_STLB_rfo_miss 0
Core_0_STLB_rfo_MPKI 0
Core_0_STLB_rfo_miss_rate 0
Core_0_STLB_prefetch_access 0
Core_0_STLB_prefetch_hit 0
Core_0_STLB_prefetch_miss 0
Core_0_STLB_prefetch_MPKI 0
Core_0_STLB_prefetch_miss_rate 0
Core_0_STLB_writeback_access 0
Core_0_STLB_writeback_hit 0
Core_0_STLB_writeback_miss 0
Core_0_STLB_writeback_MPKI 0
Core_0_STLB_writeback_miss_rate 0
Core_0_STLB_prefetch_requested 0
Core_0_STLB_prefetch_issued 0
Core_0_STLB_prefetch_useful 0
Core_0_STLB_prefetch_useless 0
Core_0_STLB_prefetch_late 0
Core_0_STLB_prefetch_fill 0
Core_0_STLB_prefetch_too_early 0
Core_0_STLB_prefetch_too_early_among_fill 0
Core_0_STLB_prefetch_too_early_among_useless 0
Core_0_STLB_prefetch_pollution_evict 0
Core_0_STLB_prefetch_pollution_demand 0
Core_0_STLB_prefetch_pollution_among_prefetch_fill 0
Core_0_STLB_prefetch_accuracy 0
Core_0_STLB_prefetch_coverage 0

Core_0_L1I_total_access 9
Core_0_L1I_total_hit 9
Core_0_L1I_total_miss 0
Core_0_L1I_total_MPKI 0
Core_0_L1I_total_miss_rate 0
Core_0_L1I_demand_access 9
Core_0_L1I_demand_hit 9
Core_0_L1I_demand_miss 0
Core_0_L1I_demand_MPKI 0
Core_0_L1I_demand_miss_rate 0
Core_0_L1I_load_access 9
Core_0_L1I_load_hit 9
Core_0_L1I_load_miss 0
Core_0_L1I_load_MPKI 0
Core_0_L1I_load_miss_rate 0
Core_0_L1I_rfo_access 0
Core_0_L1I_rfo_hit 0
Core_0_L1I_rfo_miss 0
Core_0_L1I_rfo_MPKI 0
Core_0_L1I_rfo_miss_rate 0
Core_0_L1I_prefetch_access 0
Core_0_L1I_prefetch_hit 0
Core_0_L1I_prefetch_miss 0
Core_0_L1I_prefetch_MPKI 0
Core_0_L1I_prefetch_miss_rate 0
Core_0_L1I_writeback_access 0
Core_0_L1I_writeback_hit 0
Core_0_L1I_writeback_miss 0
Core_0_L1I_writeback_MPKI 0
Core_0_L1I_writeback_miss_rate 0
Core_0_L1I_prefetch_requested 0
Core_0_L1I_prefetch_issued 0
Core_0_L1I_prefetch_useful 0
Core_0_L1I_prefetch_useless 0
Core_0_L1I_prefetch_late 0
Core_0_L1I_prefetch_fill 0
Core_0_L1I_prefetch_too_early 0
Core_0_L1I_prefetch_too_early_among_fill 0
Core_0_L1I_prefetch_too_early_among_useless 0
Core_0_L1I_prefetch_pollution_evict 0
Core_0_L1I_prefetch_pollution_demand 0
Core_0_L1I_prefetch_pollution_among_prefetch_fill 0
Core_0_L1I_prefetch_accuracy 0
Core_0_L1I_prefetch_coverage 0

Core_0_L1D_total_access 20820022
Core_0_L1D_total_hit 11778287
Core_0_L1D_total_miss 9041735
Core_0_L1D_total_MPKI 90.4173
Core_0_L1D_total_miss_rate 0.434281
Core_0_L1D_demand_access 13982182
Core_0_L1D_demand_hit 8084982
Core_0_L1D_demand_miss 5897200
Core_0_L1D_demand_MPKI 58.972
Core_0_L1D_demand_miss_rate 0.421765
Core_0_L1D_load_access 13982182
Core_0_L1D_load_hit 8084982
Core_0_L1D_load_miss 5897200
Core_0_L1D_load_MPKI 58.972
Core_0_L1D_load_miss_rate 0.421765
Core_0_L1D_rfo_access 0
Core_0_L1D_rfo_hit 0
Core_0_L1D_rfo_miss 0
Core_0_L1D_rfo_MPKI 0
Core_0_L1D_rfo_miss_rate 0
Core_0_L1D_prefetch_access 6799265
Core_0_L1D_prefetch_hit 3662316
Core_0_L1D_prefetch_miss 3136949
Core_0_L1D_prefetch_MPKI 31.3695
Core_0_L1D_prefetch_miss_rate 0.461366
Core_0_L1D_writeback_access 38575
Core_0_L1D_writeback_hit 30989
Core_0_L1D_writeback_miss 7586
Core_0_L1D_writeback_MPKI 0.07586
Core_0_L1D_writeback_miss_rate 0.196656
Core_0_L1D_prefetch_requested 8546930
Core_0_L1D_prefetch_issued 7578231
Core_0_L1D_prefetch_useful 406207
Core_0_L1D_prefetch_useless 118858
Core_0_L1D_prefetch_late 208
Core_0_L1D_prefetch_fill 524857
Core_0_L1D_prefetch_too_early 21
Core_0_L1D_prefetch_too_early_among_fill 4.00109e-05
Core_0_L1D_prefetch_too_early_among_useless 0.000176681
Core_0_L1D_prefetch_pollution_evict 3089
Core_0_L1D_prefetch_pollution_demand 3089
Core_0_L1D_cross_page_pf_translation_only_requested 932344
Core_0_L1D_cross_page_pf_translation_only_issued 778973
Core_0_L1D_cross_page_pf_translation_only_dropped 778973
Core_0_L1D_prefetch_pollution_among_prefetch_fill 0.00588541
Core_0_L1D_prefetch_accuracy 0.0536018
Core_0_L1D_prefetch_coverage 0.0644425

Core_0_L2C_total_access 8894863
Core_0_L2C_total_hit 3399266
Core_0_L2C_total_miss 5495597
Core_0_L2C_total_MPKI 54.956
Core_0_L2C_total_miss_rate 0.617839
Core_0_L2C_demand_access 4732832
Core_0_L2C_demand_hit 286495
Core_0_L2C_demand_miss 4446337
Core_0_L2C_demand_MPKI 44.4634
Core_0_L2C_demand_miss_rate 0.939466
Core_0_L2C_load_access 4725246
Core_0_L2C_load_hit 278910
Core_0_L2C_load_miss 4446336
Core_0_L2C_load_MPKI 44.4634
Core_0_L2C_load_miss_rate 0.940975
Core_0_L2C_rfo_access 7586
Core_0_L2C_rfo_hit 7585
Core_0_L2C_rfo_miss 1
Core_0_L2C_rfo_MPKI 1e-05
Core_0_L2C_rfo_miss_rate 0.000131822
Core_0_L2C_prefetch_access 4154217
Core_0_L2C_prefetch_hit 3104957
Core_0_L2C_prefetch_miss 1049260
Core_0_L2C_prefetch_MPKI 10.4926
Core_0_L2C_prefetch_miss_rate 0.252577
Core_0_L2C_writeback_access 7814
Core_0_L2C_writeback_hit 7814
Core_0_L2C_writeback_miss 0
Core_0_L2C_writeback_MPKI 0
Core_0_L2C_writeback_miss_rate 0
Core_0_L2C_prefetch_requested 1021976
Core_0_L2C_prefetch_issued 1021976
Core_0_L2C_prefetch_useful 335157
Core_0_L2C_prefetch_useless 13768
Core_0_L2C_prefetch_late 19
Core_0_L2C_prefetch_fill 952081
Core_0_L2C_prefetch_too_early 8
Core_0_L2C_prefetch_too_early_among_fill 8.40265e-06
Core_0_L2C_prefetch_too_early_among_useless 0.000581058
Core_0_L2C_prefetch_pollution_evict 2605
Core_0_L2C_prefetch_pollution_demand 2605
Core_0_L2C_prefetch_pollution_among_prefetch_fill 0.00273611
Core_0_L2C_prefetch_accuracy 0.32795
Core_0_L2C_prefetch_coverage 0.0700946

Core_0_LLC_total_access 5398429
Core_0_LLC_total_hit 3875
Core_0_LLC_total_miss 5394554
Core_0_LLC_total_MPKI 53.9455
Core_0_LLC_total_miss_rate 0.999282
Core_0_LLC_demand_access 4446090
Core_0_LLC_demand_hit 3865
Core_0_LLC_demand_miss 4442225
Core_0_LLC_demand_MPKI 44.4222
Core_0_LLC_demand_miss_rate 0.999131
Core_0_LLC_load_access 4446089
Core_0_LLC_load_hit 3864
Core_0_LLC_load_miss 4442225
Core_0_LLC_load_MPKI 44.4222
Core_0_LLC_load_miss_rate 0.999131
Core_0_LLC_rfo_access 1
Core_0_LLC_rfo_hit 1
Core_0_LLC_rfo_miss 0
Core_0_LLC_rfo_MPKI 0
Core_0_LLC_rfo_miss_rate 0
Core_0_LLC_prefetch_access 952338
Core_0_LLC_prefetch_hit 10
Core_0_LLC_prefetch_miss 952328
Core_0_LLC_prefetch_MPKI 9.52328
Core_0_LLC_prefetch_miss_rate 0.999989
Core_0_LLC_writeback_access 1
Core_0_LLC_writeback_hit 0
Core_0_LLC_writeback_miss 1
Core_0_LLC_writeback_MPKI 1e-05
Core_0_LLC_writeback_miss_rate 1
Core_0_LLC_prefetch_requested 0
Core_0_LLC_prefetch_issued 0
Core_0_LLC_prefetch_useful 0
Core_0_LLC_prefetch_useless 0
Core_0_LLC_prefetch_late 0
Core_0_LLC_prefetch_fill 952328
Core_0_LLC_prefetch_too_early 0
Core_0_LLC_prefetch_too_early_among_fill 0
Core_0_LLC_prefetch_too_early_among_useless 0
Core_0_LLC_prefetch_pollution_evict 12629
Core_0_LLC_prefetch_pollution_demand 12629
Core_0_LLC_prefetch_pollution_among_prefetch_fill 0.0132612
Core_0_LLC_prefetch_accuracy 0
Core_0_LLC_prefetch_coverage 0

[DRAM Statistics]
Channel_0_RQ_row_buffer_hit 517
Channel_0_RQ_row_buffer_miss 6769365
Channel_0_WQ_row_buffer_hit 0
Channel_0_WQ_row_buffer_miss 1
Channel_0_WQ_full 0
Channel_0_dbus_congested 2160539
DRAM_total_RQ_row_buffer_hit 517
DRAM_total_RQ_row_buffer_miss 6769365
DRAM_total_WQ_row_buffer_hit 0
DRAM_total_WQ_row_buffer_miss 1
DRAM_total_WQ_full 0
DRAM_total_dbus_congested 2160539
DRAM_avg_congested_cycle 2.89686

====== DRAM_RQ_TRAFFIC ========
DRAM_RQ_READ_TRAFFIC_BREAKDOWN:
data_demand_read.count = 4442225
data_demand_read.share = 65.62%

inst_demand_read.count = 0
inst_demand_read.share = 0.00%

cache_inst_prefetch.count = 0
cache_inst_prefetch.share = 0.00%

cache_data_prefetch.count = 952328
cache_data_prefetch.share = 14.07%

stlb_data_demand.count = 1373041
stlb_data_demand.share = 20.28%

stlb_inst_demand.count = 0
stlb_inst_demand.share = 0.00%

stlb_l1i_pref.count = 0
stlb_l1i_pref.share = 0.00%

stlb_l1d_pref.count = 2288
stlb_l1d_pref.share = 0.03%

DRAM_RQ_READ_TRAFFIC_SUMMARY:
cache_demand.count = 4442225
cache_demand.share = 65.62%

cache_prefetch.count = 952328
cache_prefetch.share = 14.07%

stlb_demand.count = 1373041
stlb_demand.share = 20.28%

stlb_prefetch.count = 2288
stlb_prefetch.share = 0.03%

DRAM_RQ_READ_TRAFFIC_DEBUG:
total_classified_read.count = 6769882
unclassified_read.count = 0
total_read_with_other.count = 6769882

classified_plus_unclassified_check.count = 6769882
dram_rq_read_total_observed.count = 6769882
dram_rq_read_total_observed.per_1K_instructions = 67.6988

STLB_MISS_PTW_DRAM_TOUCH_BREAKDOWN:
stlb_miss_total.count = 3890543

stlb_miss_touch_dram.count = 1374400
stlb_miss_touch_dram.share = 35.33%

stlb_miss_no_dram_touch.count = 2516143
stlb_miss_no_dram_touch.share = 64.67%

STLB_MISS_PTW_DRAM_TOUCH_DEBUG:
stlb_miss_touch_plus_no_touch.count = 3890543
stlb_miss_total_check.count = 3890543

======STLB miss causes ========
Core_0_STLB_miss_cause_breakdown
Core_0_STLB_cause_Demand_Data_miss 3874146
Core_0_STLB_cause_Demand_Data_miss_rate 0.975402
Core_0_STLB_cause_Demand_Instruction_miss 0
Core_0_STLB_cause_Demand_Instruction_miss_rate 0
Core_0_STLB_cause_L1D_Prefetch_miss 16397
Core_0_STLB_cause_L1D_Prefetch_miss_rate 0.00412831
Core_0_STLB_cause_L1D_Prefetch_Same_Page_miss 0
Core_0_STLB_cause_L1D_Prefetch_Same_Page_miss_rate 0
Core_0_STLB_cause_L1D_Prefetch_Cross_Page_miss 16397
Core_0_STLB_cause_L1D_Prefetch_Cross_Page_miss_rate 0.00412831
Core_0_STLB_cause_L1I_Prefetch_miss 0
Core_0_STLB_cause_L1I_Prefetch_miss_rate 0
Core_0_STLB_cause_Other_miss 0
Core_0_STLB_cause_Other_miss_rate 0
Core_0_STLB_Demand_miss 3874146
Core_0_STLB_Demand_miss_rate 0.975402
Core_0_STLB_L1D_Prefetch_miss 16397
Core_0_STLB_L1D_Prefetch_miss_rate 0.00412831
Core_0_STLB_Other_miss 0
Core_0_STLB_Other_miss_rate 0

========== vBerti-TLB Cross-page Flow Stats ==========

Core_0_vBerti_Requested 8546930
Core_0_vBerti_Cross_page_prefetch_in_Requested 932344
Core_0_vBerti_Same_page_prefetch_in_Requested 7614586
Core_0_vBerti_Cross_page_prefetch_of_Requested 0.109085
Core_0_vBerti_Issued 7578231
Core_0_vBerti_InPQ_Same_page_prefetch 6799258
Core_0_vBerti_InPQ_Cross_page_prefetch 778973
Core_0_vBerti_PQ_Drop_Rate 0.113339
Core_0_vBerti_InPQ_Cross_page_prefetch_of_Requested 0.0911407
Core_0_vBerti_Cross_page_PQ_Drop_rate 0.1645
Core_0_vBerti_Cross_page_prefetch_of_Issued 0.102791
Core_0_CP_PF_PQFULL_drop 153371
Core_0_CP_PF_PQFULL_TLB_rescue_enqueued 0
Core_0_CP_PF_PQFULL_TLB_rescue_issued 0
Core_0_CP_PF_PQFULL_TLB_rescue_translated 0

========= DTLB_vBerti Prefetch Stats =========
Core_0_DTLB_demand_access 14015047
Core_0_DTLB_demand_hit 8711159
Core_0_DTLB_demand_miss 5303888
Core_0_DTLB_demand_mshr_merge 1349161
Core_0_DTLB_demand_fill 3954735
Core_0_DTLB_demand_miss_rate 0.378442
Core_0_DTLB_demand_mpki 53.0389
Core_0_DTLB_vberti_prefetch_access 4760979
Core_0_DTLB_vberti_prefetch_hit 4740616
Core_0_DTLB_vberti_prefetch_miss 20363
Core_0_DTLB_vberti_prefetch_mshr_merge 3243
Core_0_DTLB_vberti_prefetch_fill 17120
Core_0_DTLB_vberti_prefetch_miss_rate 0.00427706
Core_0_DTLB_vberti_prefetch_mpki 0.20363

=== DTLB_vBerti Same/Cross-page Prefetch Stats ===
Core_0_DTLB_vberti_same_page_prefetch 4255752
Core_0_DTLB_vberti_same_page_prefetch_hit 4255752
Core_0_DTLB_vberti_same_page_prefetch_miss 0
Core_0_DTLB_vberti_same_page_prefetch_mshr_merge 0
Core_0_DTLB_vberti_same_page_prefetch_fill 0
Core_0_DTLB_vberti_same_page_prefetch_miss_rate 0
Core_0_DTLB_vberti_same_page_prefetch_mpki 0
Core_0_DTLB_vberti_cross_page_prefetch 505227
Core_0_DTLB_vberti_cross_page_prefetch_hit 484864
Core_0_DTLB_vberti_cross_page_prefetch_miss 20363
Core_0_DTLB_vberti_cross_page_prefetch_mshr_merge 3243
Core_0_DTLB_vberti_cross_page_prefetch_fill 17120
Core_0_DTLB_vberti_cross_page_prefetch_miss_rate 0.0403047
Core_0_DTLB_vberti_cross_page_prefetch_mpki 0.20363
Core_0_DTLB_same_page_prefetch_miss_rate 0
Core_0_DTLB_same_page_prefetch_mpki 0
Core_0_DTLB_cross_page_prefetch_miss_rate 0.0403047
Core_0_DTLB_cross_page_prefetch_mpki 0.20363
Core_0_DTLB_cross_page_prefetch_issued 505227
Core_0_DTLB_cross_page_prefetch_lookups 505227
Core_0_DTLB_cross_page_prefetch_useful 16358
Core_0_DTLB_cross_page_prefetch_useless 762
Core_0_DTLB_cross_page_prefetch_late 0
Core_0_DTLB_cross_page_prefetch_too_early 37
Core_0_DTLB_cross_page_prefetch_too_early_among_fill 0.00216121
Core_0_DTLB_cross_page_prefetch_too_early_among_useless 0.0485564
Core_0_DTLB_cross_page_prefetch_pollution_evict 1979
Core_0_DTLB_cross_page_prefetch_pollution_demand 1979
Core_0_DTLB_cross_page_prefetch_pollution_among_prefetch_fill 0.115596
Core_0_DTLB_cross_page_prefetch_accuracy 0.0323775
Core_0_DTLB_cross_page_prefetch_coverage 0.00307467

========= STLB_vBerti Prefetch Stats =========
Core_0_STLB_demand_access 3954727
Core_0_STLB_demand_hit 80581
Core_0_STLB_demand_miss 3874146
Core_0_STLB_demand_mshr_merge 0
Core_0_STLB_demand_fill 3874154
Core_0_STLB_demand_miss_rate 0.979624
Core_0_STLB_demand_mpki 38.7415
Core_0_STLB_vberti_prefetch_access 17120
Core_0_STLB_vberti_prefetch_hit 723
Core_0_STLB_vberti_prefetch_miss 16397
Core_0_STLB_vberti_prefetch_mshr_merge 0
Core_0_STLB_vberti_prefetch_fill 16397
Core_0_STLB_vberti_prefetch_miss_rate 0.957769
Core_0_STLB_vberti_prefetch_mpki 0.16397

=== STLB_vBerti Same/Cross-page Prefetch Stats ===
Core_0_STLB_vberti_same_page_prefetch 0
Core_0_STLB_vberti_same_page_prefetch_hit 0
Core_0_STLB_vberti_same_page_prefetch_miss 0
Core_0_STLB_vberti_same_page_prefetch_mshr_merge 0
Core_0_STLB_vberti_same_page_prefetch_fill 0
Core_0_STLB_vberti_same_page_prefetch_miss_rate 0
Core_0_STLB_vberti_same_page_prefetch_mpki 0
Core_0_STLB_vberti_cross_page_prefetch 17120
Core_0_STLB_vberti_cross_page_prefetch_hit 723
Core_0_STLB_vberti_cross_page_prefetch_miss 16397
Core_0_STLB_vberti_cross_page_prefetch_mshr_merge 0
Core_0_STLB_vberti_cross_page_prefetch_fill 16397
Core_0_STLB_vberti_cross_page_prefetch_miss_rate 0.957769
Core_0_STLB_vberti_cross_page_prefetch_mpki 0.16397
Core_0_STLB_same_page_prefetch_miss_rate 0
Core_0_STLB_same_page_prefetch_mpki 0
Core_0_STLB_cross_page_prefetch_miss_rate 0.957769
Core_0_STLB_cross_page_prefetch_mpki 0.16397
Core_0_STLB_cross_page_prefetch_issued 17120
Core_0_STLB_cross_page_prefetch_lookups 17120
Core_0_STLB_cross_page_prefetch_useful 352
Core_0_STLB_cross_page_prefetch_useless 16045
Core_0_STLB_cross_page_prefetch_late 0
Core_0_STLB_cross_page_prefetch_too_early 5148
Core_0_STLB_cross_page_prefetch_too_early_among_fill 0.31396
Core_0_STLB_cross_page_prefetch_too_early_among_useless 0.320848
Core_0_STLB_cross_page_prefetch_pollution_evict 10418
Core_0_STLB_cross_page_prefetch_pollution_demand 10415
Core_0_STLB_cross_page_prefetch_pollution_among_prefetch_fill 0.63536
Core_0_STLB_cross_page_prefetch_accuracy 0.0205607
Core_0_STLB_cross_page_prefetch_coverage 9.08505e-05

========= STLB Cross-page Prefetch Buffer Stats =========
Core_0_STLB_raw_demand_miss 3874146
Core_0_CP_PB_insert 0
Core_0_CP_PB_demand_hit 0
Core_0_STLB_PB_demand_miss 3874146
Core_0_CP_PB_coverage 0
Core_0_STLB_raw_demand_mpki 38.7415
Core_0_STLB_PB_demand_mpki 38.7415
Core_0_CP_PB_demand_hit_mpki 0

Core_0_TLB_demand_miss_rate 0.276428
Core_0_TLB_demand_mpki 38.7415
Core_0_TLB_same_page_prefetch_miss_rate 0
Core_0_TLB_same_page_prefetch_mpki 0
Core_0_TLB_cross_page_prefetch_miss_rate 0.0324547
Core_0_TLB_cross_page_prefetch_mpki 0.16397
Core_0_TLB_cross_page_prefetch_issued 505227
Core_0_TLB_cross_page_prefetch_lookups 505227
Core_0_TLB_cross_page_prefetch_useful 16334
Core_0_TLB_cross_page_prefetch_useless 786
Core_0_TLB_cross_page_prefetch_late 0
Core_0_TLB_cross_page_prefetch_too_early 37
Core_0_TLB_cross_page_prefetch_too_early_among_fill 0.00110392
Core_0_TLB_cross_page_prefetch_too_early_among_useless 0.0470738
Core_0_TLB_cross_page_prefetch_accuracy 0.03233
Core_0_TLB_cross_page_prefetch_coverage 0.00419845
====== vBerti internal metric ========
Core_0_vBerti_end_to_end_issued 6799258
Core_0_vBerti_end_to_end_useful 225852
Core_0_vBerti_end_to_end_late 434
Core_0_vBerti_end_to_end_accuracy 0.0332172
Core_0_vBerti_end_to_end_timely_accuracy 0.0331533
BERTI TO_L1: 2649387 TO_L2: 4965199 TO_L2_BC_MSHR: 0
BERTI AVG_LAT: 189.76 NUM_TRACK_LATENCY: 5242804 NUM_CANT_TRACK_LATENCY: 0
BERTI CROSS_PAGE 932344 NO_CROSS_PAGE: 7614586
BERTI FOUND_BERTI: 13357254 NO_FOUND_BERTI: 663503
BERTI AVERAGE_ISSUED: 4.23794
