[VMEM] WARNING: physical memory size is smaller than virtual memory size.

*** ChampSim Multicore Out-of-Order Simulator ***
Warmup Instructions: 50000000
Simulation Instructions: 100000000
Number of CPUs: 1
Page size: 4096
Core 0: /data2/zcq/champsim_traces_xsbench/xs.XXL64nuclide-531B.champsimtrace.xz
VBerti Prefetcher
BERTI HASH ENTANGLING
BERTI IP MASK ffff
Off-chip DRAM Size: 16 GiB Channels: 1 Width: 64-bit Data Rate: 3205 MT/s
Warmup halting CPU 0 at instruction 50000002 cycle 36974525 for remainder of phase
Warmup finished CPU 0 instructions: 50000002 cycles: 36974525 cumulative IPC: 1.352 (Simulation time: 00 hr 06 min 51 sec)
Warmup complete CPU 0 instructions: 50000002 cycles: 36974525 cumulative IPC: 1.352 (Simulation time: 00 hr 06 min 51 sec)
Simulation finished CPU 0 instructions: 100000005 cycles: 692291823 cumulative IPC: 0.1444 (Simulation time: 00 hr 49 min 56 sec)
Simulation complete CPU 0 instructions: 100000005 cycles: 692291823 cumulative IPC: 0.1444 (Simulation time: 00 hr 49 min 56 sec)

ChampSim completed all CPUs

=== Simulation ===
CPU 0 runs /data2/zcq/champsim_traces_xsbench/xs.XXL64nuclide-531B.champsimtrace.xz

Region of Interest Statistics

CPU 0 cumulative IPC: 0.1444 instructions: 100000005 cycles: 692291823
CPU 0 Branch Prediction Accuracy: 87.24% MPKI: 21.5 Average ROB Occupancy at Mispredict: 25.74
Branch type MPKI
BRANCH_DIRECT_JUMP: 0
BRANCH_INDIRECT: 0
BRANCH_CONDITIONAL: 21.5
BRANCH_DIRECT_CALL: 0
BRANCH_INDIRECT_CALL: 0
BRANCH_RETURN: 0

cpu0->cpu0_STLB TOTAL        ACCESS:    3995940 HIT:     137632 MISS:    3858308 MSHR_MERGE:          0
cpu0->cpu0_STLB LOAD         ACCESS:    3995940 HIT:     137632 MISS:    3858308 MSHR_MERGE:          0
cpu0->cpu0_STLB RFO          ACCESS:          0 HIT:          0 MISS:          0 MSHR_MERGE:          0
cpu0->cpu0_STLB PREFETCH     ACCESS:          0 HIT:          0 MISS:          0 MSHR_MERGE:          0
cpu0->cpu0_STLB WRITE        ACCESS:          0 HIT:          0 MISS:          0 MSHR_MERGE:          0
cpu0->cpu0_STLB TRANSLATION  ACCESS:          0 HIT:          0 MISS:          0 MSHR_MERGE:          0
cpu0->cpu0_STLB PREFETCH REQUESTED:          0 ISSUED:          0 USEFUL:          0 USELESS:          0 LATE:          0 TOO_EARLY:          0
cpu0->cpu0_STLB AVERAGE MISS LATENCY: 174.7 cycles
cpu0->cpu0_L2C TOTAL        ACCESS:   10542509 HIT:    1421091 MISS:    9121418 MSHR_MERGE:       9184
cpu0->cpu0_L2C LOAD         ACCESS:    5976468 HIT:     203260 MISS:    5773208 MSHR_MERGE:          0
cpu0->cpu0_L2C RFO          ACCESS:      13398 HIT:      12202 MISS:       1196 MSHR_MERGE:          6
cpu0->cpu0_L2C PREFETCH     ACCESS:    1210088 HIT:     986015 MISS:     224073 MSHR_MERGE:       9178
cpu0->cpu0_L2C WRITE        ACCESS:      19359 HIT:      19258 MISS:        101 MSHR_MERGE:          0
cpu0->cpu0_L2C TRANSLATION  ACCESS:    3323196 HIT:     200356 MISS:    3122840 MSHR_MERGE:          0
cpu0->cpu0_L2C PREFETCH REQUESTED:     336784 ISSUED:     336784 USEFUL:      13758 USELESS:     136235 LATE:          0 TOO_EARLY:         81
cpu0->cpu0_L2C AVERAGE MISS LATENCY: 149.8 cycles
cpu0->cpu0_L1I TOTAL        ACCESS:      21138 HIT:      21138 MISS:          0 MSHR_MERGE:          0
cpu0->cpu0_L1I LOAD         ACCESS:      21138 HIT:      21138 MISS:          0 MSHR_MERGE:          0
cpu0->cpu0_L1I RFO          ACCESS:          0 HIT:          0 MISS:          0 MSHR_MERGE:          0
cpu0->cpu0_L1I PREFETCH     ACCESS:          0 HIT:          0 MISS:          0 MSHR_MERGE:          0
cpu0->cpu0_L1I WRITE        ACCESS:          0 HIT:          0 MISS:          0 MSHR_MERGE:          0
cpu0->cpu0_L1I TRANSLATION  ACCESS:          0 HIT:          0 MISS:          0 MSHR_MERGE:          0
cpu0->cpu0_L1I PREFETCH REQUESTED:          0 ISSUED:          0 USEFUL:          0 USELESS:          0 LATE:          0 TOO_EARLY:          0
cpu0->cpu0_L1I AVERAGE MISS LATENCY: - cycles
cpu0->cpu0_L1D TOTAL        ACCESS:   21726984 HIT:    9616768 MISS:   12110216 MSHR_MERGE:    1923801
cpu0->cpu0_L1D LOAD         ACCESS:    9559514 HIT:    3481778 MISS:    6077736 MSHR_MERGE:     101268
cpu0->cpu0_L1D RFO          ACCESS:          0 HIT:          0 MISS:          0 MSHR_MERGE:          0
cpu0->cpu0_L1D PREFETCH     ACCESS:    1900462 HIT:    1025485 MISS:     874977 MSHR_MERGE:       1673
cpu0->cpu0_L1D WRITE        ACCESS:    1810173 HIT:    1755358 MISS:      54815 MSHR_MERGE:      41366
cpu0->cpu0_L1D TRANSLATION  ACCESS:    8456835 HIT:    3354147 MISS:    5102688 MSHR_MERGE:    1779494
cpu0->cpu0_L1D PREFETCH REQUESTED:    2438853 ISSUED:    2130680 USEFUL:      35842 USELESS:      37991 LATE:        149 TOO_EARLY:       1033
cpu0->cpu0_L1D AVERAGE MISS LATENCY: 152.2 cycles
cpu0->cpu0_ITLB TOTAL        ACCESS:      17143 HIT:      17143 MISS:          0 MSHR_MERGE:          0
cpu0->cpu0_ITLB LOAD         ACCESS:      17143 HIT:      17143 MISS:          0 MSHR_MERGE:          0
cpu0->cpu0_ITLB RFO          ACCESS:          0 HIT:          0 MISS:          0 MSHR_MERGE:          0
cpu0->cpu0_ITLB PREFETCH     ACCESS:          0 HIT:          0 MISS:          0 MSHR_MERGE:          0
cpu0->cpu0_ITLB WRITE        ACCESS:          0 HIT:          0 MISS:          0 MSHR_MERGE:          0
cpu0->cpu0_ITLB TRANSLATION  ACCESS:          0 HIT:          0 MISS:          0 MSHR_MERGE:          0
cpu0->cpu0_ITLB PREFETCH REQUESTED:          0 ISSUED:          0 USEFUL:          0 USELESS:          0 LATE:          0 TOO_EARLY:          0
cpu0->cpu0_ITLB AVERAGE MISS LATENCY: - cycles
cpu0->cpu0_DTLB TOTAL        ACCESS:   12810578 HIT:    8602831 MISS:    4207747 MSHR_MERGE:     211807
cpu0->cpu0_DTLB LOAD         ACCESS:   12810578 HIT:    8602831 MISS:    4207747 MSHR_MERGE:     211807
cpu0->cpu0_DTLB RFO          ACCESS:          0 HIT:          0 MISS:          0 MSHR_MERGE:          0
cpu0->cpu0_DTLB PREFETCH     ACCESS:          0 HIT:          0 MISS:          0 MSHR_MERGE:          0
cpu0->cpu0_DTLB WRITE        ACCESS:          0 HIT:          0 MISS:          0 MSHR_MERGE:          0
cpu0->cpu0_DTLB TRANSLATION  ACCESS:          0 HIT:          0 MISS:          0 MSHR_MERGE:          0
cpu0->cpu0_DTLB PREFETCH REQUESTED:          0 ISSUED:          0 USEFUL:          0 USELESS:          0 LATE:          0 TOO_EARLY:          0
cpu0->cpu0_DTLB AVERAGE MISS LATENCY: 174.6 cycles
cpu0->LLC TOTAL        ACCESS:    9116346 HIT:    3059853 MISS:    6056493 MSHR_MERGE:          0
cpu0->LLC LOAD         ACCESS:    5773208 HIT:    1331361 MISS:    4441847 MSHR_MERGE:          0
cpu0->LLC RFO          ACCESS:       1190 HIT:       1189 MISS:          1 MSHR_MERGE:          0
cpu0->LLC PREFETCH     ACCESS:     214895 HIT:      79523 MISS:     135372 MSHR_MERGE:          0
cpu0->LLC WRITE        ACCESS:       4213 HIT:       4202 MISS:         11 MSHR_MERGE:          0
cpu0->LLC TRANSLATION  ACCESS:    3122840 HIT:    1643578 MISS:    1479262 MSHR_MERGE:          0
cpu0->LLC PREFETCH REQUESTED:          0 ISSUED:          0 USEFUL:          0 USELESS:          0 LATE:          0 TOO_EARLY:          0
cpu0->LLC AVERAGE MISS LATENCY: 201.6 cycles

DRAM Statistics

Channel 0 RQ ROW_BUFFER_HIT:      30669
  ROW_BUFFER_MISS:    6025814
  AVG DBUS CONGESTED CYCLE: 2.932
Channel 0 WQ ROW_BUFFER_HIT:          2
  ROW_BUFFER_MISS:          8
  FULL:          0
Channel 0 REFRESHES ISSUED:      57691

[ROI Statistics]
[System Configuration]
num_cpus 1
cpu_freq 4000
fetch_width 6
decode_width 6
dispatch_width 6
execute_width 6
lq_width 2
sq_width 2
retire_width 6
scheduler_size 128
branch_mispredict_penalty 15
rob_size 352
lq_size 128
sq_size 72
ifetch_buffer_size 64
decode_buffer_size 32
dispatch_buffer_size 32
register_file_size 288
decode_latency 1
dispatch_latency 1
schedule_latency 1
execute_latency 1
page_size 4096
block_size 64
core_0_itlb_set 16
core_0_itlb_way 4
core_0_itlb_rq_size 16
core_0_itlb_wq_size 16
core_0_itlb_pq_size 0
core_0_itlb_mshr_size 8
core_0_itlb_hit_latency 1
core_0_itlb_fill_latency 1
core_0_itlb_max_tag_check 2
core_0_itlb_max_fill 2
core_0_dtlb_set 16
core_0_dtlb_way 4
core_0_dtlb_rq_size 16
core_0_dtlb_wq_size 16
core_0_dtlb_pq_size 0
core_0_dtlb_mshr_size 8
core_0_dtlb_hit_latency 1
core_0_dtlb_fill_latency 1
core_0_dtlb_max_tag_check 2
core_0_dtlb_max_fill 2
core_0_stlb_set 128
core_0_stlb_way 12
core_0_stlb_rq_size 32
core_0_stlb_wq_size 32
core_0_stlb_pq_size 0
core_0_stlb_mshr_size 16
core_0_stlb_hit_latency 4
core_0_stlb_fill_latency 4
core_0_stlb_max_tag_check 1
core_0_stlb_max_fill 1
core_0_l1i_set 64
core_0_l1i_way 8
core_0_l1i_rq_size 64
core_0_l1i_wq_size 64
core_0_l1i_pq_size 32
core_0_l1i_mshr_size 8
core_0_l1i_hit_latency 2
core_0_l1i_fill_latency 2
core_0_l1i_max_tag_check 2
core_0_l1i_max_fill 2
core_0_l1d_set 64
core_0_l1d_way 12
core_0_l1d_rq_size 64
core_0_l1d_wq_size 64
core_0_l1d_pq_size 8
core_0_l1d_mshr_size 16
core_0_l1d_hit_latency 2
core_0_l1d_fill_latency 3
core_0_l1d_max_tag_check 2
core_0_l1d_max_fill 2
core_0_l2c_set 1024
core_0_l2c_way 8
core_0_l2c_rq_size 32
core_0_l2c_wq_size 32
core_0_l2c_pq_size 16
core_0_l2c_mshr_size 32
core_0_l2c_hit_latency 5
core_0_l2c_fill_latency 5
core_0_l2c_max_tag_check 1
core_0_l2c_max_fill 1
llc_set 2048
llc_way 16
llc_rq_size 32
llc_wq_size 32
llc_pq_size 32
llc_mshr_size 64
llc_hit_latency 10
llc_fill_latency 10
llc_max_tag_check 1
llc_max_fill 1
dram_channels 1
dram_ranks 1
dram_bankgroups 8
dram_banks 4
dram_rows 65536
dram_columns 1024
dram_channel_width 8
dram_rq_size 64
dram_wq_size 64
dram_size 17179869184
core_0_itlb_prefetcher no
core_0_dtlb_prefetcher no
core_0_stlb_prefetcher no
core_0_l1i_prefetcher next_line
core_0_l1d_prefetcher vberti
core_0_l2c_prefetcher ip_stride
llc_prefetcher no
llc_replacement drrip

Core_0_instructions 100000005
Core_0_cycles 692291823
Core_0_IPC 0.144448
Core_0_branch_prediction_accuracy 87.2432
Core_0_branch_MPKI 21.4968
Core_0_average_ROB_occupancy_at_mispredict 25.7357

Core_0_ITLB_total_access 17143
Core_0_ITLB_total_hit 17143
Core_0_ITLB_total_miss 0
Core_0_ITLB_total_MPKI 0
Core_0_ITLB_total_miss_rate 0
Core_0_ITLB_demand_access 17143
Core_0_ITLB_demand_hit 17143
Core_0_ITLB_demand_miss 0
Core_0_ITLB_demand_MPKI 0
Core_0_ITLB_demand_miss_rate 0
Core_0_ITLB_load_access 17143
Core_0_ITLB_load_hit 17143
Core_0_ITLB_load_miss 0
Core_0_ITLB_load_MPKI 0
Core_0_ITLB_load_miss_rate 0
Core_0_ITLB_rfo_access 0
Core_0_ITLB_rfo_hit 0
Core_0_ITLB_rfo_miss 0
Core_0_ITLB_rfo_MPKI 0
Core_0_ITLB_rfo_miss_rate 0
Core_0_ITLB_prefetch_access 0
Core_0_ITLB_prefetch_hit 0
Core_0_ITLB_prefetch_miss 0
Core_0_ITLB_prefetch_MPKI 0
Core_0_ITLB_prefetch_miss_rate 0
Core_0_ITLB_writeback_access 0
Core_0_ITLB_writeback_hit 0
Core_0_ITLB_writeback_miss 0
Core_0_ITLB_writeback_MPKI 0
Core_0_ITLB_writeback_miss_rate 0
Core_0_ITLB_prefetch_requested 0
Core_0_ITLB_prefetch_issued 0
Core_0_ITLB_prefetch_useful 0
Core_0_ITLB_prefetch_useless 0
Core_0_ITLB_prefetch_late 0
Core_0_ITLB_prefetch_fill 0
Core_0_ITLB_prefetch_too_early 0
Core_0_ITLB_prefetch_too_early_among_fill 0
Core_0_ITLB_prefetch_too_early_among_useless 0
Core_0_ITLB_prefetch_pollution_evict 0
Core_0_ITLB_prefetch_pollution_demand 0
Core_0_ITLB_prefetch_pollution_among_prefetch_fill 0
Core_0_ITLB_prefetch_accuracy 0
Core_0_ITLB_prefetch_coverage 0

Core_0_DTLB_total_access 12810578
Core_0_DTLB_total_hit 8602831
Core_0_DTLB_total_miss 4207747
Core_0_DTLB_total_MPKI 42.0775
Core_0_DTLB_total_miss_rate 0.328459
Core_0_DTLB_demand_access 12810578
Core_0_DTLB_demand_hit 8602831
Core_0_DTLB_demand_miss 4207747
Core_0_DTLB_demand_MPKI 42.0775
Core_0_DTLB_demand_miss_rate 0.328459
Core_0_DTLB_load_access 12810578
Core_0_DTLB_load_hit 8602831
Core_0_DTLB_load_miss 4207747
Core_0_DTLB_load_MPKI 42.0775
Core_0_DTLB_load_miss_rate 0.328459
Core_0_DTLB_rfo_access 0
Core_0_DTLB_rfo_hit 0
Core_0_DTLB_rfo_miss 0
Core_0_DTLB_rfo_MPKI 0
Core_0_DTLB_rfo_miss_rate 0
Core_0_DTLB_prefetch_access 0
Core_0_DTLB_prefetch_hit 0
Core_0_DTLB_prefetch_miss 0
Core_0_DTLB_prefetch_MPKI 0
Core_0_DTLB_prefetch_miss_rate 0
Core_0_DTLB_writeback_access 0
Core_0_DTLB_writeback_hit 0
Core_0_DTLB_writeback_miss 0
Core_0_DTLB_writeback_MPKI 0
Core_0_DTLB_writeback_miss_rate 0
Core_0_DTLB_prefetch_requested 0
Core_0_DTLB_prefetch_issued 0
Core_0_DTLB_prefetch_useful 0
Core_0_DTLB_prefetch_useless 0
Core_0_DTLB_prefetch_late 0
Core_0_DTLB_prefetch_fill 0
Core_0_DTLB_prefetch_too_early 0
Core_0_DTLB_prefetch_too_early_among_fill 0
Core_0_DTLB_prefetch_too_early_among_useless 0
Core_0_DTLB_prefetch_pollution_evict 0
Core_0_DTLB_prefetch_pollution_demand 0
Core_0_DTLB_prefetch_pollution_among_prefetch_fill 0
Core_0_DTLB_prefetch_accuracy 0
Core_0_DTLB_prefetch_coverage 0

Core_0_STLB_total_access 3995940
Core_0_STLB_total_hit 137632
Core_0_STLB_total_miss 3858308
Core_0_STLB_total_MPKI 38.5831
Core_0_STLB_total_miss_rate 0.965557
Core_0_STLB_demand_access 3995940
Core_0_STLB_demand_hit 137632
Core_0_STLB_demand_miss 3858308
Core_0_STLB_demand_MPKI 38.5831
Core_0_STLB_demand_miss_rate 0.965557
Core_0_STLB_load_access 3995940
Core_0_STLB_load_hit 137632
Core_0_STLB_load_miss 3858308
Core_0_STLB_load_MPKI 38.5831
Core_0_STLB_load_miss_rate 0.965557
Core_0_STLB_rfo_access 0
Core_0_STLB_rfo_hit 0
Core_0_STLB_rfo_miss 0
Core_0_STLB_rfo_MPKI 0
Core_0_STLB_rfo_miss_rate 0
Core_0_STLB_prefetch_access 0
Core_0_STLB_prefetch_hit 0
Core_0_STLB_prefetch_miss 0
Core_0_STLB_prefetch_MPKI 0
Core_0_STLB_prefetch_miss_rate 0
Core_0_STLB_writeback_access 0
Core_0_STLB_writeback_hit 0
Core_0_STLB_writeback_miss 0
Core_0_STLB_writeback_MPKI 0
Core_0_STLB_writeback_miss_rate 0
Core_0_STLB_prefetch_requested 0
Core_0_STLB_prefetch_issued 0
Core_0_STLB_prefetch_useful 0
Core_0_STLB_prefetch_useless 0
Core_0_STLB_prefetch_late 0
Core_0_STLB_prefetch_fill 0
Core_0_STLB_prefetch_too_early 0
Core_0_STLB_prefetch_too_early_among_fill 0
Core_0_STLB_prefetch_too_early_among_useless 0
Core_0_STLB_prefetch_pollution_evict 0
Core_0_STLB_prefetch_pollution_demand 0
Core_0_STLB_prefetch_pollution_among_prefetch_fill 0
Core_0_STLB_prefetch_accuracy 0
Core_0_STLB_prefetch_coverage 0

Core_0_L1I_total_access 21138
Core_0_L1I_total_hit 21138
Core_0_L1I_total_miss 0
Core_0_L1I_total_MPKI 0
Core_0_L1I_total_miss_rate 0
Core_0_L1I_demand_access 21138
Core_0_L1I_demand_hit 21138
Core_0_L1I_demand_miss 0
Core_0_L1I_demand_MPKI 0
Core_0_L1I_demand_miss_rate 0
Core_0_L1I_load_access 21138
Core_0_L1I_load_hit 21138
Core_0_L1I_load_miss 0
Core_0_L1I_load_MPKI 0
Core_0_L1I_load_miss_rate 0
Core_0_L1I_rfo_access 0
Core_0_L1I_rfo_hit 0
Core_0_L1I_rfo_miss 0
Core_0_L1I_rfo_MPKI 0
Core_0_L1I_rfo_miss_rate 0
Core_0_L1I_prefetch_access 0
Core_0_L1I_prefetch_hit 0
Core_0_L1I_prefetch_miss 0
Core_0_L1I_prefetch_MPKI 0
Core_0_L1I_prefetch_miss_rate 0
Core_0_L1I_writeback_access 0
Core_0_L1I_writeback_hit 0
Core_0_L1I_writeback_miss 0
Core_0_L1I_writeback_MPKI 0
Core_0_L1I_writeback_miss_rate 0
Core_0_L1I_prefetch_requested 0
Core_0_L1I_prefetch_issued 0
Core_0_L1I_prefetch_useful 0
Core_0_L1I_prefetch_useless 0
Core_0_L1I_prefetch_late 0
Core_0_L1I_prefetch_fill 0
Core_0_L1I_prefetch_too_early 0
Core_0_L1I_prefetch_too_early_among_fill 0
Core_0_L1I_prefetch_too_early_among_useless 0
Core_0_L1I_prefetch_pollution_evict 0
Core_0_L1I_prefetch_pollution_demand 0
Core_0_L1I_prefetch_pollution_among_prefetch_fill 0
Core_0_L1I_prefetch_accuracy 0
Core_0_L1I_prefetch_coverage 0

Core_0_L1D_total_access 13270149
Core_0_L1D_total_hit 6262621
Core_0_L1D_total_miss 7007528
Core_0_L1D_total_MPKI 70.0753
Core_0_L1D_total_miss_rate 0.528067
Core_0_L1D_demand_access 9559514
Core_0_L1D_demand_hit 3481778
Core_0_L1D_demand_miss 6077736
Core_0_L1D_demand_MPKI 60.7774
Core_0_L1D_demand_miss_rate 0.635779
Core_0_L1D_load_access 9559514
Core_0_L1D_load_hit 3481778
Core_0_L1D_load_miss 6077736
Core_0_L1D_load_MPKI 60.7774
Core_0_L1D_load_miss_rate 0.635779
Core_0_L1D_rfo_access 0
Core_0_L1D_rfo_hit 0
Core_0_L1D_rfo_miss 0
Core_0_L1D_rfo_MPKI 0
Core_0_L1D_rfo_miss_rate 0
Core_0_L1D_prefetch_access 1900462
Core_0_L1D_prefetch_hit 1025485
Core_0_L1D_prefetch_miss 874977
Core_0_L1D_prefetch_MPKI 8.74977
Core_0_L1D_prefetch_miss_rate 0.460402
Core_0_L1D_writeback_access 1810173
Core_0_L1D_writeback_hit 1755358
Core_0_L1D_writeback_miss 54815
Core_0_L1D_writeback_MPKI 0.54815
Core_0_L1D_writeback_miss_rate 0.0302816
Core_0_L1D_prefetch_requested 2438853
Core_0_L1D_prefetch_issued 2130680
Core_0_L1D_prefetch_useful 35842
Core_0_L1D_prefetch_useless 37991
Core_0_L1D_prefetch_late 149
Core_0_L1D_prefetch_fill 73686
Core_0_L1D_prefetch_too_early 1033
Core_0_L1D_prefetch_too_early_among_fill 0.0140189
Core_0_L1D_prefetch_too_early_among_useless 0.0271907
Core_0_L1D_prefetch_pollution_evict 11784
Core_0_L1D_prefetch_pollution_demand 11780
Core_0_L1D_cross_page_pf_translation_only_requested 302434
Core_0_L1D_cross_page_pf_translation_only_issued 230219
Core_0_L1D_cross_page_pf_translation_only_dropped 230220
Core_0_L1D_prefetch_pollution_among_prefetch_fill 0.159922
Core_0_L1D_prefetch_accuracy 0.0168219
Core_0_L1D_prefetch_coverage 0.00586269

Core_0_L2C_total_access 7219313
Core_0_L2C_total_hit 1220735
Core_0_L2C_total_miss 5998578
Core_0_L2C_total_MPKI 59.9858
Core_0_L2C_total_miss_rate 0.830907
Core_0_L2C_demand_access 5989866
Core_0_L2C_demand_hit 215462
Core_0_L2C_demand_miss 5774404
Core_0_L2C_demand_MPKI 57.744
Core_0_L2C_demand_miss_rate 0.964029
Core_0_L2C_load_access 5976468
Core_0_L2C_load_hit 203260
Core_0_L2C_load_miss 5773208
Core_0_L2C_load_MPKI 57.7321
Core_0_L2C_load_miss_rate 0.96599
Core_0_L2C_rfo_access 13398
Core_0_L2C_rfo_hit 12202
Core_0_L2C_rfo_miss 1196
Core_0_L2C_rfo_MPKI 0.01196
Core_0_L2C_rfo_miss_rate 0.0892671
Core_0_L2C_prefetch_access 1210088
Core_0_L2C_prefetch_hit 986015
Core_0_L2C_prefetch_miss 224073
Core_0_L2C_prefetch_MPKI 2.24073
Core_0_L2C_prefetch_miss_rate 0.185171
Core_0_L2C_writeback_access 19359
Core_0_L2C_writeback_hit 19258
Core_0_L2C_writeback_miss 101
Core_0_L2C_writeback_MPKI 0.00101
Core_0_L2C_writeback_miss_rate 0.00521721
Core_0_L2C_prefetch_requested 336784
Core_0_L2C_prefetch_issued 336784
Core_0_L2C_prefetch_useful 13758
Core_0_L2C_prefetch_useless 136235
Core_0_L2C_prefetch_late 0
Core_0_L2C_prefetch_fill 214889
Core_0_L2C_prefetch_too_early 81
Core_0_L2C_prefetch_too_early_among_fill 0.000376939
Core_0_L2C_prefetch_too_early_among_useless 0.000594561
Core_0_L2C_prefetch_pollution_evict 43671
Core_0_L2C_prefetch_pollution_demand 43670
Core_0_L2C_prefetch_pollution_among_prefetch_fill 0.203226
Core_0_L2C_prefetch_accuracy 0.0408511
Core_0_L2C_prefetch_coverage 0.00237692

Core_0_LLC_total_access 5993506
Core_0_LLC_total_hit 1416275
Core_0_LLC_total_miss 4577231
Core_0_LLC_total_MPKI 45.7723
Core_0_LLC_total_miss_rate 0.763698
Core_0_LLC_demand_access 5774398
Core_0_LLC_demand_hit 1332550
Core_0_LLC_demand_miss 4441848
Core_0_LLC_demand_MPKI 44.4185
Core_0_LLC_demand_miss_rate 0.769231
Core_0_LLC_load_access 5773208
Core_0_LLC_load_hit 1331361
Core_0_LLC_load_miss 4441847
Core_0_LLC_load_MPKI 44.4185
Core_0_LLC_load_miss_rate 0.76939
Core_0_LLC_rfo_access 1190
Core_0_LLC_rfo_hit 1189
Core_0_LLC_rfo_miss 1
Core_0_LLC_rfo_MPKI 1e-05
Core_0_LLC_rfo_miss_rate 0.000840336
Core_0_LLC_prefetch_access 214895
Core_0_LLC_prefetch_hit 79523
Core_0_LLC_prefetch_miss 135372
Core_0_LLC_prefetch_MPKI 1.35372
Core_0_LLC_prefetch_miss_rate 0.629945
Core_0_LLC_writeback_access 4213
Core_0_LLC_writeback_hit 4202
Core_0_LLC_writeback_miss 11
Core_0_LLC_writeback_MPKI 0.00011
Core_0_LLC_writeback_miss_rate 0.00261097
Core_0_LLC_prefetch_requested 0
Core_0_LLC_prefetch_issued 0
Core_0_LLC_prefetch_useful 0
Core_0_LLC_prefetch_useless 0
Core_0_LLC_prefetch_late 0
Core_0_LLC_prefetch_fill 135372
Core_0_LLC_prefetch_too_early 0
Core_0_LLC_prefetch_too_early_among_fill 0
Core_0_LLC_prefetch_too_early_among_useless 0
Core_0_LLC_prefetch_pollution_evict 29447
Core_0_LLC_prefetch_pollution_demand 29447
Core_0_LLC_prefetch_pollution_among_prefetch_fill 0.217527
Core_0_LLC_prefetch_accuracy 0
Core_0_LLC_prefetch_coverage 0

[DRAM Statistics]
Channel_0_RQ_row_buffer_hit 30669
Channel_0_RQ_row_buffer_miss 6025814
Channel_0_WQ_row_buffer_hit 2
Channel_0_WQ_row_buffer_miss 8
Channel_0_WQ_full 0
Channel_0_dbus_congested 6325214
DRAM_total_RQ_row_buffer_hit 30669
DRAM_total_RQ_row_buffer_miss 6025814
DRAM_total_WQ_row_buffer_hit 2
DRAM_total_WQ_row_buffer_miss 8
DRAM_total_WQ_full 0
DRAM_total_dbus_congested 6325214
DRAM_avg_congested_cycle 2.93195

====== DRAM_RQ_TRAFFIC ========
DRAM_RQ_READ_TRAFFIC_BREAKDOWN:
data_demand_read.count = 4441848
data_demand_read.share = 73.34%

inst_demand_read.count = 0
inst_demand_read.share = 0.00%

cache_inst_prefetch.count = 0
cache_inst_prefetch.share = 0.00%

cache_data_prefetch.count = 135372
cache_data_prefetch.share = 2.24%

stlb_data_demand.count = 1479263
stlb_data_demand.share = 24.42%

stlb_inst_demand.count = 0
stlb_inst_demand.share = 0.00%

stlb_l1i_pref.count = 0
stlb_l1i_pref.share = 0.00%

stlb_l1d_pref.count = 0
stlb_l1d_pref.share = 0.00%

DRAM_RQ_READ_TRAFFIC_SUMMARY:
cache_demand.count = 4441848
cache_demand.share = 73.34%

cache_prefetch.count = 135372
cache_prefetch.share = 2.24%

stlb_demand.count = 1479263
stlb_demand.share = 24.42%

stlb_prefetch.count = 0
stlb_prefetch.share = 0.00%

DRAM_RQ_READ_TRAFFIC_DEBUG:
total_classified_read.count = 6056483
unclassified_read.count = 0
total_read_with_other.count = 6056483

classified_plus_unclassified_check.count = 6056483
dram_rq_read_total_observed.count = 6056483
dram_rq_read_total_observed.per_1K_instructions = 60.5648

STLB_MISS_PTW_DRAM_TOUCH_BREAKDOWN:
stlb_miss_total.count = 3858308

stlb_miss_touch_dram.count = 1481099
stlb_miss_touch_dram.share = 38.39%

stlb_miss_no_dram_touch.count = 2377209
stlb_miss_no_dram_touch.share = 61.61%

STLB_MISS_PTW_DRAM_TOUCH_DEBUG:
stlb_miss_touch_plus_no_touch.count = 3858308
stlb_miss_total_check.count = 3858308

======STLB miss causes ========
Core_0_STLB_miss_cause_breakdown
Core_0_STLB_cause_Demand_Data_miss 3856787
Core_0_STLB_cause_Demand_Data_miss_rate 0.965176
Core_0_STLB_cause_Demand_Instruction_miss 0
Core_0_STLB_cause_Demand_Instruction_miss_rate 0
Core_0_STLB_cause_L1D_Prefetch_miss 1521
Core_0_STLB_cause_L1D_Prefetch_miss_rate 0.000380636
Core_0_STLB_cause_L1D_Prefetch_Same_Page_miss 0
Core_0_STLB_cause_L1D_Prefetch_Same_Page_miss_rate 0
Core_0_STLB_cause_L1D_Prefetch_Cross_Page_miss 1521
Core_0_STLB_cause_L1D_Prefetch_Cross_Page_miss_rate 0.000380636
Core_0_STLB_cause_L1I_Prefetch_miss 0
Core_0_STLB_cause_L1I_Prefetch_miss_rate 0
Core_0_STLB_cause_Other_miss 0
Core_0_STLB_cause_Other_miss_rate 0
Core_0_STLB_Demand_miss 3856787
Core_0_STLB_Demand_miss_rate 0.965176
Core_0_STLB_L1D_Prefetch_miss 1521
Core_0_STLB_L1D_Prefetch_miss_rate 0.000380636
Core_0_STLB_Other_miss 0
Core_0_STLB_Other_miss_rate 0

========== vBerti-TLB Cross-page Flow Stats ==========

Core_0_vBerti_Requested 2438853
Core_0_vBerti_Cross_page_prefetch_in_Requested 302434
Core_0_vBerti_Same_page_prefetch_in_Requested 2136419
Core_0_vBerti_Cross_page_prefetch_of_Requested 0.124007
Core_0_vBerti_Issued 2130680
Core_0_vBerti_InPQ_Same_page_prefetch 1900461
Core_0_vBerti_InPQ_Cross_page_prefetch 230219
Core_0_vBerti_PQ_Drop_Rate 0.12636
Core_0_vBerti_InPQ_Cross_page_prefetch_of_Requested 0.0943964
Core_0_vBerti_Cross_page_PQ_Drop_rate 0.238779
Core_0_vBerti_Cross_page_prefetch_of_Issued 0.10805
Core_0_CP_PF_PQFULL_drop 72215
Core_0_CP_PF_PQFULL_TLB_rescue_enqueued 0
Core_0_CP_PF_PQFULL_TLB_rescue_issued 0
Core_0_CP_PF_PQFULL_TLB_rescue_translated 0

========= DTLB_vBerti Prefetch Stats =========
Core_0_DTLB_demand_access 11208931
Core_0_DTLB_demand_hit 7008075
Core_0_DTLB_demand_miss 4200856
Core_0_DTLB_demand_mshr_merge 209847
Core_0_DTLB_demand_fill 3991017
Core_0_DTLB_demand_miss_rate 0.374778
Core_0_DTLB_demand_mpki 42.0086
Core_0_DTLB_vberti_prefetch_access 1601647
Core_0_DTLB_vberti_prefetch_hit 1594756
Core_0_DTLB_vberti_prefetch_miss 6891
Core_0_DTLB_vberti_prefetch_mshr_merge 1960
Core_0_DTLB_vberti_prefetch_fill 4931
Core_0_DTLB_vberti_prefetch_miss_rate 0.00430245
Core_0_DTLB_vberti_prefetch_mpki 0.06891

=== DTLB_vBerti Same/Cross-page Prefetch Stats ===
Core_0_DTLB_vberti_same_page_prefetch 1429545
Core_0_DTLB_vberti_same_page_prefetch_hit 1429545
Core_0_DTLB_vberti_same_page_prefetch_miss 0
Core_0_DTLB_vberti_same_page_prefetch_mshr_merge 0
Core_0_DTLB_vberti_same_page_prefetch_fill 0
Core_0_DTLB_vberti_same_page_prefetch_miss_rate 0
Core_0_DTLB_vberti_same_page_prefetch_mpki 0
Core_0_DTLB_vberti_cross_page_prefetch 172102
Core_0_DTLB_vberti_cross_page_prefetch_hit 165211
Core_0_DTLB_vberti_cross_page_prefetch_miss 6891
Core_0_DTLB_vberti_cross_page_prefetch_mshr_merge 1960
Core_0_DTLB_vberti_cross_page_prefetch_fill 4931
Core_0_DTLB_vberti_cross_page_prefetch_miss_rate 0.0400402
Core_0_DTLB_vberti_cross_page_prefetch_mpki 0.06891
Core_0_DTLB_same_page_prefetch_miss_rate 0
Core_0_DTLB_same_page_prefetch_mpki 0
Core_0_DTLB_cross_page_prefetch_miss_rate 0.0400402
Core_0_DTLB_cross_page_prefetch_mpki 0.06891
Core_0_DTLB_cross_page_prefetch_issued 172102
Core_0_DTLB_cross_page_prefetch_lookups 172102
Core_0_DTLB_cross_page_prefetch_useful 872
Core_0_DTLB_cross_page_prefetch_useless 4059
Core_0_DTLB_cross_page_prefetch_late 0
Core_0_DTLB_cross_page_prefetch_too_early 364
Core_0_DTLB_cross_page_prefetch_too_early_among_fill 0.0738187
Core_0_DTLB_cross_page_prefetch_too_early_among_useless 0.0896773
Core_0_DTLB_cross_page_prefetch_pollution_evict 2724
Core_0_DTLB_cross_page_prefetch_pollution_demand 2724
Core_0_DTLB_cross_page_prefetch_pollution_among_prefetch_fill 0.552423
Core_0_DTLB_cross_page_prefetch_accuracy 0.00506676
Core_0_DTLB_cross_page_prefetch_coverage 0.000207534

========= STLB_vBerti Prefetch Stats =========
Core_0_STLB_demand_access 3991009
Core_0_STLB_demand_hit 134222
Core_0_STLB_demand_miss 3856787
Core_0_STLB_demand_mshr_merge 0
Core_0_STLB_demand_fill 3856795
Core_0_STLB_demand_miss_rate 0.966369
Core_0_STLB_demand_mpki 38.5679
Core_0_STLB_vberti_prefetch_access 4931
Core_0_STLB_vberti_prefetch_hit 3410
Core_0_STLB_vberti_prefetch_miss 1521
Core_0_STLB_vberti_prefetch_mshr_merge 0
Core_0_STLB_vberti_prefetch_fill 1521
Core_0_STLB_vberti_prefetch_miss_rate 0.308457
Core_0_STLB_vberti_prefetch_mpki 0.01521

=== STLB_vBerti Same/Cross-page Prefetch Stats ===
Core_0_STLB_vberti_same_page_prefetch 0
Core_0_STLB_vberti_same_page_prefetch_hit 0
Core_0_STLB_vberti_same_page_prefetch_miss 0
Core_0_STLB_vberti_same_page_prefetch_mshr_merge 0
Core_0_STLB_vberti_same_page_prefetch_fill 0
Core_0_STLB_vberti_same_page_prefetch_miss_rate 0
Core_0_STLB_vberti_same_page_prefetch_mpki 0
Core_0_STLB_vberti_cross_page_prefetch 4931
Core_0_STLB_vberti_cross_page_prefetch_hit 3410
Core_0_STLB_vberti_cross_page_prefetch_miss 1521
Core_0_STLB_vberti_cross_page_prefetch_mshr_merge 0
Core_0_STLB_vberti_cross_page_prefetch_fill 1521
Core_0_STLB_vberti_cross_page_prefetch_miss_rate 0.308457
Core_0_STLB_vberti_cross_page_prefetch_mpki 0.01521
Core_0_STLB_same_page_prefetch_miss_rate 0
Core_0_STLB_same_page_prefetch_mpki 0
Core_0_STLB_cross_page_prefetch_miss_rate 0.308457
Core_0_STLB_cross_page_prefetch_mpki 0.01521
Core_0_STLB_cross_page_prefetch_issued 4931
Core_0_STLB_cross_page_prefetch_lookups 4931
Core_0_STLB_cross_page_prefetch_useful 385
Core_0_STLB_cross_page_prefetch_useless 1136
Core_0_STLB_cross_page_prefetch_late 0
Core_0_STLB_cross_page_prefetch_too_early 263
Core_0_STLB_cross_page_prefetch_too_early_among_fill 0.172913
Core_0_STLB_cross_page_prefetch_too_early_among_useless 0.231514
Core_0_STLB_cross_page_prefetch_pollution_evict 1175
Core_0_STLB_cross_page_prefetch_pollution_demand 1175
Core_0_STLB_cross_page_prefetch_pollution_among_prefetch_fill 0.772518
Core_0_STLB_cross_page_prefetch_accuracy 0.0780775
Core_0_STLB_cross_page_prefetch_coverage 9.98141e-05

========= STLB Cross-page Prefetch Buffer Stats =========
Core_0_STLB_raw_demand_miss 3856787
Core_0_CP_PB_insert 0
Core_0_CP_PB_demand_hit 0
Core_0_STLB_PB_demand_miss 3856787
Core_0_CP_PB_coverage 0
Core_0_STLB_raw_demand_mpki 38.5679
Core_0_STLB_PB_demand_mpki 38.5679
Core_0_CP_PB_demand_hit_mpki 0

Core_0_TLB_demand_miss_rate 0.344082
Core_0_TLB_demand_mpki 38.5679
Core_0_TLB_same_page_prefetch_miss_rate 0
Core_0_TLB_same_page_prefetch_mpki 0
Core_0_TLB_cross_page_prefetch_miss_rate 0.00883778
Core_0_TLB_cross_page_prefetch_mpki 0.01521
Core_0_TLB_cross_page_prefetch_issued 172102
Core_0_TLB_cross_page_prefetch_lookups 172102
Core_0_TLB_cross_page_prefetch_useful 34
Core_0_TLB_cross_page_prefetch_useless 2743
Core_0_TLB_cross_page_prefetch_late 0
Core_0_TLB_cross_page_prefetch_too_early 205
Core_0_TLB_cross_page_prefetch_too_early_among_fill 0.0317731
Core_0_TLB_cross_page_prefetch_too_early_among_useless 0.0747357
Core_0_TLB_cross_page_prefetch_accuracy 0.000197557
Core_0_TLB_cross_page_prefetch_coverage 8.81555e-06
====== vBerti internal metric ========
Core_0_vBerti_end_to_end_issued 1900461
Core_0_vBerti_end_to_end_useful 270
Core_0_vBerti_end_to_end_late 42
Core_0_vBerti_end_to_end_accuracy 0.000142071
Core_0_vBerti_end_to_end_timely_accuracy 0.000119971
BERTI TO_L1: 872875 TO_L2: 1263544 TO_L2_BC_MSHR: 0
BERTI AVG_LAT: 175.707 NUM_TRACK_LATENCY: 6047455 NUM_CANT_TRACK_LATENCY: 0
BERTI CROSS_PAGE 302434 NO_CROSS_PAGE: 2136419
BERTI FOUND_BERTI: 8636641 NO_FOUND_BERTI: 2733046
BERTI AVERAGE_ISSUED: 3.40467
