[VMEM] WARNING: physical memory size is smaller than virtual memory size.

*** ChampSim Multicore Out-of-Order Simulator ***
Warmup Instructions: 50000000
Simulation Instructions: 100000000
Number of CPUs: 1
Page size: 4096
Core 0: /data2/zcq/champsim_traces_xsbench/xs.XXL100hash-563B.champsimtrace.xz
VBerti Prefetcher
BERTI HASH ENTANGLING
BERTI IP MASK ffff
Off-chip DRAM Size: 16 GiB Channels: 1 Width: 64-bit Data Rate: 3205 MT/s
Warmup halting CPU 0 at instruction 50000004 cycle 32403318 for remainder of phase
Warmup finished CPU 0 instructions: 50000004 cycles: 32403318 cumulative IPC: 1.543 (Simulation time: 00 hr 05 min 52 sec)
Warmup complete CPU 0 instructions: 50000004 cycles: 32403318 cumulative IPC: 1.543 (Simulation time: 00 hr 05 min 52 sec)
Simulation finished CPU 0 instructions: 100000003 cycles: 506932340 cumulative IPC: 0.1973 (Simulation time: 00 hr 41 min 28 sec)
Simulation complete CPU 0 instructions: 100000003 cycles: 506932340 cumulative IPC: 0.1973 (Simulation time: 00 hr 41 min 28 sec)

ChampSim completed all CPUs

=== Simulation ===
CPU 0 runs /data2/zcq/champsim_traces_xsbench/xs.XXL100hash-563B.champsimtrace.xz

Region of Interest Statistics

CPU 0 cumulative IPC: 0.1973 instructions: 100000003 cycles: 506932340
CPU 0 Branch Prediction Accuracy: 92.93% MPKI: 10.21 Average ROB Occupancy at Mispredict: 65.73
Branch type MPKI
BRANCH_DIRECT_JUMP: 1e-05
BRANCH_INDIRECT: 0
BRANCH_CONDITIONAL: 10.21
BRANCH_DIRECT_CALL: 0
BRANCH_INDIRECT_CALL: 0
BRANCH_RETURN: 0

cpu0->cpu0_STLB TOTAL        ACCESS:     948085 HIT:      14048 MISS:     934037 MSHR_MERGE:          0
cpu0->cpu0_STLB LOAD         ACCESS:     948085 HIT:      14048 MISS:     934037 MSHR_MERGE:          0
cpu0->cpu0_STLB RFO          ACCESS:          0 HIT:          0 MISS:          0 MSHR_MERGE:          0
cpu0->cpu0_STLB PREFETCH     ACCESS:          0 HIT:          0 MISS:          0 MSHR_MERGE:          0
cpu0->cpu0_STLB WRITE        ACCESS:          0 HIT:          0 MISS:          0 MSHR_MERGE:          0
cpu0->cpu0_STLB TRANSLATION  ACCESS:          0 HIT:          0 MISS:          0 MSHR_MERGE:          0
cpu0->cpu0_STLB PREFETCH REQUESTED:          0 ISSUED:          0 USEFUL:          0 USELESS:          0 LATE:          0 TOO_EARLY:          0
cpu0->cpu0_STLB AVERAGE MISS LATENCY: 371.9 cycles
cpu0->cpu0_L2C TOTAL        ACCESS:    7678133 HIT:    2155675 MISS:    5522458 MSHR_MERGE:      37331
cpu0->cpu0_L2C LOAD         ACCESS:    4415909 HIT:      74320 MISS:    4341589 MSHR_MERGE:       2360
cpu0->cpu0_L2C RFO          ACCESS:      12321 HIT:      12221 MISS:        100 MSHR_MERGE:          0
cpu0->cpu0_L2C PREFETCH     ACCESS:    2085159 HIT:    1641219 MISS:     443940 MSHR_MERGE:      34971
cpu0->cpu0_L2C WRITE        ACCESS:      16731 HIT:      16615 MISS:        116 MSHR_MERGE:          0
cpu0->cpu0_L2C TRANSLATION  ACCESS:    1148013 HIT:     411300 MISS:     736713 MSHR_MERGE:          0
cpu0->cpu0_L2C PREFETCH REQUESTED:     550453 ISSUED:     550453 USEFUL:      40548 USELESS:     279717 LATE:       2345 TOO_EARLY:        190
cpu0->cpu0_L2C AVERAGE MISS LATENCY: 220.2 cycles
cpu0->cpu0_L1I TOTAL        ACCESS:     329285 HIT:     329285 MISS:          0 MSHR_MERGE:          0
cpu0->cpu0_L1I LOAD         ACCESS:     329285 HIT:     329285 MISS:          0 MSHR_MERGE:          0
cpu0->cpu0_L1I RFO          ACCESS:          0 HIT:          0 MISS:          0 MSHR_MERGE:          0
cpu0->cpu0_L1I PREFETCH     ACCESS:          0 HIT:          0 MISS:          0 MSHR_MERGE:          0
cpu0->cpu0_L1I WRITE        ACCESS:          0 HIT:          0 MISS:          0 MSHR_MERGE:          0
cpu0->cpu0_L1I TRANSLATION  ACCESS:          0 HIT:          0 MISS:          0 MSHR_MERGE:          0
cpu0->cpu0_L1I PREFETCH REQUESTED:          0 ISSUED:          0 USEFUL:          0 USELESS:          0 LATE:          0 TOO_EARLY:          0
cpu0->cpu0_L1I AVERAGE MISS LATENCY: - cycles
cpu0->cpu0_L1D TOTAL        ACCESS:   23013648 HIT:   14569328 MISS:    8444320 MSHR_MERGE:    1333354
cpu0->cpu0_L1D LOAD         ACCESS:   13728430 HIT:    8316906 MISS:    5411524 MSHR_MERGE:     995618
cpu0->cpu0_L1D RFO          ACCESS:          0 HIT:          0 MISS:          0 MSHR_MERGE:          0
cpu0->cpu0_L1D PREFETCH     ACCESS:    3831681 HIT:    2296956 MISS:    1534725 MSHR_MERGE:         14
cpu0->cpu0_L1D WRITE        ACCESS:    3256345 HIT:    3225309 MISS:      31036 MSHR_MERGE:      18700
cpu0->cpu0_L1D TRANSLATION  ACCESS:    2197192 HIT:     730157 MISS:    1467035 MSHR_MERGE:     319022
cpu0->cpu0_L1D PREFETCH REQUESTED:    3951009 ISSUED:    3950579 USEFUL:     126651 USELESS:      35478 LATE:         43 TOO_EARLY:        139
cpu0->cpu0_L1D AVERAGE MISS LATENCY: 210 cycles
cpu0->cpu0_ITLB TOTAL        ACCESS:     272810 HIT:     272810 MISS:          0 MSHR_MERGE:          0
cpu0->cpu0_ITLB LOAD         ACCESS:     272810 HIT:     272810 MISS:          0 MSHR_MERGE:          0
cpu0->cpu0_ITLB RFO          ACCESS:          0 HIT:          0 MISS:          0 MSHR_MERGE:          0
cpu0->cpu0_ITLB PREFETCH     ACCESS:          0 HIT:          0 MISS:          0 MSHR_MERGE:          0
cpu0->cpu0_ITLB WRITE        ACCESS:          0 HIT:          0 MISS:          0 MSHR_MERGE:          0
cpu0->cpu0_ITLB TRANSLATION  ACCESS:          0 HIT:          0 MISS:          0 MSHR_MERGE:          0
cpu0->cpu0_ITLB PREFETCH REQUESTED:          0 ISSUED:          0 USEFUL:          0 USELESS:          0 LATE:          0 TOO_EARLY:          0
cpu0->cpu0_ITLB AVERAGE MISS LATENCY: - cycles
cpu0->cpu0_DTLB TOTAL        ACCESS:   19755123 HIT:   16363462 MISS:    3391661 MSHR_MERGE:    2443576
cpu0->cpu0_DTLB LOAD         ACCESS:   19755123 HIT:   16363462 MISS:    3391661 MSHR_MERGE:    2443576
cpu0->cpu0_DTLB RFO          ACCESS:          0 HIT:          0 MISS:          0 MSHR_MERGE:          0
cpu0->cpu0_DTLB PREFETCH     ACCESS:          0 HIT:          0 MISS:          0 MSHR_MERGE:          0
cpu0->cpu0_DTLB WRITE        ACCESS:          0 HIT:          0 MISS:          0 MSHR_MERGE:          0
cpu0->cpu0_DTLB TRANSLATION  ACCESS:          0 HIT:          0 MISS:          0 MSHR_MERGE:          0
cpu0->cpu0_DTLB PREFETCH REQUESTED:          0 ISSUED:          0 USEFUL:          0 USELESS:          0 LATE:          0 TOO_EARLY:          0
cpu0->cpu0_DTLB AVERAGE MISS LATENCY: 372.4 cycles
cpu0->LLC TOTAL        ACCESS:    5485732 HIT:     171840 MISS:    5313892 MSHR_MERGE:          0
cpu0->LLC LOAD         ACCESS:    4339229 HIT:       8465 MISS:    4330764 MSHR_MERGE:          0
cpu0->LLC RFO          ACCESS:        100 HIT:        100 MISS:          0 MSHR_MERGE:          0
cpu0->LLC PREFETCH     ACCESS:     408969 HIT:      26576 MISS:     382393 MSHR_MERGE:          0
cpu0->LLC WRITE        ACCESS:        721 HIT:        719 MISS:          2 MSHR_MERGE:          0
cpu0->LLC TRANSLATION  ACCESS:     736713 HIT:     135980 MISS:     600733 MSHR_MERGE:          0
cpu0->LLC PREFETCH REQUESTED:          0 ISSUED:          0 USEFUL:          0 USELESS:          0 LATE:          0 TOO_EARLY:          0
cpu0->LLC AVERAGE MISS LATENCY: 210.2 cycles

DRAM Statistics

Channel 0 RQ ROW_BUFFER_HIT:      80422
  ROW_BUFFER_MISS:    5233468
  AVG DBUS CONGESTED CYCLE: 3
Channel 0 WQ ROW_BUFFER_HIT:          1
  ROW_BUFFER_MISS:          0
  FULL:          0
Channel 0 REFRESHES ISSUED:      42244

[ROI Statistics]
[System Configuration]
num_cpus 1
cpu_freq 4000
fetch_width 6
decode_width 6
dispatch_width 6
execute_width 6
lq_width 2
sq_width 2
retire_width 6
scheduler_size 128
branch_mispredict_penalty 15
rob_size 352
lq_size 128
sq_size 72
ifetch_buffer_size 64
decode_buffer_size 32
dispatch_buffer_size 32
register_file_size 288
decode_latency 1
dispatch_latency 1
schedule_latency 1
execute_latency 1
page_size 4096
block_size 64
core_0_itlb_set 16
core_0_itlb_way 4
core_0_itlb_rq_size 16
core_0_itlb_wq_size 16
core_0_itlb_pq_size 0
core_0_itlb_mshr_size 8
core_0_itlb_hit_latency 1
core_0_itlb_fill_latency 1
core_0_itlb_max_tag_check 2
core_0_itlb_max_fill 2
core_0_dtlb_set 16
core_0_dtlb_way 4
core_0_dtlb_rq_size 16
core_0_dtlb_wq_size 16
core_0_dtlb_pq_size 0
core_0_dtlb_mshr_size 8
core_0_dtlb_hit_latency 1
core_0_dtlb_fill_latency 1
core_0_dtlb_max_tag_check 2
core_0_dtlb_max_fill 2
core_0_stlb_set 128
core_0_stlb_way 12
core_0_stlb_rq_size 32
core_0_stlb_wq_size 32
core_0_stlb_pq_size 0
core_0_stlb_mshr_size 16
core_0_stlb_hit_latency 4
core_0_stlb_fill_latency 4
core_0_stlb_max_tag_check 1
core_0_stlb_max_fill 1
core_0_l1i_set 64
core_0_l1i_way 8
core_0_l1i_rq_size 64
core_0_l1i_wq_size 64
core_0_l1i_pq_size 32
core_0_l1i_mshr_size 8
core_0_l1i_hit_latency 2
core_0_l1i_fill_latency 2
core_0_l1i_max_tag_check 2
core_0_l1i_max_fill 2
core_0_l1d_set 64
core_0_l1d_way 12
core_0_l1d_rq_size 64
core_0_l1d_wq_size 64
core_0_l1d_pq_size 8
core_0_l1d_mshr_size 16
core_0_l1d_hit_latency 2
core_0_l1d_fill_latency 3
core_0_l1d_max_tag_check 2
core_0_l1d_max_fill 2
core_0_l2c_set 1024
core_0_l2c_way 8
core_0_l2c_rq_size 32
core_0_l2c_wq_size 32
core_0_l2c_pq_size 16
core_0_l2c_mshr_size 32
core_0_l2c_hit_latency 5
core_0_l2c_fill_latency 5
core_0_l2c_max_tag_check 1
core_0_l2c_max_fill 1
llc_set 2048
llc_way 16
llc_rq_size 32
llc_wq_size 32
llc_pq_size 32
llc_mshr_size 64
llc_hit_latency 10
llc_fill_latency 10
llc_max_tag_check 1
llc_max_fill 1
dram_channels 1
dram_ranks 1
dram_bankgroups 8
dram_banks 4
dram_rows 65536
dram_columns 1024
dram_channel_width 8
dram_rq_size 64
dram_wq_size 64
dram_size 17179869184
core_0_itlb_prefetcher no
core_0_dtlb_prefetcher no
core_0_stlb_prefetcher no
core_0_l1i_prefetcher next_line
core_0_l1d_prefetcher vberti
core_0_l2c_prefetcher ip_stride
llc_prefetcher no
llc_replacement drrip

Core_0_instructions 100000003
Core_0_cycles 506932340
Core_0_IPC 0.197265
Core_0_branch_prediction_accuracy 92.933
Core_0_branch_MPKI 10.211
Core_0_average_ROB_occupancy_at_mispredict 65.7268

Core_0_ITLB_total_access 272810
Core_0_ITLB_total_hit 272810
Core_0_ITLB_total_miss 0
Core_0_ITLB_total_MPKI 0
Core_0_ITLB_total_miss_rate 0
Core_0_ITLB_demand_access 272810
Core_0_ITLB_demand_hit 272810
Core_0_ITLB_demand_miss 0
Core_0_ITLB_demand_MPKI 0
Core_0_ITLB_demand_miss_rate 0
Core_0_ITLB_load_access 272810
Core_0_ITLB_load_hit 272810
Core_0_ITLB_load_miss 0
Core_0_ITLB_load_MPKI 0
Core_0_ITLB_load_miss_rate 0
Core_0_ITLB_rfo_access 0
Core_0_ITLB_rfo_hit 0
Core_0_ITLB_rfo_miss 0
Core_0_ITLB_rfo_MPKI 0
Core_0_ITLB_rfo_miss_rate 0
Core_0_ITLB_prefetch_access 0
Core_0_ITLB_prefetch_hit 0
Core_0_ITLB_prefetch_miss 0
Core_0_ITLB_prefetch_MPKI 0
Core_0_ITLB_prefetch_miss_rate 0
Core_0_ITLB_writeback_access 0
Core_0_ITLB_writeback_hit 0
Core_0_ITLB_writeback_miss 0
Core_0_ITLB_writeback_MPKI 0
Core_0_ITLB_writeback_miss_rate 0
Core_0_ITLB_prefetch_requested 0
Core_0_ITLB_prefetch_issued 0
Core_0_ITLB_prefetch_useful 0
Core_0_ITLB_prefetch_useless 0
Core_0_ITLB_prefetch_late 0
Core_0_ITLB_prefetch_fill 0
Core_0_ITLB_prefetch_too_early 0
Core_0_ITLB_prefetch_too_early_among_fill 0
Core_0_ITLB_prefetch_too_early_among_useless 0
Core_0_ITLB_prefetch_pollution_evict 0
Core_0_ITLB_prefetch_pollution_demand 0
Core_0_ITLB_prefetch_pollution_among_prefetch_fill 0
Core_0_ITLB_prefetch_accuracy 0
Core_0_ITLB_prefetch_coverage 0

Core_0_DTLB_total_access 19755123
Core_0_DTLB_total_hit 16363462
Core_0_DTLB_total_miss 3391661
Core_0_DTLB_total_MPKI 33.9166
Core_0_DTLB_total_miss_rate 0.171685
Core_0_DTLB_demand_access 19755123
Core_0_DTLB_demand_hit 16363462
Core_0_DTLB_demand_miss 3391661
Core_0_DTLB_demand_MPKI 33.9166
Core_0_DTLB_demand_miss_rate 0.171685
Core_0_DTLB_load_access 19755123
Core_0_DTLB_load_hit 16363462
Core_0_DTLB_load_miss 3391661
Core_0_DTLB_load_MPKI 33.9166
Core_0_DTLB_load_miss_rate 0.171685
Core_0_DTLB_rfo_access 0
Core_0_DTLB_rfo_hit 0
Core_0_DTLB_rfo_miss 0
Core_0_DTLB_rfo_MPKI 0
Core_0_DTLB_rfo_miss_rate 0
Core_0_DTLB_prefetch_access 0
Core_0_DTLB_prefetch_hit 0
Core_0_DTLB_prefetch_miss 0
Core_0_DTLB_prefetch_MPKI 0
Core_0_DTLB_prefetch_miss_rate 0
Core_0_DTLB_writeback_access 0
Core_0_DTLB_writeback_hit 0
Core_0_DTLB_writeback_miss 0
Core_0_DTLB_writeback_MPKI 0
Core_0_DTLB_writeback_miss_rate 0
Core_0_DTLB_prefetch_requested 0
Core_0_DTLB_prefetch_issued 0
Core_0_DTLB_prefetch_useful 0
Core_0_DTLB_prefetch_useless 0
Core_0_DTLB_prefetch_late 0
Core_0_DTLB_prefetch_fill 0
Core_0_DTLB_prefetch_too_early 0
Core_0_DTLB_prefetch_too_early_among_fill 0
Core_0_DTLB_prefetch_too_early_among_useless 0
Core_0_DTLB_prefetch_pollution_evict 0
Core_0_DTLB_prefetch_pollution_demand 0
Core_0_DTLB_prefetch_pollution_among_prefetch_fill 0
Core_0_DTLB_prefetch_accuracy 0
Core_0_DTLB_prefetch_coverage 0

Core_0_STLB_total_access 948085
Core_0_STLB_total_hit 14048
Core_0_STLB_total_miss 934037
Core_0_STLB_total_MPKI 9.34037
Core_0_STLB_total_miss_rate 0.985183
Core_0_STLB_demand_access 948085
Core_0_STLB_demand_hit 14048
Core_0_STLB_demand_miss 934037
Core_0_STLB_demand_MPKI 9.34037
Core_0_STLB_demand_miss_rate 0.985183
Core_0_STLB_load_access 948085
Core_0_STLB_load_hit 14048
Core_0_STLB_load_miss 934037
Core_0_STLB_load_MPKI 9.34037
Core_0_STLB_load_miss_rate 0.985183
Core_0_STLB_rfo_access 0
Core_0_STLB_rfo_hit 0
Core_0_STLB_rfo_miss 0
Core_0_STLB_rfo_MPKI 0
Core_0_STLB_rfo_miss_rate 0
Core_0_STLB_prefetch_access 0
Core_0_STLB_prefetch_hit 0
Core_0_STLB_prefetch_miss 0
Core_0_STLB_prefetch_MPKI 0
Core_0_STLB_prefetch_miss_rate 0
Core_0_STLB_writeback_access 0
Core_0_STLB_writeback_hit 0
Core_0_STLB_writeback_miss 0
Core_0_STLB_writeback_MPKI 0
Core_0_STLB_writeback_miss_rate 0
Core_0_STLB_prefetch_requested 0
Core_0_STLB_prefetch_issued 0
Core_0_STLB_prefetch_useful 0
Core_0_STLB_prefetch_useless 0
Core_0_STLB_prefetch_late 0
Core_0_STLB_prefetch_fill 0
Core_0_STLB_prefetch_too_early 0
Core_0_STLB_prefetch_too_early_among_fill 0
Core_0_STLB_prefetch_too_early_among_useless 0
Core_0_STLB_prefetch_pollution_evict 0
Core_0_STLB_prefetch_pollution_demand 0
Core_0_STLB_prefetch_pollution_among_prefetch_fill 0
Core_0_STLB_prefetch_accuracy 0
Core_0_STLB_prefetch_coverage 0

Core_0_L1I_total_access 329285
Core_0_L1I_total_hit 329285
Core_0_L1I_total_miss 0
Core_0_L1I_total_MPKI 0
Core_0_L1I_total_miss_rate 0
Core_0_L1I_demand_access 329285
Core_0_L1I_demand_hit 329285
Core_0_L1I_demand_miss 0
Core_0_L1I_demand_MPKI 0
Core_0_L1I_demand_miss_rate 0
Core_0_L1I_load_access 329285
Core_0_L1I_load_hit 329285
Core_0_L1I_load_miss 0
Core_0_L1I_load_MPKI 0
Core_0_L1I_load_miss_rate 0
Core_0_L1I_rfo_access 0
Core_0_L1I_rfo_hit 0
Core_0_L1I_rfo_miss 0
Core_0_L1I_rfo_MPKI 0
Core_0_L1I_rfo_miss_rate 0
Core_0_L1I_prefetch_access 0
Core_0_L1I_prefetch_hit 0
Core_0_L1I_prefetch_miss 0
Core_0_L1I_prefetch_MPKI 0
Core_0_L1I_prefetch_miss_rate 0
Core_0_L1I_writeback_access 0
Core_0_L1I_writeback_hit 0
Core_0_L1I_writeback_miss 0
Core_0_L1I_writeback_MPKI 0
Core_0_L1I_writeback_miss_rate 0
Core_0_L1I_prefetch_requested 0
Core_0_L1I_prefetch_issued 0
Core_0_L1I_prefetch_useful 0
Core_0_L1I_prefetch_useless 0
Core_0_L1I_prefetch_late 0
Core_0_L1I_prefetch_fill 0
Core_0_L1I_prefetch_too_early 0
Core_0_L1I_prefetch_too_early_among_fill 0
Core_0_L1I_prefetch_too_early_among_useless 0
Core_0_L1I_prefetch_pollution_evict 0
Core_0_L1I_prefetch_pollution_demand 0
Core_0_L1I_prefetch_pollution_among_prefetch_fill 0
Core_0_L1I_prefetch_accuracy 0
Core_0_L1I_prefetch_coverage 0

Core_0_L1D_total_access 20816456
Core_0_L1D_total_hit 13839171
Core_0_L1D_total_miss 6977285
Core_0_L1D_total_MPKI 69.7728
Core_0_L1D_total_miss_rate 0.335181
Core_0_L1D_demand_access 13728430
Core_0_L1D_demand_hit 8316906
Core_0_L1D_demand_miss 5411524
Core_0_L1D_demand_MPKI 54.1152
Core_0_L1D_demand_miss_rate 0.394184
Core_0_L1D_load_access 13728430
Core_0_L1D_load_hit 8316906
Core_0_L1D_load_miss 5411524
Core_0_L1D_load_MPKI 54.1152
Core_0_L1D_load_miss_rate 0.394184
Core_0_L1D_rfo_access 0
Core_0_L1D_rfo_hit 0
Core_0_L1D_rfo_miss 0
Core_0_L1D_rfo_MPKI 0
Core_0_L1D_rfo_miss_rate 0
Core_0_L1D_prefetch_access 3831681
Core_0_L1D_prefetch_hit 2296956
Core_0_L1D_prefetch_miss 1534725
Core_0_L1D_prefetch_MPKI 15.3472
Core_0_L1D_prefetch_miss_rate 0.400536
Core_0_L1D_writeback_access 3256345
Core_0_L1D_writeback_hit 3225309
Core_0_L1D_writeback_miss 31036
Core_0_L1D_writeback_MPKI 0.31036
Core_0_L1D_writeback_miss_rate 0.00953093
Core_0_L1D_prefetch_requested 3951009
Core_0_L1D_prefetch_issued 3950579
Core_0_L1D_prefetch_useful 126651
Core_0_L1D_prefetch_useless 35478
Core_0_L1D_prefetch_late 43
Core_0_L1D_prefetch_fill 162093
Core_0_L1D_prefetch_too_early 139
Core_0_L1D_prefetch_too_early_among_fill 0.000857532
Core_0_L1D_prefetch_too_early_among_useless 0.00391792
Core_0_L1D_prefetch_pollution_evict 545
Core_0_L1D_prefetch_pollution_demand 544
Core_0_L1D_cross_page_pf_translation_only_requested 118917
Core_0_L1D_cross_page_pf_translation_only_issued 118903
Core_0_L1D_cross_page_pf_translation_only_dropped 118903
Core_0_L1D_prefetch_pollution_among_prefetch_fill 0.00336227
Core_0_L1D_prefetch_accuracy 0.0320588
Core_0_L1D_prefetch_coverage 0.0228687

Core_0_L2C_total_access 6530120
Core_0_L2C_total_hit 1744375
Core_0_L2C_total_miss 4785745
Core_0_L2C_total_MPKI 47.8574
Core_0_L2C_total_miss_rate 0.732872
Core_0_L2C_demand_access 4428230
Core_0_L2C_demand_hit 86541
Core_0_L2C_demand_miss 4341689
Core_0_L2C_demand_MPKI 43.4169
Core_0_L2C_demand_miss_rate 0.980457
Core_0_L2C_load_access 4415909
Core_0_L2C_load_hit 74320
Core_0_L2C_load_miss 4341589
Core_0_L2C_load_MPKI 43.4159
Core_0_L2C_load_miss_rate 0.98317
Core_0_L2C_rfo_access 12321
Core_0_L2C_rfo_hit 12221
Core_0_L2C_rfo_miss 100
Core_0_L2C_rfo_MPKI 0.001
Core_0_L2C_rfo_miss_rate 0.00811622
Core_0_L2C_prefetch_access 2085159
Core_0_L2C_prefetch_hit 1641219
Core_0_L2C_prefetch_miss 443940
Core_0_L2C_prefetch_MPKI 4.4394
Core_0_L2C_prefetch_miss_rate 0.212905
Core_0_L2C_writeback_access 16731
Core_0_L2C_writeback_hit 16615
Core_0_L2C_writeback_miss 116
Core_0_L2C_writeback_MPKI 0.00116
Core_0_L2C_writeback_miss_rate 0.00693324
Core_0_L2C_prefetch_requested 550453
Core_0_L2C_prefetch_issued 550453
Core_0_L2C_prefetch_useful 40548
Core_0_L2C_prefetch_useless 279717
Core_0_L2C_prefetch_late 2345
Core_0_L2C_prefetch_fill 406607
Core_0_L2C_prefetch_too_early 190
Core_0_L2C_prefetch_too_early_among_fill 0.000467282
Core_0_L2C_prefetch_too_early_among_useless 0.000679258
Core_0_L2C_prefetch_pollution_evict 1271
Core_0_L2C_prefetch_pollution_demand 1263
Core_0_L2C_prefetch_pollution_among_prefetch_fill 0.00312587
Core_0_L2C_prefetch_accuracy 0.073663
Core_0_L2C_prefetch_coverage 0.00925281

Core_0_LLC_total_access 4749019
Core_0_LLC_total_hit 35860
Core_0_LLC_total_miss 4713159
Core_0_LLC_total_MPKI 47.1316
Core_0_LLC_total_miss_rate 0.992449
Core_0_LLC_demand_access 4339329
Core_0_LLC_demand_hit 8565
Core_0_LLC_demand_miss 4330764
Core_0_LLC_demand_MPKI 43.3076
Core_0_LLC_demand_miss_rate 0.998026
Core_0_LLC_load_access 4339229
Core_0_LLC_load_hit 8465
Core_0_LLC_load_miss 4330764
Core_0_LLC_load_MPKI 43.3076
Core_0_LLC_load_miss_rate 0.998049
Core_0_LLC_rfo_access 100
Core_0_LLC_rfo_hit 100
Core_0_LLC_rfo_miss 0
Core_0_LLC_rfo_MPKI 0
Core_0_LLC_rfo_miss_rate 0
Core_0_LLC_prefetch_access 408969
Core_0_LLC_prefetch_hit 26576
Core_0_LLC_prefetch_miss 382393
Core_0_LLC_prefetch_MPKI 3.82393
Core_0_LLC_prefetch_miss_rate 0.935017
Core_0_LLC_writeback_access 721
Core_0_LLC_writeback_hit 719
Core_0_LLC_writeback_miss 2
Core_0_LLC_writeback_MPKI 2e-05
Core_0_LLC_writeback_miss_rate 0.00277393
Core_0_LLC_prefetch_requested 0
Core_0_LLC_prefetch_issued 0
Core_0_LLC_prefetch_useful 0
Core_0_LLC_prefetch_useless 0
Core_0_LLC_prefetch_late 0
Core_0_LLC_prefetch_fill 382393
Core_0_LLC_prefetch_too_early 0
Core_0_LLC_prefetch_too_early_among_fill 0
Core_0_LLC_prefetch_too_early_among_useless 0
Core_0_LLC_prefetch_pollution_evict 2837
Core_0_LLC_prefetch_pollution_demand 2837
Core_0_LLC_prefetch_pollution_among_prefetch_fill 0.00741907
Core_0_LLC_prefetch_accuracy 0
Core_0_LLC_prefetch_coverage 0

[DRAM Statistics]
Channel_0_RQ_row_buffer_hit 80422
Channel_0_RQ_row_buffer_miss 5233468
Channel_0_WQ_row_buffer_hit 1
Channel_0_WQ_row_buffer_miss 0
Channel_0_WQ_full 0
Channel_0_dbus_congested 8362468
DRAM_total_RQ_row_buffer_hit 80422
DRAM_total_RQ_row_buffer_miss 5233468
DRAM_total_WQ_row_buffer_hit 1
DRAM_total_WQ_row_buffer_miss 0
DRAM_total_WQ_full 0
DRAM_total_dbus_congested 8362468
DRAM_avg_congested_cycle 3.00042

====== DRAM_RQ_TRAFFIC ========
DRAM_RQ_READ_TRAFFIC_BREAKDOWN:
data_demand_read.count = 4330764
data_demand_read.share = 81.50%

inst_demand_read.count = 0
inst_demand_read.share = 0.00%

cache_inst_prefetch.count = 0
cache_inst_prefetch.share = 0.00%

cache_data_prefetch.count = 382393
cache_data_prefetch.share = 7.20%

stlb_data_demand.count = 600678
stlb_data_demand.share = 11.30%

stlb_inst_demand.count = 0
stlb_inst_demand.share = 0.00%

stlb_l1i_pref.count = 0
stlb_l1i_pref.share = 0.00%

stlb_l1d_pref.count = 55
stlb_l1d_pref.share = 0.00%

DRAM_RQ_READ_TRAFFIC_SUMMARY:
cache_demand.count = 4330764
cache_demand.share = 81.50%

cache_prefetch.count = 382393
cache_prefetch.share = 7.20%

stlb_demand.count = 600678
stlb_demand.share = 11.30%

stlb_prefetch.count = 55
stlb_prefetch.share = 0.00%

DRAM_RQ_READ_TRAFFIC_DEBUG:
total_classified_read.count = 5313890
unclassified_read.count = 0
total_read_with_other.count = 5313890

classified_plus_unclassified_check.count = 5313890
dram_rq_read_total_observed.count = 5313890
dram_rq_read_total_observed.per_1K_instructions = 53.1389

STLB_MISS_PTW_DRAM_TOUCH_BREAKDOWN:
stlb_miss_total.count = 934037

stlb_miss_touch_dram.count = 857752
stlb_miss_touch_dram.share = 91.83%

stlb_miss_no_dram_touch.count = 76285
stlb_miss_no_dram_touch.share = 8.17%

STLB_MISS_PTW_DRAM_TOUCH_DEBUG:
stlb_miss_touch_plus_no_touch.count = 934037
stlb_miss_total_check.count = 934037

======STLB miss causes ========
Core_0_STLB_miss_cause_breakdown
Core_0_STLB_cause_Demand_Data_miss 933251
Core_0_STLB_cause_Demand_Data_miss_rate 0.984354
Core_0_STLB_cause_Demand_Instruction_miss 0
Core_0_STLB_cause_Demand_Instruction_miss_rate 0
Core_0_STLB_cause_L1D_Prefetch_miss 786
Core_0_STLB_cause_L1D_Prefetch_miss_rate 0.00082904
Core_0_STLB_cause_L1D_Prefetch_Same_Page_miss 0
Core_0_STLB_cause_L1D_Prefetch_Same_Page_miss_rate 0
Core_0_STLB_cause_L1D_Prefetch_Cross_Page_miss 786
Core_0_STLB_cause_L1D_Prefetch_Cross_Page_miss_rate 0.00082904
Core_0_STLB_cause_L1I_Prefetch_miss 0
Core_0_STLB_cause_L1I_Prefetch_miss_rate 0
Core_0_STLB_cause_Other_miss 0
Core_0_STLB_cause_Other_miss_rate 0
Core_0_STLB_Demand_miss 933251
Core_0_STLB_Demand_miss_rate 0.984354
Core_0_STLB_L1D_Prefetch_miss 786
Core_0_STLB_L1D_Prefetch_miss_rate 0.00082904
Core_0_STLB_Other_miss 0
Core_0_STLB_Other_miss_rate 0

========== vBerti-TLB Cross-page Flow Stats ==========

Core_0_vBerti_Requested 3951009
Core_0_vBerti_Cross_page_prefetch_in_Requested 118917
Core_0_vBerti_Same_page_prefetch_in_Requested 3832092
Core_0_vBerti_Cross_page_prefetch_of_Requested 0.0300979
Core_0_vBerti_Issued 3950579
Core_0_vBerti_InPQ_Same_page_prefetch 3831676
Core_0_vBerti_InPQ_Cross_page_prefetch 118903
Core_0_vBerti_PQ_Drop_Rate 0.000108833
Core_0_vBerti_InPQ_Cross_page_prefetch_of_Requested 0.0300943
Core_0_vBerti_Cross_page_PQ_Drop_rate 0.000117729
Core_0_vBerti_Cross_page_prefetch_of_Issued 0.0300976
Core_0_CP_PF_PQFULL_drop 14
Core_0_CP_PF_PQFULL_TLB_rescue_enqueued 0
Core_0_CP_PF_PQFULL_TLB_rescue_issued 0
Core_0_CP_PF_PQFULL_TLB_rescue_translated 0

========= DTLB_vBerti Prefetch Stats =========
Core_0_DTLB_demand_access 16628721
Core_0_DTLB_demand_hit 13240988
Core_0_DTLB_demand_miss 3387733
Core_0_DTLB_demand_mshr_merge 2443530
Core_0_DTLB_demand_fill 944203
Core_0_DTLB_demand_miss_rate 0.203728
Core_0_DTLB_demand_mpki 33.8773
Core_0_DTLB_vberti_prefetch_access 3126402
Core_0_DTLB_vberti_prefetch_hit 3122474
Core_0_DTLB_vberti_prefetch_miss 3928
Core_0_DTLB_vberti_prefetch_mshr_merge 46
Core_0_DTLB_vberti_prefetch_fill 3882
Core_0_DTLB_vberti_prefetch_miss_rate 0.0012564
Core_0_DTLB_vberti_prefetch_mpki 0.03928

=== DTLB_vBerti Same/Cross-page Prefetch Stats ===
Core_0_DTLB_vberti_same_page_prefetch 3030621
Core_0_DTLB_vberti_same_page_prefetch_hit 3030621
Core_0_DTLB_vberti_same_page_prefetch_miss 0
Core_0_DTLB_vberti_same_page_prefetch_mshr_merge 0
Core_0_DTLB_vberti_same_page_prefetch_fill 0
Core_0_DTLB_vberti_same_page_prefetch_miss_rate 0
Core_0_DTLB_vberti_same_page_prefetch_mpki 0
Core_0_DTLB_vberti_cross_page_prefetch 95781
Core_0_DTLB_vberti_cross_page_prefetch_hit 91853
Core_0_DTLB_vberti_cross_page_prefetch_miss 3928
Core_0_DTLB_vberti_cross_page_prefetch_mshr_merge 46
Core_0_DTLB_vberti_cross_page_prefetch_fill 3882
Core_0_DTLB_vberti_cross_page_prefetch_miss_rate 0.0410102
Core_0_DTLB_vberti_cross_page_prefetch_mpki 0.03928
Core_0_DTLB_same_page_prefetch_miss_rate 0
Core_0_DTLB_same_page_prefetch_mpki 0
Core_0_DTLB_cross_page_prefetch_miss_rate 0.0410102
Core_0_DTLB_cross_page_prefetch_mpki 0.03928
Core_0_DTLB_cross_page_prefetch_issued 95781
Core_0_DTLB_cross_page_prefetch_lookups 95781
Core_0_DTLB_cross_page_prefetch_useful 2016
Core_0_DTLB_cross_page_prefetch_useless 1866
Core_0_DTLB_cross_page_prefetch_late 0
Core_0_DTLB_cross_page_prefetch_too_early 191
Core_0_DTLB_cross_page_prefetch_too_early_among_fill 0.0492014
Core_0_DTLB_cross_page_prefetch_too_early_among_useless 0.102358
Core_0_DTLB_cross_page_prefetch_pollution_evict 40
Core_0_DTLB_cross_page_prefetch_pollution_demand 39
Core_0_DTLB_cross_page_prefetch_pollution_among_prefetch_fill 0.010304
Core_0_DTLB_cross_page_prefetch_accuracy 0.021048
Core_0_DTLB_cross_page_prefetch_coverage 0.000594734

========= STLB_vBerti Prefetch Stats =========
Core_0_STLB_demand_access 944203
Core_0_STLB_demand_hit 10952
Core_0_STLB_demand_miss 933251
Core_0_STLB_demand_mshr_merge 0
Core_0_STLB_demand_fill 933251
Core_0_STLB_demand_miss_rate 0.988401
Core_0_STLB_demand_mpki 9.33251
Core_0_STLB_vberti_prefetch_access 3882
Core_0_STLB_vberti_prefetch_hit 3096
Core_0_STLB_vberti_prefetch_miss 786
Core_0_STLB_vberti_prefetch_mshr_merge 0
Core_0_STLB_vberti_prefetch_fill 786
Core_0_STLB_vberti_prefetch_miss_rate 0.202473
Core_0_STLB_vberti_prefetch_mpki 0.00786

=== STLB_vBerti Same/Cross-page Prefetch Stats ===
Core_0_STLB_vberti_same_page_prefetch 0
Core_0_STLB_vberti_same_page_prefetch_hit 0
Core_0_STLB_vberti_same_page_prefetch_miss 0
Core_0_STLB_vberti_same_page_prefetch_mshr_merge 0
Core_0_STLB_vberti_same_page_prefetch_fill 0
Core_0_STLB_vberti_same_page_prefetch_miss_rate 0
Core_0_STLB_vberti_same_page_prefetch_mpki 0
Core_0_STLB_vberti_cross_page_prefetch 3882
Core_0_STLB_vberti_cross_page_prefetch_hit 3096
Core_0_STLB_vberti_cross_page_prefetch_miss 786
Core_0_STLB_vberti_cross_page_prefetch_mshr_merge 0
Core_0_STLB_vberti_cross_page_prefetch_fill 786
Core_0_STLB_vberti_cross_page_prefetch_miss_rate 0.202473
Core_0_STLB_vberti_cross_page_prefetch_mpki 0.00786
Core_0_STLB_same_page_prefetch_miss_rate 0
Core_0_STLB_same_page_prefetch_mpki 0
Core_0_STLB_cross_page_prefetch_miss_rate 0.202473
Core_0_STLB_cross_page_prefetch_mpki 0.00786
Core_0_STLB_cross_page_prefetch_issued 3882
Core_0_STLB_cross_page_prefetch_lookups 3882
Core_0_STLB_cross_page_prefetch_useful 85
Core_0_STLB_cross_page_prefetch_useless 701
Core_0_STLB_cross_page_prefetch_late 0
Core_0_STLB_cross_page_prefetch_too_early 452
Core_0_STLB_cross_page_prefetch_too_early_among_fill 0.575064
Core_0_STLB_cross_page_prefetch_too_early_among_useless 0.644793
Core_0_STLB_cross_page_prefetch_pollution_evict 188
Core_0_STLB_cross_page_prefetch_pollution_demand 188
Core_0_STLB_cross_page_prefetch_pollution_among_prefetch_fill 0.239186
Core_0_STLB_cross_page_prefetch_accuracy 0.0218959
Core_0_STLB_cross_page_prefetch_coverage 9.10712e-05

========= STLB Cross-page Prefetch Buffer Stats =========
Core_0_STLB_raw_demand_miss 933251
Core_0_CP_PB_insert 0
Core_0_CP_PB_demand_hit 0
Core_0_STLB_PB_demand_miss 933251
Core_0_CP_PB_coverage 0
Core_0_STLB_raw_demand_mpki 9.33251
Core_0_STLB_PB_demand_mpki 9.33251
Core_0_CP_PB_demand_hit_mpki 0

Core_0_TLB_demand_miss_rate 0.0561228
Core_0_TLB_demand_mpki 9.33251
Core_0_TLB_same_page_prefetch_miss_rate 0
Core_0_TLB_same_page_prefetch_mpki 0
Core_0_TLB_cross_page_prefetch_miss_rate 0.00820622
Core_0_TLB_cross_page_prefetch_mpki 0.00786
Core_0_TLB_cross_page_prefetch_issued 95781
Core_0_TLB_cross_page_prefetch_lookups 95781
Core_0_TLB_cross_page_prefetch_useful 500
Core_0_TLB_cross_page_prefetch_useless 1525
Core_0_TLB_cross_page_prefetch_late 0
Core_0_TLB_cross_page_prefetch_too_early 33
Core_0_TLB_cross_page_prefetch_too_early_among_fill 0.00706941
Core_0_TLB_cross_page_prefetch_too_early_among_useless 0.0216393
Core_0_TLB_cross_page_prefetch_accuracy 0.00522024
Core_0_TLB_cross_page_prefetch_coverage 0.000535475
====== vBerti internal metric ========
Core_0_vBerti_end_to_end_issued 3831676
Core_0_vBerti_end_to_end_useful 40220
Core_0_vBerti_end_to_end_late 58
Core_0_vBerti_end_to_end_accuracy 0.0104967
Core_0_vBerti_end_to_end_timely_accuracy 0.0104816
BERTI TO_L1: 2291916 TO_L2: 1540176 TO_L2_BC_MSHR: 0
BERTI AVG_LAT: 225.6 NUM_TRACK_LATENCY: 4574438 NUM_CANT_TRACK_LATENCY: 0
BERTI CROSS_PAGE 118917 NO_CROSS_PAGE: 3832092
BERTI FOUND_BERTI: 10920332 NO_FOUND_BERTI: 6064443
BERTI AVERAGE_ISSUED: 1.88216
