[VMEM] WARNING: physical memory size is smaller than virtual memory size.

*** ChampSim Multicore Out-of-Order Simulator ***
Warmup Instructions: 50000000
Simulation Instructions: 100000000
Number of CPUs: 1
Page size: 4096
Core 0: /data2/zcq/champsim_traces_xsbench/xs.XXL100unionized-24B.champsimtrace.xz
VBerti Prefetcher
BERTI HASH ENTANGLING
BERTI IP MASK ffff
Off-chip DRAM Size: 16 GiB Channels: 1 Width: 64-bit Data Rate: 3205 MT/s
Warmup halting CPU 0 at instruction 50000005 cycle 12810428 for remainder of phase
Warmup finished CPU 0 instructions: 50000005 cycles: 12810428 cumulative IPC: 3.903 (Simulation time: 00 hr 02 min 49 sec)
Warmup complete CPU 0 instructions: 50000005 cycles: 12810428 cumulative IPC: 3.903 (Simulation time: 00 hr 02 min 49 sec)
Simulation finished CPU 0 instructions: 100000005 cycles: 299084263 cumulative IPC: 0.3344 (Simulation time: 00 hr 30 min 12 sec)
Simulation complete CPU 0 instructions: 100000005 cycles: 299084263 cumulative IPC: 0.3344 (Simulation time: 00 hr 30 min 12 sec)

ChampSim completed all CPUs

=== Simulation ===
CPU 0 runs /data2/zcq/champsim_traces_xsbench/xs.XXL100unionized-24B.champsimtrace.xz

Region of Interest Statistics

CPU 0 cumulative IPC: 0.3344 instructions: 100000005 cycles: 299084263
CPU 0 Branch Prediction Accuracy: 93.32% MPKI: 15.86 Average ROB Occupancy at Mispredict: 43.85
Branch type MPKI
BRANCH_DIRECT_JUMP: 0.00013
BRANCH_INDIRECT: 0
BRANCH_CONDITIONAL: 15.86
BRANCH_DIRECT_CALL: 8e-05
BRANCH_INDIRECT_CALL: 0
BRANCH_RETURN: 0.00053

cpu0->cpu0_STLB TOTAL        ACCESS:    1578328 HIT:     720666 MISS:     857662 MSHR_MERGE:          0
cpu0->cpu0_STLB LOAD         ACCESS:    1578328 HIT:     720666 MISS:     857662 MSHR_MERGE:          0
cpu0->cpu0_STLB RFO          ACCESS:          0 HIT:          0 MISS:          0 MSHR_MERGE:          0
cpu0->cpu0_STLB PREFETCH     ACCESS:          0 HIT:          0 MISS:          0 MSHR_MERGE:          0
cpu0->cpu0_STLB WRITE        ACCESS:          0 HIT:          0 MISS:          0 MSHR_MERGE:          0
cpu0->cpu0_STLB TRANSLATION  ACCESS:          0 HIT:          0 MISS:          0 MSHR_MERGE:          0
cpu0->cpu0_STLB PREFETCH REQUESTED:          0 ISSUED:          0 USEFUL:          0 USELESS:          0 LATE:          0 TOO_EARLY:          0
cpu0->cpu0_STLB AVERAGE MISS LATENCY: 23.62 cycles
cpu0->cpu0_L2C TOTAL        ACCESS:    8323822 HIT:    5601106 MISS:    2722716 MSHR_MERGE:     267775
cpu0->cpu0_L2C LOAD         ACCESS:    2404258 HIT:     500642 MISS:    1903616 MSHR_MERGE:      45303
cpu0->cpu0_L2C RFO          ACCESS:     135139 HIT:      41426 MISS:      93713 MSHR_MERGE:       5417
cpu0->cpu0_L2C PREFETCH     ACCESS:    3559305 HIT:    2861238 MISS:     698067 MSHR_MERGE:     217055
cpu0->cpu0_L2C WRITE        ACCESS:    1612788 HIT:    1612762 MISS:         26 MSHR_MERGE:          0
cpu0->cpu0_L2C TRANSLATION  ACCESS:     612332 HIT:     585038 MISS:      27294 MSHR_MERGE:          0
cpu0->cpu0_L2C PREFETCH REQUESTED:    1096685 ISSUED:    1074938 USEFUL:     158761 USELESS:       7035 LATE:      41830 TOO_EARLY:       5342
cpu0->cpu0_L2C AVERAGE MISS LATENCY: 237.2 cycles
cpu0->cpu0_L1I TOTAL        ACCESS:    2622575 HIT:    2622517 MISS:         58 MSHR_MERGE:          8
cpu0->cpu0_L1I LOAD         ACCESS:    2622575 HIT:    2622517 MISS:         58 MSHR_MERGE:          8
cpu0->cpu0_L1I RFO          ACCESS:          0 HIT:          0 MISS:          0 MSHR_MERGE:          0
cpu0->cpu0_L1I PREFETCH     ACCESS:          0 HIT:          0 MISS:          0 MSHR_MERGE:          0
cpu0->cpu0_L1I WRITE        ACCESS:          0 HIT:          0 MISS:          0 MSHR_MERGE:          0
cpu0->cpu0_L1I TRANSLATION  ACCESS:          0 HIT:          0 MISS:          0 MSHR_MERGE:          0
cpu0->cpu0_L1I PREFETCH REQUESTED:          0 ISSUED:          0 USEFUL:          0 USELESS:          0 LATE:          0 TOO_EARLY:          0
cpu0->cpu0_L1I AVERAGE MISS LATENCY: 212.4 cycles
cpu0->cpu0_L1D TOTAL        ACCESS:   54229345 HIT:   46765142 MISS:    7464203 MSHR_MERGE:    1812829
cpu0->cpu0_L1D LOAD         ACCESS:   17545275 HIT:   14166938 MISS:    3378337 MSHR_MERGE:     974130
cpu0->cpu0_L1D RFO          ACCESS:          0 HIT:          0 MISS:          0 MSHR_MERGE:          0
cpu0->cpu0_L1D PREFETCH     ACCESS:   21237068 HIT:   18664902 MISS:    2572166 MSHR_MERGE:      72470
cpu0->cpu0_L1D WRITE        ACCESS:   13734299 HIT:   12835034 MISS:     899265 MSHR_MERGE:     764126
cpu0->cpu0_L1D TRANSLATION  ACCESS:    1712703 HIT:    1098268 MISS:     614435 MSHR_MERGE:       2103
cpu0->cpu0_L1D PREFETCH REQUESTED:  128657800 ISSUED:   22846295 USEFUL:     432057 USELESS:       5272 LATE:      16237 TOO_EARLY:       2492
cpu0->cpu0_L1D AVERAGE MISS LATENCY: 161.4 cycles
cpu0->cpu0_ITLB TOTAL        ACCESS:    2250889 HIT:    2250881 MISS:          8 MSHR_MERGE:          1
cpu0->cpu0_ITLB LOAD         ACCESS:    2250889 HIT:    2250881 MISS:          8 MSHR_MERGE:          1
cpu0->cpu0_ITLB RFO          ACCESS:          0 HIT:          0 MISS:          0 MSHR_MERGE:          0
cpu0->cpu0_ITLB PREFETCH     ACCESS:          0 HIT:          0 MISS:          0 MSHR_MERGE:          0
cpu0->cpu0_ITLB WRITE        ACCESS:          0 HIT:          0 MISS:          0 MSHR_MERGE:          0
cpu0->cpu0_ITLB TRANSLATION  ACCESS:          0 HIT:          0 MISS:          0 MSHR_MERGE:          0
cpu0->cpu0_ITLB PREFETCH REQUESTED:          0 ISSUED:          0 USEFUL:          0 USELESS:          0 LATE:          0 TOO_EARLY:          0
cpu0->cpu0_ITLB AVERAGE MISS LATENCY: 345.7 cycles
cpu0->cpu0_DTLB TOTAL        ACCESS:   44873042 HIT:   42217595 MISS:    2655447 MSHR_MERGE:    1077126
cpu0->cpu0_DTLB LOAD         ACCESS:   44873042 HIT:   42217595 MISS:    2655447 MSHR_MERGE:    1077126
cpu0->cpu0_DTLB RFO          ACCESS:          0 HIT:          0 MISS:          0 MSHR_MERGE:          0
cpu0->cpu0_DTLB PREFETCH     ACCESS:          0 HIT:          0 MISS:          0 MSHR_MERGE:          0
cpu0->cpu0_DTLB WRITE        ACCESS:          0 HIT:          0 MISS:          0 MSHR_MERGE:          0
cpu0->cpu0_DTLB TRANSLATION  ACCESS:          0 HIT:          0 MISS:          0 MSHR_MERGE:          0
cpu0->cpu0_DTLB PREFETCH REQUESTED:          0 ISSUED:          0 USEFUL:          0 USELESS:          0 LATE:          0 TOO_EARLY:          0
cpu0->cpu0_DTLB AVERAGE MISS LATENCY: 18.38 cycles
cpu0->LLC TOTAL        ACCESS:    3941658 HIT:     794956 MISS:    3146702 MSHR_MERGE:      46513
cpu0->LLC LOAD         ACCESS:    1858313 HIT:     269211 MISS:    1589102 MSHR_MERGE:       9310
cpu0->LLC RFO          ACCESS:      88296 HIT:      13262 MISS:      75034 MSHR_MERGE:        187
cpu0->LLC PREFETCH     ACCESS:     481001 HIT:      94910 MISS:     386091 MSHR_MERGE:      37016
cpu0->LLC WRITE        ACCESS:    1486754 HIT:     409043 MISS:    1077711 MSHR_MERGE:          0
cpu0->LLC TRANSLATION  ACCESS:      27294 HIT:       8530 MISS:      18764 MSHR_MERGE:          0
cpu0->LLC PREFETCH REQUESTED:          0 ISSUED:          0 USEFUL:          0 USELESS:          0 LATE:          0 TOO_EARLY:          0
cpu0->LLC AVERAGE MISS LATENCY: 161 cycles

DRAM Statistics

Channel 0 RQ ROW_BUFFER_HIT:      42114
  ROW_BUFFER_MISS:    1980046
  AVG DBUS CONGESTED CYCLE: 6.038
Channel 0 WQ ROW_BUFFER_HIT:     395192
  ROW_BUFFER_MISS:     939258
  FULL:        462
Channel 0 REFRESHES ISSUED:      24924

[ROI Statistics]
[System Configuration]
num_cpus 1
cpu_freq 4000
fetch_width 6
decode_width 6
dispatch_width 6
execute_width 6
lq_width 2
sq_width 2
retire_width 6
scheduler_size 128
branch_mispredict_penalty 15
rob_size 352
lq_size 128
sq_size 72
ifetch_buffer_size 64
decode_buffer_size 32
dispatch_buffer_size 32
register_file_size 288
decode_latency 1
dispatch_latency 1
schedule_latency 1
execute_latency 1
page_size 4096
block_size 64
core_0_itlb_set 16
core_0_itlb_way 4
core_0_itlb_rq_size 16
core_0_itlb_wq_size 16
core_0_itlb_pq_size 0
core_0_itlb_mshr_size 8
core_0_itlb_hit_latency 1
core_0_itlb_fill_latency 1
core_0_itlb_max_tag_check 2
core_0_itlb_max_fill 2
core_0_dtlb_set 16
core_0_dtlb_way 4
core_0_dtlb_rq_size 16
core_0_dtlb_wq_size 16
core_0_dtlb_pq_size 0
core_0_dtlb_mshr_size 8
core_0_dtlb_hit_latency 1
core_0_dtlb_fill_latency 1
core_0_dtlb_max_tag_check 2
core_0_dtlb_max_fill 2
core_0_stlb_set 128
core_0_stlb_way 12
core_0_stlb_rq_size 32
core_0_stlb_wq_size 32
core_0_stlb_pq_size 0
core_0_stlb_mshr_size 16
core_0_stlb_hit_latency 4
core_0_stlb_fill_latency 4
core_0_stlb_max_tag_check 1
core_0_stlb_max_fill 1
core_0_l1i_set 64
core_0_l1i_way 8
core_0_l1i_rq_size 64
core_0_l1i_wq_size 64
core_0_l1i_pq_size 32
core_0_l1i_mshr_size 8
core_0_l1i_hit_latency 2
core_0_l1i_fill_latency 2
core_0_l1i_max_tag_check 2
core_0_l1i_max_fill 2
core_0_l1d_set 64
core_0_l1d_way 12
core_0_l1d_rq_size 64
core_0_l1d_wq_size 64
core_0_l1d_pq_size 8
core_0_l1d_mshr_size 16
core_0_l1d_hit_latency 2
core_0_l1d_fill_latency 3
core_0_l1d_max_tag_check 2
core_0_l1d_max_fill 2
core_0_l2c_set 1024
core_0_l2c_way 8
core_0_l2c_rq_size 32
core_0_l2c_wq_size 32
core_0_l2c_pq_size 16
core_0_l2c_mshr_size 32
core_0_l2c_hit_latency 5
core_0_l2c_fill_latency 5
core_0_l2c_max_tag_check 1
core_0_l2c_max_fill 1
llc_set 2048
llc_way 16
llc_rq_size 32
llc_wq_size 32
llc_pq_size 32
llc_mshr_size 64
llc_hit_latency 10
llc_fill_latency 10
llc_max_tag_check 1
llc_max_fill 1
dram_channels 1
dram_ranks 1
dram_bankgroups 8
dram_banks 4
dram_rows 65536
dram_columns 1024
dram_channel_width 8
dram_rq_size 64
dram_wq_size 64
dram_size 17179869184
core_0_itlb_prefetcher no
core_0_dtlb_prefetcher no
core_0_stlb_prefetcher no
core_0_l1i_prefetcher next_line
core_0_l1d_prefetcher vberti
core_0_l2c_prefetcher ip_stride
llc_prefetcher no
llc_replacement drrip

Core_0_instructions 100000005
Core_0_cycles 299084263
Core_0_IPC 0.334354
Core_0_branch_prediction_accuracy 93.3246
Core_0_branch_MPKI 15.8632
Core_0_average_ROB_occupancy_at_mispredict 43.8479

Core_0_ITLB_total_access 2250889
Core_0_ITLB_total_hit 2250881
Core_0_ITLB_total_miss 8
Core_0_ITLB_total_MPKI 8e-05
Core_0_ITLB_total_miss_rate 3.55415e-06
Core_0_ITLB_demand_access 2250889
Core_0_ITLB_demand_hit 2250881
Core_0_ITLB_demand_miss 8
Core_0_ITLB_demand_MPKI 8e-05
Core_0_ITLB_demand_miss_rate 3.55415e-06
Core_0_ITLB_load_access 2250889
Core_0_ITLB_load_hit 2250881
Core_0_ITLB_load_miss 8
Core_0_ITLB_load_MPKI 8e-05
Core_0_ITLB_load_miss_rate 3.55415e-06
Core_0_ITLB_rfo_access 0
Core_0_ITLB_rfo_hit 0
Core_0_ITLB_rfo_miss 0
Core_0_ITLB_rfo_MPKI 0
Core_0_ITLB_rfo_miss_rate 0
Core_0_ITLB_prefetch_access 0
Core_0_ITLB_prefetch_hit 0
Core_0_ITLB_prefetch_miss 0
Core_0_ITLB_prefetch_MPKI 0
Core_0_ITLB_prefetch_miss_rate 0
Core_0_ITLB_writeback_access 0
Core_0_ITLB_writeback_hit 0
Core_0_ITLB_writeback_miss 0
Core_0_ITLB_writeback_MPKI 0
Core_0_ITLB_writeback_miss_rate 0
Core_0_ITLB_prefetch_requested 0
Core_0_ITLB_prefetch_issued 0
Core_0_ITLB_prefetch_useful 0
Core_0_ITLB_prefetch_useless 0
Core_0_ITLB_prefetch_late 0
Core_0_ITLB_prefetch_fill 0
Core_0_ITLB_prefetch_too_early 0
Core_0_ITLB_prefetch_too_early_among_fill 0
Core_0_ITLB_prefetch_too_early_among_useless 0
Core_0_ITLB_prefetch_pollution_evict 0
Core_0_ITLB_prefetch_pollution_demand 0
Core_0_ITLB_prefetch_pollution_among_prefetch_fill 0
Core_0_ITLB_prefetch_accuracy 0
Core_0_ITLB_prefetch_coverage 0

Core_0_DTLB_total_access 44873042
Core_0_DTLB_total_hit 42217595
Core_0_DTLB_total_miss 2655447
Core_0_DTLB_total_MPKI 26.5545
Core_0_DTLB_total_miss_rate 0.0591769
Core_0_DTLB_demand_access 44873042
Core_0_DTLB_demand_hit 42217595
Core_0_DTLB_demand_miss 2655447
Core_0_DTLB_demand_MPKI 26.5545
Core_0_DTLB_demand_miss_rate 0.0591769
Core_0_DTLB_load_access 44873042
Core_0_DTLB_load_hit 42217595
Core_0_DTLB_load_miss 2655447
Core_0_DTLB_load_MPKI 26.5545
Core_0_DTLB_load_miss_rate 0.0591769
Core_0_DTLB_rfo_access 0
Core_0_DTLB_rfo_hit 0
Core_0_DTLB_rfo_miss 0
Core_0_DTLB_rfo_MPKI 0
Core_0_DTLB_rfo_miss_rate 0
Core_0_DTLB_prefetch_access 0
Core_0_DTLB_prefetch_hit 0
Core_0_DTLB_prefetch_miss 0
Core_0_DTLB_prefetch_MPKI 0
Core_0_DTLB_prefetch_miss_rate 0
Core_0_DTLB_writeback_access 0
Core_0_DTLB_writeback_hit 0
Core_0_DTLB_writeback_miss 0
Core_0_DTLB_writeback_MPKI 0
Core_0_DTLB_writeback_miss_rate 0
Core_0_DTLB_prefetch_requested 0
Core_0_DTLB_prefetch_issued 0
Core_0_DTLB_prefetch_useful 0
Core_0_DTLB_prefetch_useless 0
Core_0_DTLB_prefetch_late 0
Core_0_DTLB_prefetch_fill 0
Core_0_DTLB_prefetch_too_early 0
Core_0_DTLB_prefetch_too_early_among_fill 0
Core_0_DTLB_prefetch_too_early_among_useless 0
Core_0_DTLB_prefetch_pollution_evict 0
Core_0_DTLB_prefetch_pollution_demand 0
Core_0_DTLB_prefetch_pollution_among_prefetch_fill 0
Core_0_DTLB_prefetch_accuracy 0
Core_0_DTLB_prefetch_coverage 0

Core_0_STLB_total_access 1578328
Core_0_STLB_total_hit 720666
Core_0_STLB_total_miss 857662
Core_0_STLB_total_MPKI 8.57662
Core_0_STLB_total_miss_rate 0.543399
Core_0_STLB_demand_access 1578328
Core_0_STLB_demand_hit 720666
Core_0_STLB_demand_miss 857662
Core_0_STLB_demand_MPKI 8.57662
Core_0_STLB_demand_miss_rate 0.543399
Core_0_STLB_load_access 1578328
Core_0_STLB_load_hit 720666
Core_0_STLB_load_miss 857662
Core_0_STLB_load_MPKI 8.57662
Core_0_STLB_load_miss_rate 0.543399
Core_0_STLB_rfo_access 0
Core_0_STLB_rfo_hit 0
Core_0_STLB_rfo_miss 0
Core_0_STLB_rfo_MPKI 0
Core_0_STLB_rfo_miss_rate 0
Core_0_STLB_prefetch_access 0
Core_0_STLB_prefetch_hit 0
Core_0_STLB_prefetch_miss 0
Core_0_STLB_prefetch_MPKI 0
Core_0_STLB_prefetch_miss_rate 0
Core_0_STLB_writeback_access 0
Core_0_STLB_writeback_hit 0
Core_0_STLB_writeback_miss 0
Core_0_STLB_writeback_MPKI 0
Core_0_STLB_writeback_miss_rate 0
Core_0_STLB_prefetch_requested 0
Core_0_STLB_prefetch_issued 0
Core_0_STLB_prefetch_useful 0
Core_0_STLB_prefetch_useless 0
Core_0_STLB_prefetch_late 0
Core_0_STLB_prefetch_fill 0
Core_0_STLB_prefetch_too_early 0
Core_0_STLB_prefetch_too_early_among_fill 0
Core_0_STLB_prefetch_too_early_among_useless 0
Core_0_STLB_prefetch_pollution_evict 0
Core_0_STLB_prefetch_pollution_demand 0
Core_0_STLB_prefetch_pollution_among_prefetch_fill 0
Core_0_STLB_prefetch_accuracy 0
Core_0_STLB_prefetch_coverage 0

Core_0_L1I_total_access 2622575
Core_0_L1I_total_hit 2622517
Core_0_L1I_total_miss 58
Core_0_L1I_total_MPKI 0.00058
Core_0_L1I_total_miss_rate 2.21157e-05
Core_0_L1I_demand_access 2622575
Core_0_L1I_demand_hit 2622517
Core_0_L1I_demand_miss 58
Core_0_L1I_demand_MPKI 0.00058
Core_0_L1I_demand_miss_rate 2.21157e-05
Core_0_L1I_load_access 2622575
Core_0_L1I_load_hit 2622517
Core_0_L1I_load_miss 58
Core_0_L1I_load_MPKI 0.00058
Core_0_L1I_load_miss_rate 2.21157e-05
Core_0_L1I_rfo_access 0
Core_0_L1I_rfo_hit 0
Core_0_L1I_rfo_miss 0
Core_0_L1I_rfo_MPKI 0
Core_0_L1I_rfo_miss_rate 0
Core_0_L1I_prefetch_access 0
Core_0_L1I_prefetch_hit 0
Core_0_L1I_prefetch_miss 0
Core_0_L1I_prefetch_MPKI 0
Core_0_L1I_prefetch_miss_rate 0
Core_0_L1I_writeback_access 0
Core_0_L1I_writeback_hit 0
Core_0_L1I_writeback_miss 0
Core_0_L1I_writeback_MPKI 0
Core_0_L1I_writeback_miss_rate 0
Core_0_L1I_prefetch_requested 0
Core_0_L1I_prefetch_issued 0
Core_0_L1I_prefetch_useful 0
Core_0_L1I_prefetch_useless 0
Core_0_L1I_prefetch_late 0
Core_0_L1I_prefetch_fill 0
Core_0_L1I_prefetch_too_early 0
Core_0_L1I_prefetch_too_early_among_fill 0
Core_0_L1I_prefetch_too_early_among_useless 0
Core_0_L1I_prefetch_pollution_evict 0
Core_0_L1I_prefetch_pollution_demand 0
Core_0_L1I_prefetch_pollution_among_prefetch_fill 0
Core_0_L1I_prefetch_accuracy 0
Core_0_L1I_prefetch_coverage 0

Core_0_L1D_total_access 52516642
Core_0_L1D_total_hit 45666874
Core_0_L1D_total_miss 6849768
Core_0_L1D_total_MPKI 68.4977
Core_0_L1D_total_miss_rate 0.13043
Core_0_L1D_demand_access 17545275
Core_0_L1D_demand_hit 14166938
Core_0_L1D_demand_miss 3378337
Core_0_L1D_demand_MPKI 33.7834
Core_0_L1D_demand_miss_rate 0.19255
Core_0_L1D_load_access 17545275
Core_0_L1D_load_hit 14166938
Core_0_L1D_load_miss 3378337
Core_0_L1D_load_MPKI 33.7834
Core_0_L1D_load_miss_rate 0.19255
Core_0_L1D_rfo_access 0
Core_0_L1D_rfo_hit 0
Core_0_L1D_rfo_miss 0
Core_0_L1D_rfo_MPKI 0
Core_0_L1D_rfo_miss_rate 0
Core_0_L1D_prefetch_access 21237068
Core_0_L1D_prefetch_hit 18664902
Core_0_L1D_prefetch_miss 2572166
Core_0_L1D_prefetch_MPKI 25.7217
Core_0_L1D_prefetch_miss_rate 0.121117
Core_0_L1D_writeback_access 13734299
Core_0_L1D_writeback_hit 12835034
Core_0_L1D_writeback_miss 899265
Core_0_L1D_writeback_MPKI 8.99265
Core_0_L1D_writeback_miss_rate 0.0654759
Core_0_L1D_prefetch_requested 128657800
Core_0_L1D_prefetch_issued 22846295
Core_0_L1D_prefetch_useful 432057
Core_0_L1D_prefetch_useless 5272
Core_0_L1D_prefetch_late 16237
Core_0_L1D_prefetch_fill 421105
Core_0_L1D_prefetch_too_early 2492
Core_0_L1D_prefetch_too_early_among_fill 0.00591776
Core_0_L1D_prefetch_too_early_among_useless 0.472686
Core_0_L1D_prefetch_pollution_evict 68656
Core_0_L1D_prefetch_pollution_demand 68287
Core_0_L1D_cross_page_pf_translation_only_requested 16116259
Core_0_L1D_cross_page_pf_translation_only_issued 1609227
Core_0_L1D_cross_page_pf_translation_only_dropped 1609227
Core_0_L1D_prefetch_pollution_among_prefetch_fill 0.163038
Core_0_L1D_prefetch_accuracy 0.0189115
Core_0_L1D_prefetch_coverage 0.113389

Core_0_L2C_total_access 7711490
Core_0_L2C_total_hit 5016068
Core_0_L2C_total_miss 2695422
Core_0_L2C_total_MPKI 26.9542
Core_0_L2C_total_miss_rate 0.349533
Core_0_L2C_demand_access 2539397
Core_0_L2C_demand_hit 542068
Core_0_L2C_demand_miss 1997329
Core_0_L2C_demand_MPKI 19.9733
Core_0_L2C_demand_miss_rate 0.786537
Core_0_L2C_load_access 2404258
Core_0_L2C_load_hit 500642
Core_0_L2C_load_miss 1903616
Core_0_L2C_load_MPKI 19.0362
Core_0_L2C_load_miss_rate 0.791769
Core_0_L2C_rfo_access 135139
Core_0_L2C_rfo_hit 41426
Core_0_L2C_rfo_miss 93713
Core_0_L2C_rfo_MPKI 0.93713
Core_0_L2C_rfo_miss_rate 0.693456
Core_0_L2C_prefetch_access 3559305
Core_0_L2C_prefetch_hit 2861238
Core_0_L2C_prefetch_miss 698067
Core_0_L2C_prefetch_MPKI 6.98067
Core_0_L2C_prefetch_miss_rate 0.196125
Core_0_L2C_writeback_access 1612788
Core_0_L2C_writeback_hit 1612762
Core_0_L2C_writeback_miss 26
Core_0_L2C_writeback_MPKI 0.00026
Core_0_L2C_writeback_miss_rate 1.61212e-05
Core_0_L2C_prefetch_requested 1096685
Core_0_L2C_prefetch_issued 1074938
Core_0_L2C_prefetch_useful 158761
Core_0_L2C_prefetch_useless 7035
Core_0_L2C_prefetch_late 41830
Core_0_L2C_prefetch_fill 370518
Core_0_L2C_prefetch_too_early 5342
Core_0_L2C_prefetch_too_early_among_fill 0.0144177
Core_0_L2C_prefetch_too_early_among_useless 0.759346
Core_0_L2C_prefetch_pollution_evict 82617
Core_0_L2C_prefetch_pollution_demand 81909
Core_0_L2C_prefetch_pollution_among_prefetch_fill 0.222977
Core_0_L2C_prefetch_accuracy 0.147693
Core_0_L2C_prefetch_coverage 0.0736338

Core_0_LLC_total_access 3914364
Core_0_LLC_total_hit 786426
Core_0_LLC_total_miss 3127938
Core_0_LLC_total_MPKI 31.2794
Core_0_LLC_total_miss_rate 0.799092
Core_0_LLC_demand_access 1946609
Core_0_LLC_demand_hit 282473
Core_0_LLC_demand_miss 1664136
Core_0_LLC_demand_MPKI 16.6414
Core_0_LLC_demand_miss_rate 0.85489
Core_0_LLC_load_access 1858313
Core_0_LLC_load_hit 269211
Core_0_LLC_load_miss 1589102
Core_0_LLC_load_MPKI 15.891
Core_0_LLC_load_miss_rate 0.855132
Core_0_LLC_rfo_access 88296
Core_0_LLC_rfo_hit 13262
Core_0_LLC_rfo_miss 75034
Core_0_LLC_rfo_MPKI 0.75034
Core_0_LLC_rfo_miss_rate 0.849801
Core_0_LLC_prefetch_access 481001
Core_0_LLC_prefetch_hit 94910
Core_0_LLC_prefetch_miss 386091
Core_0_LLC_prefetch_MPKI 3.86091
Core_0_LLC_prefetch_miss_rate 0.802682
Core_0_LLC_writeback_access 1486754
Core_0_LLC_writeback_hit 409043
Core_0_LLC_writeback_miss 1077711
Core_0_LLC_writeback_MPKI 10.7771
Core_0_LLC_writeback_miss_rate 0.724875
Core_0_LLC_prefetch_requested 0
Core_0_LLC_prefetch_issued 0
Core_0_LLC_prefetch_useful 0
Core_0_LLC_prefetch_useless 0
Core_0_LLC_prefetch_late 0
Core_0_LLC_prefetch_fill 339577
Core_0_LLC_prefetch_too_early 0
Core_0_LLC_prefetch_too_early_among_fill 0
Core_0_LLC_prefetch_too_early_among_useless 0
Core_0_LLC_prefetch_pollution_evict 96664
Core_0_LLC_prefetch_pollution_demand 96664
Core_0_LLC_prefetch_pollution_among_prefetch_fill 0.28466
Core_0_LLC_prefetch_accuracy 0
Core_0_LLC_prefetch_coverage 0

[DRAM Statistics]
Channel_0_RQ_row_buffer_hit 42114
Channel_0_RQ_row_buffer_miss 1980046
Channel_0_WQ_row_buffer_hit 395192
Channel_0_WQ_row_buffer_miss 939258
Channel_0_WQ_full 462
Channel_0_dbus_congested 11623038
DRAM_total_RQ_row_buffer_hit 42114
DRAM_total_RQ_row_buffer_miss 1980046
DRAM_total_WQ_row_buffer_hit 395192
DRAM_total_WQ_row_buffer_miss 939258
DRAM_total_WQ_full 462
DRAM_total_dbus_congested 11623038
DRAM_avg_congested_cycle 6.03766

====== DRAM_RQ_TRAFFIC ========
DRAM_RQ_READ_TRAFFIC_BREAKDOWN:
data_demand_read.count = 1654589
data_demand_read.share = 81.81%

inst_demand_read.count = 50
inst_demand_read.share = 0.00%

cache_inst_prefetch.count = 0
cache_inst_prefetch.share = 0.00%

cache_data_prefetch.count = 349075
cache_data_prefetch.share = 17.26%

stlb_data_demand.count = 18127
stlb_data_demand.share = 0.90%

stlb_inst_demand.count = 4
stlb_inst_demand.share = 0.00%

stlb_l1i_pref.count = 0
stlb_l1i_pref.share = 0.00%

stlb_l1d_pref.count = 633
stlb_l1d_pref.share = 0.03%

DRAM_RQ_READ_TRAFFIC_SUMMARY:
cache_demand.count = 1654639
cache_demand.share = 81.81%

cache_prefetch.count = 349075
cache_prefetch.share = 17.26%

stlb_demand.count = 18131
stlb_demand.share = 0.90%

stlb_prefetch.count = 633
stlb_prefetch.share = 0.03%

DRAM_RQ_READ_TRAFFIC_DEBUG:
total_classified_read.count = 2022478
unclassified_read.count = 0
total_read_with_other.count = 2022478

classified_plus_unclassified_check.count = 2022478
dram_rq_read_total_observed.count = 2022478
dram_rq_read_total_observed.per_1K_instructions = 20.2248

STLB_MISS_PTW_DRAM_TOUCH_BREAKDOWN:
stlb_miss_total.count = 857662

stlb_miss_touch_dram.count = 18760
stlb_miss_touch_dram.share = 2.19%

stlb_miss_no_dram_touch.count = 838902
stlb_miss_no_dram_touch.share = 97.81%

STLB_MISS_PTW_DRAM_TOUCH_DEBUG:
stlb_miss_touch_plus_no_touch.count = 857662
stlb_miss_total_check.count = 857662

======STLB miss causes ========
Core_0_STLB_miss_cause_breakdown
Core_0_STLB_cause_Demand_Data_miss 852911
Core_0_STLB_cause_Demand_Data_miss_rate 0.540389
Core_0_STLB_cause_Demand_Instruction_miss 7
Core_0_STLB_cause_Demand_Instruction_miss_rate 4.43507e-06
Core_0_STLB_cause_L1D_Prefetch_miss 4744
Core_0_STLB_cause_L1D_Prefetch_miss_rate 0.00300571
Core_0_STLB_cause_L1D_Prefetch_Same_Page_miss 1
Core_0_STLB_cause_L1D_Prefetch_Same_Page_miss_rate 6.33582e-07
Core_0_STLB_cause_L1D_Prefetch_Cross_Page_miss 4743
Core_0_STLB_cause_L1D_Prefetch_Cross_Page_miss_rate 0.00300508
Core_0_STLB_cause_L1I_Prefetch_miss 0
Core_0_STLB_cause_L1I_Prefetch_miss_rate 0
Core_0_STLB_cause_Other_miss 0
Core_0_STLB_cause_Other_miss_rate 0
Core_0_STLB_Demand_miss 852918
Core_0_STLB_Demand_miss_rate 0.540393
Core_0_STLB_L1D_Prefetch_miss 4744
Core_0_STLB_L1D_Prefetch_miss_rate 0.00300571
Core_0_STLB_Other_miss 0
Core_0_STLB_Other_miss_rate 0

========== vBerti-TLB Cross-page Flow Stats ==========

Core_0_vBerti_Requested 128657800
Core_0_vBerti_Cross_page_prefetch_in_Requested 16116259
Core_0_vBerti_Same_page_prefetch_in_Requested 112541541
Core_0_vBerti_Cross_page_prefetch_of_Requested 0.125265
Core_0_vBerti_Issued 22846295
Core_0_vBerti_InPQ_Same_page_prefetch 21237068
Core_0_vBerti_InPQ_Cross_page_prefetch 1609227
Core_0_vBerti_PQ_Drop_Rate 0.822426
Core_0_vBerti_InPQ_Cross_page_prefetch_of_Requested 0.0125078
Core_0_vBerti_Cross_page_PQ_Drop_rate 0.900149
Core_0_vBerti_Cross_page_prefetch_of_Issued 0.0704371
Core_0_CP_PF_PQFULL_drop 14507032
Core_0_CP_PF_PQFULL_TLB_rescue_enqueued 0
Core_0_CP_PF_PQFULL_TLB_rescue_issued 0
Core_0_CP_PF_PQFULL_TLB_rescue_translated 0

========= DTLB_vBerti Prefetch Stats =========
Core_0_DTLB_demand_access 29541531
Core_0_DTLB_demand_hit 26902202
Core_0_DTLB_demand_miss 2639329
Core_0_DTLB_demand_mshr_merge 1068971
Core_0_DTLB_demand_fill 1570530
Core_0_DTLB_demand_miss_rate 0.089343
Core_0_DTLB_demand_mpki 26.3933
Core_0_DTLB_vberti_prefetch_access 15331511
Core_0_DTLB_vberti_prefetch_hit 15315393
Core_0_DTLB_vberti_prefetch_miss 16118
Core_0_DTLB_vberti_prefetch_mshr_merge 8155
Core_0_DTLB_vberti_prefetch_fill 7792
Core_0_DTLB_vberti_prefetch_miss_rate 0.0010513
Core_0_DTLB_vberti_prefetch_mpki 0.16118

=== DTLB_vBerti Same/Cross-page Prefetch Stats ===
Core_0_DTLB_vberti_same_page_prefetch 14210466
Core_0_DTLB_vberti_same_page_prefetch_hit 14210420
Core_0_DTLB_vberti_same_page_prefetch_miss 46
Core_0_DTLB_vberti_same_page_prefetch_mshr_merge 9
Core_0_DTLB_vberti_same_page_prefetch_fill 36
Core_0_DTLB_vberti_same_page_prefetch_miss_rate 3.23705e-06
Core_0_DTLB_vberti_same_page_prefetch_mpki 0.00046
Core_0_DTLB_vberti_cross_page_prefetch 1121045
Core_0_DTLB_vberti_cross_page_prefetch_hit 1104973
Core_0_DTLB_vberti_cross_page_prefetch_miss 16072
Core_0_DTLB_vberti_cross_page_prefetch_mshr_merge 8146
Core_0_DTLB_vberti_cross_page_prefetch_fill 7756
Core_0_DTLB_vberti_cross_page_prefetch_miss_rate 0.0143366
Core_0_DTLB_vberti_cross_page_prefetch_mpki 0.16072
Core_0_DTLB_same_page_prefetch_miss_rate 3.23705e-06
Core_0_DTLB_same_page_prefetch_mpki 0.00046
Core_0_DTLB_cross_page_prefetch_miss_rate 0.0143366
Core_0_DTLB_cross_page_prefetch_mpki 0.16072
Core_0_DTLB_cross_page_prefetch_issued 1121045
Core_0_DTLB_cross_page_prefetch_lookups 1121045
Core_0_DTLB_cross_page_prefetch_useful 7678
Core_0_DTLB_cross_page_prefetch_useless 248
Core_0_DTLB_cross_page_prefetch_late 170
Core_0_DTLB_cross_page_prefetch_too_early 13
Core_0_DTLB_cross_page_prefetch_too_early_among_fill 0.00167612
Core_0_DTLB_cross_page_prefetch_too_early_among_useless 0.0524194
Core_0_DTLB_cross_page_prefetch_pollution_evict 3984
Core_0_DTLB_cross_page_prefetch_pollution_demand 3258
Core_0_DTLB_cross_page_prefetch_pollution_among_prefetch_fill 0.513667
Core_0_DTLB_cross_page_prefetch_accuracy 0.00684897
Core_0_DTLB_cross_page_prefetch_coverage 0.00290063

========= STLB_vBerti Prefetch Stats =========
Core_0_STLB_demand_access 1570365
Core_0_STLB_demand_hit 717447
Core_0_STLB_demand_miss 852918
Core_0_STLB_demand_mshr_merge 0
Core_0_STLB_demand_fill 852919
Core_0_STLB_demand_miss_rate 0.543134
Core_0_STLB_demand_mpki 8.52918
Core_0_STLB_vberti_prefetch_access 7963
Core_0_STLB_vberti_prefetch_hit 3219
Core_0_STLB_vberti_prefetch_miss 4744
Core_0_STLB_vberti_prefetch_mshr_merge 0
Core_0_STLB_vberti_prefetch_fill 4744
Core_0_STLB_vberti_prefetch_miss_rate 0.595755
Core_0_STLB_vberti_prefetch_mpki 0.04744

=== STLB_vBerti Same/Cross-page Prefetch Stats ===
Core_0_STLB_vberti_same_page_prefetch 37
Core_0_STLB_vberti_same_page_prefetch_hit 36
Core_0_STLB_vberti_same_page_prefetch_miss 1
Core_0_STLB_vberti_same_page_prefetch_mshr_merge 0
Core_0_STLB_vberti_same_page_prefetch_fill 1
Core_0_STLB_vberti_same_page_prefetch_miss_rate 0.027027
Core_0_STLB_vberti_same_page_prefetch_mpki 1e-05
Core_0_STLB_vberti_cross_page_prefetch 7926
Core_0_STLB_vberti_cross_page_prefetch_hit 3183
Core_0_STLB_vberti_cross_page_prefetch_miss 4743
Core_0_STLB_vberti_cross_page_prefetch_mshr_merge 0
Core_0_STLB_vberti_cross_page_prefetch_fill 4743
Core_0_STLB_vberti_cross_page_prefetch_miss_rate 0.59841
Core_0_STLB_vberti_cross_page_prefetch_mpki 0.04743
Core_0_STLB_same_page_prefetch_miss_rate 0.027027
Core_0_STLB_same_page_prefetch_mpki 1e-05
Core_0_STLB_cross_page_prefetch_miss_rate 0.59841
Core_0_STLB_cross_page_prefetch_mpki 0.04743
Core_0_STLB_cross_page_prefetch_issued 7926
Core_0_STLB_cross_page_prefetch_lookups 7926
Core_0_STLB_cross_page_prefetch_useful 2193
Core_0_STLB_cross_page_prefetch_useless 2550
Core_0_STLB_cross_page_prefetch_late 0
Core_0_STLB_cross_page_prefetch_too_early 892
Core_0_STLB_cross_page_prefetch_too_early_among_fill 0.188067
Core_0_STLB_cross_page_prefetch_too_early_among_useless 0.349804
Core_0_STLB_cross_page_prefetch_pollution_evict 2669
Core_0_STLB_cross_page_prefetch_pollution_demand 2467
Core_0_STLB_cross_page_prefetch_pollution_among_prefetch_fill 0.562724
Core_0_STLB_cross_page_prefetch_accuracy 0.276684
Core_0_STLB_cross_page_prefetch_coverage 0.00256458

========= STLB Cross-page Prefetch Buffer Stats =========
Core_0_STLB_raw_demand_miss 852911
Core_0_CP_PB_insert 0
Core_0_CP_PB_demand_hit 0
Core_0_STLB_PB_demand_miss 852911
Core_0_CP_PB_coverage 0
Core_0_STLB_raw_demand_mpki 8.52911
Core_0_STLB_PB_demand_mpki 8.52911
Core_0_CP_PB_demand_hit_mpki 0

Core_0_TLB_demand_miss_rate 0.0288718
Core_0_TLB_demand_mpki 8.52918
Core_0_TLB_same_page_prefetch_miss_rate 7.03707e-08
Core_0_TLB_same_page_prefetch_mpki 1e-05
Core_0_TLB_cross_page_prefetch_miss_rate 0.00423087
Core_0_TLB_cross_page_prefetch_mpki 0.04743
Core_0_TLB_cross_page_prefetch_issued 1121045
Core_0_TLB_cross_page_prefetch_lookups 1121045
Core_0_TLB_cross_page_prefetch_useful 4817
Core_0_TLB_cross_page_prefetch_useless 116
Core_0_TLB_cross_page_prefetch_late 131
Core_0_TLB_cross_page_prefetch_too_early 12
Core_0_TLB_cross_page_prefetch_too_early_among_fill 0.000960077
Core_0_TLB_cross_page_prefetch_too_early_among_useless 0.103448
Core_0_TLB_cross_page_prefetch_accuracy 0.00429688
Core_0_TLB_cross_page_prefetch_coverage 0.00561595
====== vBerti internal metric ========
Core_0_vBerti_end_to_end_issued 21237068
Core_0_vBerti_end_to_end_useful 160283
Core_0_vBerti_end_to_end_late 13532
Core_0_vBerti_end_to_end_accuracy 0.00754732
Core_0_vBerti_end_to_end_timely_accuracy 0.00691013
BERTI TO_L1: 41944548 TO_L2: 70596993 TO_L2_BC_MSHR: 29072732
BERTI AVG_LAT: 183.758 NUM_TRACK_LATENCY: 2968142 NUM_CANT_TRACK_LATENCY: 8
BERTI CROSS_PAGE 16116259 NO_CROSS_PAGE: 112541541
BERTI FOUND_BERTI: 21881780 NO_FOUND_BERTI: 13192331
BERTI AVERAGE_ISSUED: 2.99619
