[VMEM] WARNING: physical memory size is smaller than virtual memory size.

*** ChampSim Multicore Out-of-Order Simulator ***
Warmup Instructions: 50000000
Simulation Instructions: 100000000
Number of CPUs: 1
Page size: 4096
Core 0: /data0/tzh/champsim_traces/SPEC06/433.milc-274B.champsimtrace.xz
Off-chip DRAM Size: 16 GiB Channels: 1 Width: 64-bit Data Rate: 3205 MT/s
Warmup halting CPU 0 at instruction 50000001 cycle 17556964 for remainder of phase
Warmup finished CPU 0 instructions: 50000001 cycles: 17556964 cumulative IPC: 2.848 (Simulation time: 00 hr 05 min 00 sec)
Warmup complete CPU 0 instructions: 50000001 cycles: 17556964 cumulative IPC: 2.848 (Simulation time: 00 hr 05 min 00 sec)
Simulation finished CPU 0 instructions: 100000001 cycles: 113186721 cumulative IPC: 0.8835 (Simulation time: 00 hr 25 min 20 sec)
Simulation complete CPU 0 instructions: 100000001 cycles: 113186721 cumulative IPC: 0.8835 (Simulation time: 00 hr 25 min 20 sec)

ChampSim completed all CPUs

=== Simulation ===
CPU 0 runs /data0/tzh/champsim_traces/SPEC06/433.milc-274B.champsimtrace.xz

Region of Interest Statistics

CPU 0 cumulative IPC: 0.8835 instructions: 100000001 cycles: 113186721
CPU 0 Branch Prediction Accuracy: 99.34% MPKI: 0.1931 Average ROB Occupancy at Mispredict: 229.7
Branch type MPKI
BRANCH_DIRECT_JUMP: 7e-05
BRANCH_INDIRECT: 0
BRANCH_CONDITIONAL: 0.09661
BRANCH_DIRECT_CALL: 9e-05
BRANCH_INDIRECT_CALL: 0
BRANCH_RETURN: 0.09631

cpu0->cpu0_STLB TOTAL        ACCESS:     125521 HIT:       4625 MISS:     120896 MSHR_MERGE:          0
cpu0->cpu0_STLB LOAD         ACCESS:     125521 HIT:       4625 MISS:     120896 MSHR_MERGE:          0
cpu0->cpu0_STLB RFO          ACCESS:          0 HIT:          0 MISS:          0 MSHR_MERGE:          0
cpu0->cpu0_STLB PREFETCH     ACCESS:          0 HIT:          0 MISS:          0 MSHR_MERGE:          0
cpu0->cpu0_STLB WRITE        ACCESS:          0 HIT:          0 MISS:          0 MSHR_MERGE:          0
cpu0->cpu0_STLB TRANSLATION  ACCESS:          0 HIT:          0 MISS:          0 MSHR_MERGE:          0
cpu0->cpu0_STLB PREFETCH REQUESTED:          0 ISSUED:          0 USEFUL:          0 USELESS:          0 LATE:          0
cpu0->cpu0_STLB AVERAGE MISS LATENCY: 112.4 cycles
cpu0->cpu0_L2C TOTAL        ACCESS:    2293702 HIT:     634488 MISS:    1659214 MSHR_MERGE:          0
cpu0->cpu0_L2C LOAD         ACCESS:    1039208 HIT:          0 MISS:    1039208 MSHR_MERGE:          0
cpu0->cpu0_L2C RFO          ACCESS:     604707 HIT:          0 MISS:     604707 MSHR_MERGE:          0
cpu0->cpu0_L2C PREFETCH     ACCESS:          0 HIT:          0 MISS:          0 MSHR_MERGE:          0
cpu0->cpu0_L2C WRITE        ACCESS:     633576 HIT:     633570 MISS:          6 MSHR_MERGE:          0
cpu0->cpu0_L2C TRANSLATION  ACCESS:      16211 HIT:        918 MISS:      15293 MSHR_MERGE:          0
cpu0->cpu0_L2C PREFETCH REQUESTED:          0 ISSUED:          0 USEFUL:          0 USELESS:          0 LATE:          0
cpu0->cpu0_L2C AVERAGE MISS LATENCY: 337.1 cycles
cpu0->cpu0_L1I TOTAL        ACCESS:   16269026 HIT:   16268962 MISS:         64 MSHR_MERGE:         14
cpu0->cpu0_L1I LOAD         ACCESS:   16269026 HIT:   16268962 MISS:         64 MSHR_MERGE:         14
cpu0->cpu0_L1I RFO          ACCESS:          0 HIT:          0 MISS:          0 MSHR_MERGE:          0
cpu0->cpu0_L1I PREFETCH     ACCESS:          0 HIT:          0 MISS:          0 MSHR_MERGE:          0
cpu0->cpu0_L1I WRITE        ACCESS:          0 HIT:          0 MISS:          0 MSHR_MERGE:          0
cpu0->cpu0_L1I TRANSLATION  ACCESS:          0 HIT:          0 MISS:          0 MSHR_MERGE:          0
cpu0->cpu0_L1I PREFETCH REQUESTED:          0 ISSUED:          0 USEFUL:          0 USELESS:          0 LATE:          0
cpu0->cpu0_L1I AVERAGE MISS LATENCY: 280.5 cycles
cpu0->cpu0_L1D TOTAL        ACCESS:   20881951 HIT:   11116567 MISS:    9765384 MSHR_MERGE:    8105308
cpu0->cpu0_L1D LOAD         ACCESS:   13256555 HIT:    8036354 MISS:    5220201 MSHR_MERGE:    4181043
cpu0->cpu0_L1D RFO          ACCESS:          0 HIT:          0 MISS:          0 MSHR_MERGE:          0
cpu0->cpu0_L1D PREFETCH     ACCESS:          0 HIT:          0 MISS:          0 MSHR_MERGE:          0
cpu0->cpu0_L1D WRITE        ACCESS:    7383363 HIT:    2854391 MISS:    4528972 MSHR_MERGE:    3924265
cpu0->cpu0_L1D TRANSLATION  ACCESS:     242033 HIT:     225822 MISS:      16211 MSHR_MERGE:          0
cpu0->cpu0_L1D PREFETCH REQUESTED:          0 ISSUED:          0 USEFUL:          0 USELESS:          0 LATE:          0
cpu0->cpu0_L1D AVERAGE MISS LATENCY: 346.1 cycles
cpu0->cpu0_ITLB TOTAL        ACCESS:   13549431 HIT:   13549424 MISS:          7 MSHR_MERGE:          2
cpu0->cpu0_ITLB LOAD         ACCESS:   13549431 HIT:   13549424 MISS:          7 MSHR_MERGE:          2
cpu0->cpu0_ITLB RFO          ACCESS:          0 HIT:          0 MISS:          0 MSHR_MERGE:          0
cpu0->cpu0_ITLB PREFETCH     ACCESS:          0 HIT:          0 MISS:          0 MSHR_MERGE:          0
cpu0->cpu0_ITLB WRITE        ACCESS:          0 HIT:          0 MISS:          0 MSHR_MERGE:          0
cpu0->cpu0_ITLB TRANSLATION  ACCESS:          0 HIT:          0 MISS:          0 MSHR_MERGE:          0
cpu0->cpu0_ITLB PREFETCH REQUESTED:          0 ISSUED:          0 USEFUL:          0 USELESS:          0 LATE:          0
cpu0->cpu0_ITLB AVERAGE MISS LATENCY: 388 cycles
cpu0->cpu0_DTLB TOTAL        ACCESS:   19439063 HIT:   18476926 MISS:     962137 MSHR_MERGE:     836621
cpu0->cpu0_DTLB LOAD         ACCESS:   19439063 HIT:   18476926 MISS:     962137 MSHR_MERGE:     836621
cpu0->cpu0_DTLB RFO          ACCESS:          0 HIT:          0 MISS:          0 MSHR_MERGE:          0
cpu0->cpu0_DTLB PREFETCH     ACCESS:          0 HIT:          0 MISS:          0 MSHR_MERGE:          0
cpu0->cpu0_DTLB WRITE        ACCESS:          0 HIT:          0 MISS:          0 MSHR_MERGE:          0
cpu0->cpu0_DTLB TRANSLATION  ACCESS:          0 HIT:          0 MISS:          0 MSHR_MERGE:          0
cpu0->cpu0_DTLB PREFETCH REQUESTED:          0 ISSUED:          0 USEFUL:          0 USELESS:          0 LATE:          0
cpu0->cpu0_DTLB AVERAGE MISS LATENCY: 114.3 cycles
cpu0->LLC TOTAL        ACCESS:    2292840 HIT:     557139 MISS:    1735701 MSHR_MERGE:          0
cpu0->LLC LOAD         ACCESS:    1039208 HIT:        429 MISS:    1038779 MSHR_MERGE:          0
cpu0->LLC RFO          ACCESS:     604707 HIT:          0 MISS:     604707 MSHR_MERGE:          0
cpu0->LLC PREFETCH     ACCESS:          0 HIT:          0 MISS:          0 MSHR_MERGE:          0
cpu0->LLC WRITE        ACCESS:     633632 HIT:     556605 MISS:      77027 MSHR_MERGE:          0
cpu0->LLC TRANSLATION  ACCESS:      15293 HIT:        105 MISS:      15188 MSHR_MERGE:          0
cpu0->LLC PREFETCH REQUESTED:          0 ISSUED:          0 USEFUL:          0 USELESS:          0 LATE:          0
cpu0->LLC AVERAGE MISS LATENCY: 307.2 cycles

DRAM Statistics

Channel 0 RQ ROW_BUFFER_HIT:     184820
  ROW_BUFFER_MISS:    1473855
  AVG DBUS CONGESTED CYCLE: 11.09
Channel 0 WQ ROW_BUFFER_HIT:     128166
  ROW_BUFFER_MISS:     505314
  FULL:          0
Channel 0 REFRESHES ISSUED:       9432

[ROI Statistics]
[System Configuration]
num_cpus 1
cpu_freq 4000
fetch_width 6
decode_width 6
dispatch_width 6
execute_width 6
lq_width 2
sq_width 2
retire_width 6
scheduler_size 128
branch_mispredict_penalty 15
rob_size 352
lq_size 128
sq_size 72
ifetch_buffer_size 64
decode_buffer_size 32
dispatch_buffer_size 32
register_file_size 288
decode_latency 1
dispatch_latency 1
schedule_latency 1
execute_latency 1
page_size 4096
block_size 64
core_0_itlb_set 16
core_0_itlb_way 4
core_0_itlb_rq_size 16
core_0_itlb_wq_size 16
core_0_itlb_pq_size 0
core_0_itlb_mshr_size 8
core_0_itlb_hit_latency 1
core_0_itlb_fill_latency 1
core_0_itlb_max_tag_check 2
core_0_itlb_max_fill 2
core_0_dtlb_set 16
core_0_dtlb_way 4
core_0_dtlb_rq_size 16
core_0_dtlb_wq_size 16
core_0_dtlb_pq_size 0
core_0_dtlb_mshr_size 8
core_0_dtlb_hit_latency 1
core_0_dtlb_fill_latency 1
core_0_dtlb_max_tag_check 2
core_0_dtlb_max_fill 2
core_0_stlb_set 128
core_0_stlb_way 12
core_0_stlb_rq_size 32
core_0_stlb_wq_size 32
core_0_stlb_pq_size 0
core_0_stlb_mshr_size 16
core_0_stlb_hit_latency 4
core_0_stlb_fill_latency 4
core_0_stlb_max_tag_check 1
core_0_stlb_max_fill 1
core_0_l1i_set 64
core_0_l1i_way 8
core_0_l1i_rq_size 64
core_0_l1i_wq_size 64
core_0_l1i_pq_size 32
core_0_l1i_mshr_size 8
core_0_l1i_hit_latency 2
core_0_l1i_fill_latency 2
core_0_l1i_max_tag_check 2
core_0_l1i_max_fill 2
core_0_l1d_set 64
core_0_l1d_way 12
core_0_l1d_rq_size 64
core_0_l1d_wq_size 64
core_0_l1d_pq_size 8
core_0_l1d_mshr_size 16
core_0_l1d_hit_latency 2
core_0_l1d_fill_latency 3
core_0_l1d_max_tag_check 2
core_0_l1d_max_fill 2
core_0_l2c_set 1024
core_0_l2c_way 8
core_0_l2c_rq_size 32
core_0_l2c_wq_size 32
core_0_l2c_pq_size 16
core_0_l2c_mshr_size 32
core_0_l2c_hit_latency 5
core_0_l2c_fill_latency 5
core_0_l2c_max_tag_check 1
core_0_l2c_max_fill 1
llc_set 2048
llc_way 16
llc_rq_size 32
llc_wq_size 32
llc_pq_size 32
llc_mshr_size 64
llc_hit_latency 10
llc_fill_latency 10
llc_max_tag_check 1
llc_max_fill 1
dram_channels 1
dram_ranks 1
dram_bankgroups 8
dram_banks 4
dram_rows 65536
dram_columns 1024
dram_channel_width 8
dram_rq_size 64
dram_wq_size 64
dram_size 17179869184
core_0_itlb_prefetcher no
core_0_dtlb_prefetcher no
core_0_stlb_prefetcher no
core_0_l1i_prefetcher no
core_0_l1d_prefetcher no
core_0_l2c_prefetcher no
llc_prefetcher no
llc_replacement drrip

Core_0_instructions 100000001
Core_0_cycles 113186721
Core_0_IPC 0.883496
Core_0_branch_prediction_accuracy 99.3413
Core_0_branch_MPKI 0.19308
Core_0_average_ROB_occupancy_at_mispredict 229.664

Core_0_ITLB_total_access 13549431
Core_0_ITLB_total_hit 13549424
Core_0_ITLB_total_miss 7
Core_0_ITLB_total_MPKI 7e-05
Core_0_ITLB_total_miss_rate 5.16627e-07
Core_0_ITLB_demand_access 13549431
Core_0_ITLB_demand_hit 13549424
Core_0_ITLB_demand_miss 7
Core_0_ITLB_demand_MPKI 7e-05
Core_0_ITLB_demand_miss_rate 5.16627e-07
Core_0_ITLB_load_access 13549431
Core_0_ITLB_load_hit 13549424
Core_0_ITLB_load_miss 7
Core_0_ITLB_load_MPKI 7e-05
Core_0_ITLB_load_miss_rate 5.16627e-07
Core_0_ITLB_rfo_access 0
Core_0_ITLB_rfo_hit 0
Core_0_ITLB_rfo_miss 0
Core_0_ITLB_rfo_MPKI 0
Core_0_ITLB_rfo_miss_rate 0
Core_0_ITLB_prefetch_access 0
Core_0_ITLB_prefetch_hit 0
Core_0_ITLB_prefetch_miss 0
Core_0_ITLB_prefetch_MPKI 0
Core_0_ITLB_prefetch_miss_rate 0
Core_0_ITLB_writeback_access 0
Core_0_ITLB_writeback_hit 0
Core_0_ITLB_writeback_miss 0
Core_0_ITLB_writeback_MPKI 0
Core_0_ITLB_writeback_miss_rate 0
Core_0_ITLB_prefetch_requested 0
Core_0_ITLB_prefetch_issued 0
Core_0_ITLB_prefetch_useful 0
Core_0_ITLB_prefetch_useless 0
Core_0_ITLB_prefetch_late 0
Core_0_ITLB_prefetch_accuracy 0
Core_0_ITLB_prefetch_coverage 0

Core_0_DTLB_total_access 19439063
Core_0_DTLB_total_hit 18476926
Core_0_DTLB_total_miss 962137
Core_0_DTLB_total_MPKI 9.62137
Core_0_DTLB_total_miss_rate 0.049495
Core_0_DTLB_demand_access 19439063
Core_0_DTLB_demand_hit 18476926
Core_0_DTLB_demand_miss 962137
Core_0_DTLB_demand_MPKI 9.62137
Core_0_DTLB_demand_miss_rate 0.049495
Core_0_DTLB_load_access 19439063
Core_0_DTLB_load_hit 18476926
Core_0_DTLB_load_miss 962137
Core_0_DTLB_load_MPKI 9.62137
Core_0_DTLB_load_miss_rate 0.049495
Core_0_DTLB_rfo_access 0
Core_0_DTLB_rfo_hit 0
Core_0_DTLB_rfo_miss 0
Core_0_DTLB_rfo_MPKI 0
Core_0_DTLB_rfo_miss_rate 0
Core_0_DTLB_prefetch_access 0
Core_0_DTLB_prefetch_hit 0
Core_0_DTLB_prefetch_miss 0
Core_0_DTLB_prefetch_MPKI 0
Core_0_DTLB_prefetch_miss_rate 0
Core_0_DTLB_writeback_access 0
Core_0_DTLB_writeback_hit 0
Core_0_DTLB_writeback_miss 0
Core_0_DTLB_writeback_MPKI 0
Core_0_DTLB_writeback_miss_rate 0
Core_0_DTLB_prefetch_requested 0
Core_0_DTLB_prefetch_issued 0
Core_0_DTLB_prefetch_useful 0
Core_0_DTLB_prefetch_useless 0
Core_0_DTLB_prefetch_late 0
Core_0_DTLB_prefetch_accuracy 0
Core_0_DTLB_prefetch_coverage 0

Core_0_STLB_total_access 125521
Core_0_STLB_total_hit 4625
Core_0_STLB_total_miss 120896
Core_0_STLB_total_MPKI 1.20896
Core_0_STLB_total_miss_rate 0.963154
Core_0_STLB_demand_access 125521
Core_0_STLB_demand_hit 4625
Core_0_STLB_demand_miss 120896
Core_0_STLB_demand_MPKI 1.20896
Core_0_STLB_demand_miss_rate 0.963154
Core_0_STLB_load_access 125521
Core_0_STLB_load_hit 4625
Core_0_STLB_load_miss 120896
Core_0_STLB_load_MPKI 1.20896
Core_0_STLB_load_miss_rate 0.963154
Core_0_STLB_rfo_access 0
Core_0_STLB_rfo_hit 0
Core_0_STLB_rfo_miss 0
Core_0_STLB_rfo_MPKI 0
Core_0_STLB_rfo_miss_rate 0
Core_0_STLB_prefetch_access 0
Core_0_STLB_prefetch_hit 0
Core_0_STLB_prefetch_miss 0
Core_0_STLB_prefetch_MPKI 0
Core_0_STLB_prefetch_miss_rate 0
Core_0_STLB_writeback_access 0
Core_0_STLB_writeback_hit 0
Core_0_STLB_writeback_miss 0
Core_0_STLB_writeback_MPKI 0
Core_0_STLB_writeback_miss_rate 0
Core_0_STLB_prefetch_requested 0
Core_0_STLB_prefetch_issued 0
Core_0_STLB_prefetch_useful 0
Core_0_STLB_prefetch_useless 0
Core_0_STLB_prefetch_late 0
Core_0_STLB_prefetch_accuracy 0
Core_0_STLB_prefetch_coverage 0

Core_0_L1I_total_access 16269026
Core_0_L1I_total_hit 16268962
Core_0_L1I_total_miss 64
Core_0_L1I_total_MPKI 0.00064
Core_0_L1I_total_miss_rate 3.93386e-06
Core_0_L1I_demand_access 16269026
Core_0_L1I_demand_hit 16268962
Core_0_L1I_demand_miss 64
Core_0_L1I_demand_MPKI 0.00064
Core_0_L1I_demand_miss_rate 3.93386e-06
Core_0_L1I_load_access 16269026
Core_0_L1I_load_hit 16268962
Core_0_L1I_load_miss 64
Core_0_L1I_load_MPKI 0.00064
Core_0_L1I_load_miss_rate 3.93386e-06
Core_0_L1I_rfo_access 0
Core_0_L1I_rfo_hit 0
Core_0_L1I_rfo_miss 0
Core_0_L1I_rfo_MPKI 0
Core_0_L1I_rfo_miss_rate 0
Core_0_L1I_prefetch_access 0
Core_0_L1I_prefetch_hit 0
Core_0_L1I_prefetch_miss 0
Core_0_L1I_prefetch_MPKI 0
Core_0_L1I_prefetch_miss_rate 0
Core_0_L1I_writeback_access 0
Core_0_L1I_writeback_hit 0
Core_0_L1I_writeback_miss 0
Core_0_L1I_writeback_MPKI 0
Core_0_L1I_writeback_miss_rate 0
Core_0_L1I_prefetch_requested 0
Core_0_L1I_prefetch_issued 0
Core_0_L1I_prefetch_useful 0
Core_0_L1I_prefetch_useless 0
Core_0_L1I_prefetch_late 0
Core_0_L1I_prefetch_accuracy 0
Core_0_L1I_prefetch_coverage 0

Core_0_L1D_total_access 20639918
Core_0_L1D_total_hit 10890745
Core_0_L1D_total_miss 9749173
Core_0_L1D_total_MPKI 97.4917
Core_0_L1D_total_miss_rate 0.472346
Core_0_L1D_demand_access 13256555
Core_0_L1D_demand_hit 8036354
Core_0_L1D_demand_miss 5220201
Core_0_L1D_demand_MPKI 52.202
Core_0_L1D_demand_miss_rate 0.393783
Core_0_L1D_load_access 13256555
Core_0_L1D_load_hit 8036354
Core_0_L1D_load_miss 5220201
Core_0_L1D_load_MPKI 52.202
Core_0_L1D_load_miss_rate 0.393783
Core_0_L1D_rfo_access 0
Core_0_L1D_rfo_hit 0
Core_0_L1D_rfo_miss 0
Core_0_L1D_rfo_MPKI 0
Core_0_L1D_rfo_miss_rate 0
Core_0_L1D_prefetch_access 0
Core_0_L1D_prefetch_hit 0
Core_0_L1D_prefetch_miss 0
Core_0_L1D_prefetch_MPKI 0
Core_0_L1D_prefetch_miss_rate 0
Core_0_L1D_writeback_access 7383363
Core_0_L1D_writeback_hit 2854391
Core_0_L1D_writeback_miss 4528972
Core_0_L1D_writeback_MPKI 45.2897
Core_0_L1D_writeback_miss_rate 0.613402
Core_0_L1D_prefetch_requested 0
Core_0_L1D_prefetch_issued 0
Core_0_L1D_prefetch_useful 0
Core_0_L1D_prefetch_useless 0
Core_0_L1D_prefetch_late 0
Core_0_L1D_prefetch_accuracy 0
Core_0_L1D_prefetch_coverage 0

Core_0_L2C_total_access 2277491
Core_0_L2C_total_hit 633570
Core_0_L2C_total_miss 1643921
Core_0_L2C_total_MPKI 16.4392
Core_0_L2C_total_miss_rate 0.721812
Core_0_L2C_demand_access 1643915
Core_0_L2C_demand_hit 0
Core_0_L2C_demand_miss 1643915
Core_0_L2C_demand_MPKI 16.4391
Core_0_L2C_demand_miss_rate 1
Core_0_L2C_load_access 1039208
Core_0_L2C_load_hit 0
Core_0_L2C_load_miss 1039208
Core_0_L2C_load_MPKI 10.3921
Core_0_L2C_load_miss_rate 1
Core_0_L2C_rfo_access 604707
Core_0_L2C_rfo_hit 0
Core_0_L2C_rfo_miss 604707
Core_0_L2C_rfo_MPKI 6.04707
Core_0_L2C_rfo_miss_rate 1
Core_0_L2C_prefetch_access 0
Core_0_L2C_prefetch_hit 0
Core_0_L2C_prefetch_miss 0
Core_0_L2C_prefetch_MPKI 0
Core_0_L2C_prefetch_miss_rate 0
Core_0_L2C_writeback_access 633576
Core_0_L2C_writeback_hit 633570
Core_0_L2C_writeback_miss 6
Core_0_L2C_writeback_MPKI 6e-05
Core_0_L2C_writeback_miss_rate 9.47006e-06
Core_0_L2C_prefetch_requested 0
Core_0_L2C_prefetch_issued 0
Core_0_L2C_prefetch_useful 0
Core_0_L2C_prefetch_useless 0
Core_0_L2C_prefetch_late 0
Core_0_L2C_prefetch_accuracy 0
Core_0_L2C_prefetch_coverage 0

Core_0_LLC_total_access 2277547
Core_0_LLC_total_hit 557034
Core_0_LLC_total_miss 1720513
Core_0_LLC_total_MPKI 17.2051
Core_0_LLC_total_miss_rate 0.755424
Core_0_LLC_demand_access 1643915
Core_0_LLC_demand_hit 429
Core_0_LLC_demand_miss 1643486
Core_0_LLC_demand_MPKI 16.4349
Core_0_LLC_demand_miss_rate 0.999739
Core_0_LLC_load_access 1039208
Core_0_LLC_load_hit 429
Core_0_LLC_load_miss 1038779
Core_0_LLC_load_MPKI 10.3878
Core_0_LLC_load_miss_rate 0.999587
Core_0_LLC_rfo_access 604707
Core_0_LLC_rfo_hit 0
Core_0_LLC_rfo_miss 604707
Core_0_LLC_rfo_MPKI 6.04707
Core_0_LLC_rfo_miss_rate 1
Core_0_LLC_prefetch_access 0
Core_0_LLC_prefetch_hit 0
Core_0_LLC_prefetch_miss 0
Core_0_LLC_prefetch_MPKI 0
Core_0_LLC_prefetch_miss_rate 0
Core_0_LLC_writeback_access 633632
Core_0_LLC_writeback_hit 556605
Core_0_LLC_writeback_miss 77027
Core_0_LLC_writeback_MPKI 0.77027
Core_0_LLC_writeback_miss_rate 0.121564
Core_0_LLC_prefetch_requested 0
Core_0_LLC_prefetch_issued 0
Core_0_LLC_prefetch_useful 0
Core_0_LLC_prefetch_useless 0
Core_0_LLC_prefetch_late 0
Core_0_LLC_prefetch_accuracy 0
Core_0_LLC_prefetch_coverage 0

[DRAM Statistics]
Channel_0_RQ_row_buffer_hit 184820
Channel_0_RQ_row_buffer_miss 1473855
Channel_0_WQ_row_buffer_hit 128166
Channel_0_WQ_row_buffer_miss 505314
Channel_0_WQ_full 0
Channel_0_dbus_congested 8684567
DRAM_total_RQ_row_buffer_hit 184820
DRAM_total_RQ_row_buffer_miss 1473855
DRAM_total_WQ_row_buffer_hit 128166
DRAM_total_WQ_row_buffer_miss 505314
DRAM_total_WQ_full 0
DRAM_total_dbus_congested 8684567
DRAM_avg_congested_cycle 11.0855

====== DRAM_RQ_TRAFFIC ========
DRAM_RQ_READ_TRAFFIC_BREAKDOWN:
data_demand_read.count = 1643437
data_demand_read.share = 99.08%

inst_demand_read.count = 50
inst_demand_read.share = 0.00%

cache_inst_prefetch.count = 0
cache_inst_prefetch.share = 0.00%

cache_data_prefetch.count = 0
cache_data_prefetch.share = 0.00%

stlb_data_demand.count = 15184
stlb_data_demand.share = 0.92%

stlb_inst_demand.count = 4
stlb_inst_demand.share = 0.00%

stlb_l1i_pref.count = 0
stlb_l1i_pref.share = 0.00%

stlb_l1d_pref.count = 0
stlb_l1d_pref.share = 0.00%

DRAM_RQ_READ_TRAFFIC_SUMMARY:
cache_demand.count = 1643487
cache_demand.share = 99.08%

cache_prefetch.count = 0
cache_prefetch.share = 0.00%

stlb_demand.count = 15188
stlb_demand.share = 0.92%

stlb_prefetch.count = 0
stlb_prefetch.share = 0.00%

DRAM_RQ_READ_TRAFFIC_DEBUG:
total_classified_read.count = 1658675
unclassified_read.count = 0
total_read_with_other.count = 1658675

classified_plus_unclassified_check.count = 1658675
dram_rq_read_total_observed.count = 1658675
dram_rq_read_total_observed.per_1K_instructions = 16.5867

STLB_MISS_PTW_DRAM_TOUCH_BREAKDOWN:
stlb_miss_total.count = 120896

stlb_miss_touch_dram.count = 15114
stlb_miss_touch_dram.share = 12.50%

stlb_miss_no_dram_touch.count = 105782
stlb_miss_no_dram_touch.share = 87.50%

STLB_MISS_PTW_DRAM_TOUCH_DEBUG:
stlb_miss_touch_plus_no_touch.count = 120896
stlb_miss_total_check.count = 120896

======STLB miss causes ========
Core_0_STLB_miss_cause_breakdown
Core_0_STLB_cause_Demand_Data_miss 120891
Core_0_STLB_cause_Demand_Data_miss_rate 0.963114
Core_0_STLB_cause_Demand_Instruction_miss 5
Core_0_STLB_cause_Demand_Instruction_miss_rate 3.9834e-05
Core_0_STLB_cause_L1D_Prefetch_miss 0
Core_0_STLB_cause_L1D_Prefetch_miss_rate 0
Core_0_STLB_cause_L1I_Prefetch_miss 0
Core_0_STLB_cause_L1I_Prefetch_miss_rate 0
Core_0_STLB_cause_Other_miss 0
Core_0_STLB_cause_Other_miss_rate 0
Core_0_STLB_Demand_miss 120896
Core_0_STLB_Demand_miss_rate 0.963154
Core_0_STLB_L1D_Prefetch_miss 0
Core_0_STLB_L1D_Prefetch_miss_rate 0
Core_0_STLB_Other_miss 0
Core_0_STLB_Other_miss_rate 0
