[VMEM] WARNING: physical memory size is smaller than virtual memory size.

*** ChampSim Multicore Out-of-Order Simulator ***
Warmup Instructions: 50000000
Simulation Instructions: 100000000
Number of CPUs: 1
Page size: 4096
Core 0: /data0/tzh/champsim_traces/SPEC17/649.fotonik3d_s-1B.champsimtrace.xz
Off-chip DRAM Size: 16 GiB Channels: 1 Width: 64-bit Data Rate: 3205 MT/s
Warmup halting CPU 0 at instruction 50000004 cycle 12145823 for remainder of phase
Warmup finished CPU 0 instructions: 50000004 cycles: 12145823 cumulative IPC: 4.117 (Simulation time: 00 hr 02 min 24 sec)
Warmup complete CPU 0 instructions: 50000004 cycles: 12145823 cumulative IPC: 4.117 (Simulation time: 00 hr 02 min 24 sec)
Simulation finished CPU 0 instructions: 100000001 cycles: 37966902 cumulative IPC: 2.634 (Simulation time: 00 hr 08 min 50 sec)
Simulation complete CPU 0 instructions: 100000001 cycles: 37966902 cumulative IPC: 2.634 (Simulation time: 00 hr 08 min 50 sec)

ChampSim completed all CPUs

=== Simulation ===
CPU 0 runs /data0/tzh/champsim_traces/SPEC17/649.fotonik3d_s-1B.champsimtrace.xz

Region of Interest Statistics

CPU 0 cumulative IPC: 2.634 instructions: 100000001 cycles: 37966902
CPU 0 Branch Prediction Accuracy: 98.95% MPKI: 2.497 Average ROB Occupancy at Mispredict: 157.9
Branch type MPKI
BRANCH_DIRECT_JUMP: 1e-05
BRANCH_INDIRECT: 0.2731
BRANCH_CONDITIONAL: 2.224
BRANCH_DIRECT_CALL: 1e-05
BRANCH_INDIRECT_CALL: 0
BRANCH_RETURN: 1e-05

cpu0->cpu0_STLB TOTAL        ACCESS:        428 HIT:          0 MISS:        428 MSHR_MERGE:          0
cpu0->cpu0_STLB LOAD         ACCESS:        428 HIT:          0 MISS:        428 MSHR_MERGE:          0
cpu0->cpu0_STLB RFO          ACCESS:          0 HIT:          0 MISS:          0 MSHR_MERGE:          0
cpu0->cpu0_STLB PREFETCH     ACCESS:          0 HIT:          0 MISS:          0 MSHR_MERGE:          0
cpu0->cpu0_STLB WRITE        ACCESS:          0 HIT:          0 MISS:          0 MSHR_MERGE:          0
cpu0->cpu0_STLB TRANSLATION  ACCESS:          0 HIT:          0 MISS:          0 MSHR_MERGE:          0
cpu0->cpu0_STLB PREFETCH REQUESTED:          0 ISSUED:          0 USEFUL:          0 USELESS:          0 LATE:          0
cpu0->cpu0_STLB AVERAGE MISS LATENCY: 442.1 cycles
cpu0->cpu0_L2C TOTAL        ACCESS:      11425 HIT:       5582 MISS:       5843 MSHR_MERGE:          0
cpu0->cpu0_L2C LOAD         ACCESS:         10 HIT:          2 MISS:          8 MSHR_MERGE:          0
cpu0->cpu0_L2C RFO          ACCESS:       5518 HIT:         57 MISS:       5461 MSHR_MERGE:          0
cpu0->cpu0_L2C PREFETCH     ACCESS:          0 HIT:          0 MISS:          0 MSHR_MERGE:          0
cpu0->cpu0_L2C WRITE        ACCESS:       5520 HIT:       5520 MISS:          0 MSHR_MERGE:          0
cpu0->cpu0_L2C TRANSLATION  ACCESS:        377 HIT:          3 MISS:        374 MSHR_MERGE:          0
cpu0->cpu0_L2C PREFETCH REQUESTED:          0 ISSUED:          0 USEFUL:          0 USELESS:          0 LATE:          0
cpu0->cpu0_L2C AVERAGE MISS LATENCY: 170.6 cycles
cpu0->cpu0_L1I TOTAL        ACCESS:   16461068 HIT:   16461064 MISS:          4 MSHR_MERGE:          0
cpu0->cpu0_L1I LOAD         ACCESS:   16461068 HIT:   16461064 MISS:          4 MSHR_MERGE:          0
cpu0->cpu0_L1I RFO          ACCESS:          0 HIT:          0 MISS:          0 MSHR_MERGE:          0
cpu0->cpu0_L1I PREFETCH     ACCESS:          0 HIT:          0 MISS:          0 MSHR_MERGE:          0
cpu0->cpu0_L1I WRITE        ACCESS:          0 HIT:          0 MISS:          0 MSHR_MERGE:          0
cpu0->cpu0_L1I TRANSLATION  ACCESS:          0 HIT:          0 MISS:          0 MSHR_MERGE:          0
cpu0->cpu0_L1I PREFETCH REQUESTED:          0 ISSUED:          0 USEFUL:          0 USELESS:          0 LATE:          0
cpu0->cpu0_L1I AVERAGE MISS LATENCY: 250.8 cycles
cpu0->cpu0_L1D TOTAL        ACCESS:   25337296 HIT:   25331274 MISS:       6022 MSHR_MERGE:        121
cpu0->cpu0_L1D LOAD         ACCESS:    9481080 HIT:    9481073 MISS:          7 MSHR_MERGE:          1
cpu0->cpu0_L1D RFO          ACCESS:          0 HIT:          0 MISS:          0 MSHR_MERGE:          0
cpu0->cpu0_L1D PREFETCH     ACCESS:          0 HIT:          0 MISS:          0 MSHR_MERGE:          0
cpu0->cpu0_L1D WRITE        ACCESS:   15855210 HIT:   15849572 MISS:       5638 MSHR_MERGE:        120
cpu0->cpu0_L1D TRANSLATION  ACCESS:       1006 HIT:        629 MISS:        377 MSHR_MERGE:          0
cpu0->cpu0_L1D PREFETCH REQUESTED:          0 ISSUED:          0 USEFUL:          0 USELESS:          0 LATE:          0
cpu0->cpu0_L1D AVERAGE MISS LATENCY: 177.7 cycles
cpu0->cpu0_ITLB TOTAL        ACCESS:   14553658 HIT:   14553658 MISS:          0 MSHR_MERGE:          0
cpu0->cpu0_ITLB LOAD         ACCESS:   14553658 HIT:   14553658 MISS:          0 MSHR_MERGE:          0
cpu0->cpu0_ITLB RFO          ACCESS:          0 HIT:          0 MISS:          0 MSHR_MERGE:          0
cpu0->cpu0_ITLB PREFETCH     ACCESS:          0 HIT:          0 MISS:          0 MSHR_MERGE:          0
cpu0->cpu0_ITLB WRITE        ACCESS:          0 HIT:          0 MISS:          0 MSHR_MERGE:          0
cpu0->cpu0_ITLB TRANSLATION  ACCESS:          0 HIT:          0 MISS:          0 MSHR_MERGE:          0
cpu0->cpu0_ITLB PREFETCH REQUESTED:          0 ISSUED:          0 USEFUL:          0 USELESS:          0 LATE:          0
cpu0->cpu0_ITLB AVERAGE MISS LATENCY: - cycles
cpu0->cpu0_DTLB TOTAL        ACCESS:   23459310 HIT:   23458882 MISS:        428 MSHR_MERGE:          0
cpu0->cpu0_DTLB LOAD         ACCESS:   23459310 HIT:   23458882 MISS:        428 MSHR_MERGE:          0
cpu0->cpu0_DTLB RFO          ACCESS:          0 HIT:          0 MISS:          0 MSHR_MERGE:          0
cpu0->cpu0_DTLB PREFETCH     ACCESS:          0 HIT:          0 MISS:          0 MSHR_MERGE:          0
cpu0->cpu0_DTLB WRITE        ACCESS:          0 HIT:          0 MISS:          0 MSHR_MERGE:          0
cpu0->cpu0_DTLB TRANSLATION  ACCESS:          0 HIT:          0 MISS:          0 MSHR_MERGE:          0
cpu0->cpu0_DTLB PREFETCH REQUESTED:          0 ISSUED:          0 USEFUL:          0 USELESS:          0 LATE:          0
cpu0->cpu0_DTLB AVERAGE MISS LATENCY: 448.1 cycles
cpu0->LLC TOTAL        ACCESS:       7110 HIT:       1269 MISS:       5841 MSHR_MERGE:          0
cpu0->LLC LOAD         ACCESS:          8 HIT:          1 MISS:          7 MSHR_MERGE:          0
cpu0->LLC RFO          ACCESS:       5461 HIT:          0 MISS:       5461 MSHR_MERGE:          0
cpu0->LLC PREFETCH     ACCESS:          0 HIT:          0 MISS:          0 MSHR_MERGE:          0
cpu0->LLC WRITE        ACCESS:       1267 HIT:       1267 MISS:          0 MSHR_MERGE:          0
cpu0->LLC TRANSLATION  ACCESS:        374 HIT:          1 MISS:        373 MSHR_MERGE:          0
cpu0->LLC PREFETCH REQUESTED:          0 ISSUED:          0 USEFUL:          0 USELESS:          0 LATE:          0
cpu0->LLC AVERAGE MISS LATENCY: 154.6 cycles

DRAM Statistics

Channel 0 RQ ROW_BUFFER_HIT:          0
  ROW_BUFFER_MISS:       5841
  AVG DBUS CONGESTED CYCLE: 2.794
Channel 0 WQ ROW_BUFFER_HIT:          0
  ROW_BUFFER_MISS:          0
  FULL:          0
Channel 0 REFRESHES ISSUED:       3164

[ROI Statistics]
[System Configuration]
num_cpus 1
cpu_freq 4000
fetch_width 6
decode_width 6
dispatch_width 6
execute_width 6
lq_width 2
sq_width 2
retire_width 6
scheduler_size 128
branch_mispredict_penalty 15
rob_size 352
lq_size 128
sq_size 72
ifetch_buffer_size 64
decode_buffer_size 32
dispatch_buffer_size 32
register_file_size 288
decode_latency 1
dispatch_latency 1
schedule_latency 1
execute_latency 1
page_size 4096
block_size 64
core_0_itlb_set 16
core_0_itlb_way 4
core_0_itlb_rq_size 16
core_0_itlb_wq_size 16
core_0_itlb_pq_size 0
core_0_itlb_mshr_size 8
core_0_itlb_hit_latency 1
core_0_itlb_fill_latency 1
core_0_itlb_max_tag_check 2
core_0_itlb_max_fill 2
core_0_dtlb_set 16
core_0_dtlb_way 4
core_0_dtlb_rq_size 16
core_0_dtlb_wq_size 16
core_0_dtlb_pq_size 0
core_0_dtlb_mshr_size 8
core_0_dtlb_hit_latency 1
core_0_dtlb_fill_latency 1
core_0_dtlb_max_tag_check 2
core_0_dtlb_max_fill 2
core_0_stlb_set 128
core_0_stlb_way 12
core_0_stlb_rq_size 32
core_0_stlb_wq_size 32
core_0_stlb_pq_size 0
core_0_stlb_mshr_size 16
core_0_stlb_hit_latency 4
core_0_stlb_fill_latency 4
core_0_stlb_max_tag_check 1
core_0_stlb_max_fill 1
core_0_l1i_set 64
core_0_l1i_way 8
core_0_l1i_rq_size 64
core_0_l1i_wq_size 64
core_0_l1i_pq_size 32
core_0_l1i_mshr_size 8
core_0_l1i_hit_latency 2
core_0_l1i_fill_latency 2
core_0_l1i_max_tag_check 2
core_0_l1i_max_fill 2
core_0_l1d_set 64
core_0_l1d_way 12
core_0_l1d_rq_size 64
core_0_l1d_wq_size 64
core_0_l1d_pq_size 8
core_0_l1d_mshr_size 16
core_0_l1d_hit_latency 2
core_0_l1d_fill_latency 3
core_0_l1d_max_tag_check 2
core_0_l1d_max_fill 2
core_0_l2c_set 1024
core_0_l2c_way 8
core_0_l2c_rq_size 32
core_0_l2c_wq_size 32
core_0_l2c_pq_size 16
core_0_l2c_mshr_size 32
core_0_l2c_hit_latency 5
core_0_l2c_fill_latency 5
core_0_l2c_max_tag_check 1
core_0_l2c_max_fill 1
llc_set 2048
llc_way 16
llc_rq_size 32
llc_wq_size 32
llc_pq_size 32
llc_mshr_size 64
llc_hit_latency 10
llc_fill_latency 10
llc_max_tag_check 1
llc_max_fill 1
dram_channels 1
dram_ranks 1
dram_bankgroups 8
dram_banks 4
dram_rows 65536
dram_columns 1024
dram_channel_width 8
dram_rq_size 64
dram_wq_size 64
dram_size 17179869184
core_0_itlb_prefetcher no
core_0_dtlb_prefetcher no
core_0_stlb_prefetcher no
core_0_l1i_prefetcher no
core_0_l1d_prefetcher no
core_0_l2c_prefetcher no
llc_prefetcher no
llc_replacement drrip

Core_0_instructions 100000001
Core_0_cycles 37966902
Core_0_IPC 2.63387
Core_0_branch_prediction_accuracy 98.9496
Core_0_branch_MPKI 2.49724
Core_0_average_ROB_occupancy_at_mispredict 157.919

Core_0_ITLB_total_access 14553658
Core_0_ITLB_total_hit 14553658
Core_0_ITLB_total_miss 0
Core_0_ITLB_total_MPKI 0
Core_0_ITLB_total_miss_rate 0
Core_0_ITLB_demand_access 14553658
Core_0_ITLB_demand_hit 14553658
Core_0_ITLB_demand_miss 0
Core_0_ITLB_demand_MPKI 0
Core_0_ITLB_demand_miss_rate 0
Core_0_ITLB_load_access 14553658
Core_0_ITLB_load_hit 14553658
Core_0_ITLB_load_miss 0
Core_0_ITLB_load_MPKI 0
Core_0_ITLB_load_miss_rate 0
Core_0_ITLB_rfo_access 0
Core_0_ITLB_rfo_hit 0
Core_0_ITLB_rfo_miss 0
Core_0_ITLB_rfo_MPKI 0
Core_0_ITLB_rfo_miss_rate 0
Core_0_ITLB_prefetch_access 0
Core_0_ITLB_prefetch_hit 0
Core_0_ITLB_prefetch_miss 0
Core_0_ITLB_prefetch_MPKI 0
Core_0_ITLB_prefetch_miss_rate 0
Core_0_ITLB_writeback_access 0
Core_0_ITLB_writeback_hit 0
Core_0_ITLB_writeback_miss 0
Core_0_ITLB_writeback_MPKI 0
Core_0_ITLB_writeback_miss_rate 0
Core_0_ITLB_prefetch_requested 0
Core_0_ITLB_prefetch_issued 0
Core_0_ITLB_prefetch_useful 0
Core_0_ITLB_prefetch_useless 0
Core_0_ITLB_prefetch_late 0
Core_0_ITLB_prefetch_accuracy 0
Core_0_ITLB_prefetch_coverage 0

Core_0_DTLB_total_access 23459310
Core_0_DTLB_total_hit 23458882
Core_0_DTLB_total_miss 428
Core_0_DTLB_total_MPKI 0.00428
Core_0_DTLB_total_miss_rate 1.82444e-05
Core_0_DTLB_demand_access 23459310
Core_0_DTLB_demand_hit 23458882
Core_0_DTLB_demand_miss 428
Core_0_DTLB_demand_MPKI 0.00428
Core_0_DTLB_demand_miss_rate 1.82444e-05
Core_0_DTLB_load_access 23459310
Core_0_DTLB_load_hit 23458882
Core_0_DTLB_load_miss 428
Core_0_DTLB_load_MPKI 0.00428
Core_0_DTLB_load_miss_rate 1.82444e-05
Core_0_DTLB_rfo_access 0
Core_0_DTLB_rfo_hit 0
Core_0_DTLB_rfo_miss 0
Core_0_DTLB_rfo_MPKI 0
Core_0_DTLB_rfo_miss_rate 0
Core_0_DTLB_prefetch_access 0
Core_0_DTLB_prefetch_hit 0
Core_0_DTLB_prefetch_miss 0
Core_0_DTLB_prefetch_MPKI 0
Core_0_DTLB_prefetch_miss_rate 0
Core_0_DTLB_writeback_access 0
Core_0_DTLB_writeback_hit 0
Core_0_DTLB_writeback_miss 0
Core_0_DTLB_writeback_MPKI 0
Core_0_DTLB_writeback_miss_rate 0
Core_0_DTLB_prefetch_requested 0
Core_0_DTLB_prefetch_issued 0
Core_0_DTLB_prefetch_useful 0
Core_0_DTLB_prefetch_useless 0
Core_0_DTLB_prefetch_late 0
Core_0_DTLB_prefetch_accuracy 0
Core_0_DTLB_prefetch_coverage 0

Core_0_STLB_total_access 428
Core_0_STLB_total_hit 0
Core_0_STLB_total_miss 428
Core_0_STLB_total_MPKI 0.00428
Core_0_STLB_total_miss_rate 1
Core_0_STLB_demand_access 428
Core_0_STLB_demand_hit 0
Core_0_STLB_demand_miss 428
Core_0_STLB_demand_MPKI 0.00428
Core_0_STLB_demand_miss_rate 1
Core_0_STLB_load_access 428
Core_0_STLB_load_hit 0
Core_0_STLB_load_miss 428
Core_0_STLB_load_MPKI 0.00428
Core_0_STLB_load_miss_rate 1
Core_0_STLB_rfo_access 0
Core_0_STLB_rfo_hit 0
Core_0_STLB_rfo_miss 0
Core_0_STLB_rfo_MPKI 0
Core_0_STLB_rfo_miss_rate 0
Core_0_STLB_prefetch_access 0
Core_0_STLB_prefetch_hit 0
Core_0_STLB_prefetch_miss 0
Core_0_STLB_prefetch_MPKI 0
Core_0_STLB_prefetch_miss_rate 0
Core_0_STLB_writeback_access 0
Core_0_STLB_writeback_hit 0
Core_0_STLB_writeback_miss 0
Core_0_STLB_writeback_MPKI 0
Core_0_STLB_writeback_miss_rate 0
Core_0_STLB_prefetch_requested 0
Core_0_STLB_prefetch_issued 0
Core_0_STLB_prefetch_useful 0
Core_0_STLB_prefetch_useless 0
Core_0_STLB_prefetch_late 0
Core_0_STLB_prefetch_accuracy 0
Core_0_STLB_prefetch_coverage 0

Core_0_L1I_total_access 16461068
Core_0_L1I_total_hit 16461064
Core_0_L1I_total_miss 4
Core_0_L1I_total_MPKI 4e-05
Core_0_L1I_total_miss_rate 2.42998e-07
Core_0_L1I_demand_access 16461068
Core_0_L1I_demand_hit 16461064
Core_0_L1I_demand_miss 4
Core_0_L1I_demand_MPKI 4e-05
Core_0_L1I_demand_miss_rate 2.42998e-07
Core_0_L1I_load_access 16461068
Core_0_L1I_load_hit 16461064
Core_0_L1I_load_miss 4
Core_0_L1I_load_MPKI 4e-05
Core_0_L1I_load_miss_rate 2.42998e-07
Core_0_L1I_rfo_access 0
Core_0_L1I_rfo_hit 0
Core_0_L1I_rfo_miss 0
Core_0_L1I_rfo_MPKI 0
Core_0_L1I_rfo_miss_rate 0
Core_0_L1I_prefetch_access 0
Core_0_L1I_prefetch_hit 0
Core_0_L1I_prefetch_miss 0
Core_0_L1I_prefetch_MPKI 0
Core_0_L1I_prefetch_miss_rate 0
Core_0_L1I_writeback_access 0
Core_0_L1I_writeback_hit 0
Core_0_L1I_writeback_miss 0
Core_0_L1I_writeback_MPKI 0
Core_0_L1I_writeback_miss_rate 0
Core_0_L1I_prefetch_requested 0
Core_0_L1I_prefetch_issued 0
Core_0_L1I_prefetch_useful 0
Core_0_L1I_prefetch_useless 0
Core_0_L1I_prefetch_late 0
Core_0_L1I_prefetch_accuracy 0
Core_0_L1I_prefetch_coverage 0

Core_0_L1D_total_access 25336290
Core_0_L1D_total_hit 25330645
Core_0_L1D_total_miss 5645
Core_0_L1D_total_MPKI 0.05645
Core_0_L1D_total_miss_rate 0.000222803
Core_0_L1D_demand_access 9481080
Core_0_L1D_demand_hit 9481073
Core_0_L1D_demand_miss 7
Core_0_L1D_demand_MPKI 7e-05
Core_0_L1D_demand_miss_rate 7.38313e-07
Core_0_L1D_load_access 9481080
Core_0_L1D_load_hit 9481073
Core_0_L1D_load_miss 7
Core_0_L1D_load_MPKI 7e-05
Core_0_L1D_load_miss_rate 7.38313e-07
Core_0_L1D_rfo_access 0
Core_0_L1D_rfo_hit 0
Core_0_L1D_rfo_miss 0
Core_0_L1D_rfo_MPKI 0
Core_0_L1D_rfo_miss_rate 0
Core_0_L1D_prefetch_access 0
Core_0_L1D_prefetch_hit 0
Core_0_L1D_prefetch_miss 0
Core_0_L1D_prefetch_MPKI 0
Core_0_L1D_prefetch_miss_rate 0
Core_0_L1D_writeback_access 15855210
Core_0_L1D_writeback_hit 15849572
Core_0_L1D_writeback_miss 5638
Core_0_L1D_writeback_MPKI 0.05638
Core_0_L1D_writeback_miss_rate 0.000355593
Core_0_L1D_prefetch_requested 0
Core_0_L1D_prefetch_issued 0
Core_0_L1D_prefetch_useful 0
Core_0_L1D_prefetch_useless 0
Core_0_L1D_prefetch_late 0
Core_0_L1D_prefetch_accuracy 0
Core_0_L1D_prefetch_coverage 0

Core_0_L2C_total_access 11048
Core_0_L2C_total_hit 5579
Core_0_L2C_total_miss 5469
Core_0_L2C_total_MPKI 0.05469
Core_0_L2C_total_miss_rate 0.495022
Core_0_L2C_demand_access 5528
Core_0_L2C_demand_hit 59
Core_0_L2C_demand_miss 5469
Core_0_L2C_demand_MPKI 0.05469
Core_0_L2C_demand_miss_rate 0.989327
Core_0_L2C_load_access 10
Core_0_L2C_load_hit 2
Core_0_L2C_load_miss 8
Core_0_L2C_load_MPKI 8e-05
Core_0_L2C_load_miss_rate 0.8
Core_0_L2C_rfo_access 5518
Core_0_L2C_rfo_hit 57
Core_0_L2C_rfo_miss 5461
Core_0_L2C_rfo_MPKI 0.05461
Core_0_L2C_rfo_miss_rate 0.98967
Core_0_L2C_prefetch_access 0
Core_0_L2C_prefetch_hit 0
Core_0_L2C_prefetch_miss 0
Core_0_L2C_prefetch_MPKI 0
Core_0_L2C_prefetch_miss_rate 0
Core_0_L2C_writeback_access 5520
Core_0_L2C_writeback_hit 5520
Core_0_L2C_writeback_miss 0
Core_0_L2C_writeback_MPKI 0
Core_0_L2C_writeback_miss_rate 0
Core_0_L2C_prefetch_requested 0
Core_0_L2C_prefetch_issued 0
Core_0_L2C_prefetch_useful 0
Core_0_L2C_prefetch_useless 0
Core_0_L2C_prefetch_late 0
Core_0_L2C_prefetch_accuracy 0
Core_0_L2C_prefetch_coverage 0

Core_0_LLC_total_access 6736
Core_0_LLC_total_hit 1268
Core_0_LLC_total_miss 5468
Core_0_LLC_total_MPKI 0.05468
Core_0_LLC_total_miss_rate 0.811758
Core_0_LLC_demand_access 5469
Core_0_LLC_demand_hit 1
Core_0_LLC_demand_miss 5468
Core_0_LLC_demand_MPKI 0.05468
Core_0_LLC_demand_miss_rate 0.999817
Core_0_LLC_load_access 8
Core_0_LLC_load_hit 1
Core_0_LLC_load_miss 7
Core_0_LLC_load_MPKI 7e-05
Core_0_LLC_load_miss_rate 0.875
Core_0_LLC_rfo_access 5461
Core_0_LLC_rfo_hit 0
Core_0_LLC_rfo_miss 5461
Core_0_LLC_rfo_MPKI 0.05461
Core_0_LLC_rfo_miss_rate 1
Core_0_LLC_prefetch_access 0
Core_0_LLC_prefetch_hit 0
Core_0_LLC_prefetch_miss 0
Core_0_LLC_prefetch_MPKI 0
Core_0_LLC_prefetch_miss_rate 0
Core_0_LLC_writeback_access 1267
Core_0_LLC_writeback_hit 1267
Core_0_LLC_writeback_miss 0
Core_0_LLC_writeback_MPKI 0
Core_0_LLC_writeback_miss_rate 0
Core_0_LLC_prefetch_requested 0
Core_0_LLC_prefetch_issued 0
Core_0_LLC_prefetch_useful 0
Core_0_LLC_prefetch_useless 0
Core_0_LLC_prefetch_late 0
Core_0_LLC_prefetch_accuracy 0
Core_0_LLC_prefetch_coverage 0

[DRAM Statistics]
Channel_0_RQ_row_buffer_hit 0
Channel_0_RQ_row_buffer_miss 5841
Channel_0_WQ_row_buffer_hit 0
Channel_0_WQ_row_buffer_miss 0
Channel_0_WQ_full 0
Channel_0_dbus_congested 204
DRAM_total_RQ_row_buffer_hit 0
DRAM_total_RQ_row_buffer_miss 5841
DRAM_total_WQ_row_buffer_hit 0
DRAM_total_WQ_row_buffer_miss 0
DRAM_total_WQ_full 0
DRAM_total_dbus_congested 204
DRAM_avg_congested_cycle 2.79412

====== DRAM_RQ_TRAFFIC ========
DRAM_RQ_READ_TRAFFIC_BREAKDOWN:
data_demand_read.count = 5464
data_demand_read.share = 93.55%

inst_demand_read.count = 4
inst_demand_read.share = 0.07%

cache_inst_prefetch.count = 0
cache_inst_prefetch.share = 0.00%

cache_data_prefetch.count = 0
cache_data_prefetch.share = 0.00%

stlb_data_demand.count = 373
stlb_data_demand.share = 6.39%

stlb_inst_demand.count = 0
stlb_inst_demand.share = 0.00%

stlb_l1i_pref.count = 0
stlb_l1i_pref.share = 0.00%

stlb_l1d_pref.count = 0
stlb_l1d_pref.share = 0.00%

DRAM_RQ_READ_TRAFFIC_SUMMARY:
cache_demand.count = 5468
cache_demand.share = 93.61%

cache_prefetch.count = 0
cache_prefetch.share = 0.00%

stlb_demand.count = 373
stlb_demand.share = 6.39%

stlb_prefetch.count = 0
stlb_prefetch.share = 0.00%

DRAM_RQ_READ_TRAFFIC_DEBUG:
total_classified_read.count = 5841
unclassified_read.count = 0
total_read_with_other.count = 5841

classified_plus_unclassified_check.count = 5841
dram_rq_read_total_observed.count = 5841
dram_rq_read_total_observed.per_1K_instructions = 0.05841

STLB_MISS_PTW_DRAM_TOUCH_BREAKDOWN:
stlb_miss_total.count = 428

stlb_miss_touch_dram.count = 355
stlb_miss_touch_dram.share = 82.94%

stlb_miss_no_dram_touch.count = 73
stlb_miss_no_dram_touch.share = 17.06%

STLB_MISS_PTW_DRAM_TOUCH_DEBUG:
stlb_miss_touch_plus_no_touch.count = 428
stlb_miss_total_check.count = 428

======STLB miss causes ========
Core_0_STLB_miss_cause_breakdown
Core_0_STLB_cause_Demand_Data_miss 428
Core_0_STLB_cause_Demand_Data_miss_rate 1
Core_0_STLB_cause_Demand_Instruction_miss 0
Core_0_STLB_cause_Demand_Instruction_miss_rate 0
Core_0_STLB_cause_L1D_Prefetch_miss 0
Core_0_STLB_cause_L1D_Prefetch_miss_rate 0
Core_0_STLB_cause_L1I_Prefetch_miss 0
Core_0_STLB_cause_L1I_Prefetch_miss_rate 0
Core_0_STLB_cause_Other_miss 0
Core_0_STLB_cause_Other_miss_rate 0
Core_0_STLB_Demand_miss 428
Core_0_STLB_Demand_miss_rate 1
Core_0_STLB_L1D_Prefetch_miss 0
Core_0_STLB_L1D_Prefetch_miss_rate 0
Core_0_STLB_Other_miss 0
Core_0_STLB_Other_miss_rate 0
