[VMEM] WARNING: physical memory size is smaller than virtual memory size.

*** ChampSim Multicore Out-of-Order Simulator ***
Warmup Instructions: 50000000
Simulation Instructions: 100000000
Number of CPUs: 1
Page size: 4096
Core 0: /data2/zcq/champsim_traces_gap/cc.twitter-15B.champsimtrace.xz
Off-chip DRAM Size: 16 GiB Channels: 1 Width: 64-bit Data Rate: 3205 MT/s
Warmup halting CPU 0 at instruction 50000005 cycle 17989363 for remainder of phase
Warmup finished CPU 0 instructions: 50000005 cycles: 17989363 cumulative IPC: 2.779 (Simulation time: 00 hr 03 min 18 sec)
Warmup complete CPU 0 instructions: 50000005 cycles: 17989363 cumulative IPC: 2.779 (Simulation time: 00 hr 03 min 18 sec)
Simulation finished CPU 0 instructions: 100000005 cycles: 339236397 cumulative IPC: 0.2948 (Simulation time: 00 hr 35 min 03 sec)
Simulation complete CPU 0 instructions: 100000005 cycles: 339236397 cumulative IPC: 0.2948 (Simulation time: 00 hr 35 min 03 sec)

ChampSim completed all CPUs

=== Simulation ===
CPU 0 runs /data2/zcq/champsim_traces_gap/cc.twitter-15B.champsimtrace.xz

Region of Interest Statistics

CPU 0 cumulative IPC: 0.2948 instructions: 100000005 cycles: 339236397
CPU 0 Branch Prediction Accuracy: 98.22% MPKI: 3.27 Average ROB Occupancy at Mispredict: 159.5
Branch type MPKI
BRANCH_DIRECT_JUMP: 0
BRANCH_INDIRECT: 0
BRANCH_CONDITIONAL: 3.27
BRANCH_DIRECT_CALL: 0
BRANCH_INDIRECT_CALL: 0
BRANCH_RETURN: 0

cpu0->cpu0_STLB TOTAL        ACCESS:    2074372 HIT:     410419 MISS:    1663953 MSHR_MERGE:          0
cpu0->cpu0_STLB LOAD         ACCESS:    2074372 HIT:     410419 MISS:    1663953 MSHR_MERGE:          0
cpu0->cpu0_STLB RFO          ACCESS:          0 HIT:          0 MISS:          0 MSHR_MERGE:          0
cpu0->cpu0_STLB PREFETCH     ACCESS:          0 HIT:          0 MISS:          0 MSHR_MERGE:          0
cpu0->cpu0_STLB WRITE        ACCESS:          0 HIT:          0 MISS:          0 MSHR_MERGE:          0
cpu0->cpu0_STLB TRANSLATION  ACCESS:          0 HIT:          0 MISS:          0 MSHR_MERGE:          0
cpu0->cpu0_STLB PREFETCH REQUESTED:          0 ISSUED:          0 USEFUL:          0 USELESS:          0 LATE:          0
cpu0->cpu0_STLB AVERAGE MISS LATENCY: 46.56 cycles
cpu0->cpu0_L2C TOTAL        ACCESS:    5747278 HIT:    1410851 MISS:    4336427 MSHR_MERGE:          0
cpu0->cpu0_L2C LOAD         ACCESS:    3675342 HIT:     129725 MISS:    3545617 MSHR_MERGE:          0
cpu0->cpu0_L2C RFO          ACCESS:          0 HIT:          0 MISS:          0 MSHR_MERGE:          0
cpu0->cpu0_L2C PREFETCH     ACCESS:          0 HIT:          0 MISS:          0 MSHR_MERGE:          0
cpu0->cpu0_L2C WRITE        ACCESS:     551379 HIT:     551345 MISS:         34 MSHR_MERGE:          0
cpu0->cpu0_L2C TRANSLATION  ACCESS:    1520557 HIT:     729781 MISS:     790776 MSHR_MERGE:          0
cpu0->cpu0_L2C PREFETCH REQUESTED:          0 ISSUED:          0 USEFUL:          0 USELESS:          0 LATE:          0
cpu0->cpu0_L2C AVERAGE MISS LATENCY: 182.8 cycles
cpu0->cpu0_L1I TOTAL        ACCESS:    6661078 HIT:    6661078 MISS:          0 MSHR_MERGE:          0
cpu0->cpu0_L1I LOAD         ACCESS:    6661078 HIT:    6661078 MISS:          0 MSHR_MERGE:          0
cpu0->cpu0_L1I RFO          ACCESS:          0 HIT:          0 MISS:          0 MSHR_MERGE:          0
cpu0->cpu0_L1I PREFETCH     ACCESS:          0 HIT:          0 MISS:          0 MSHR_MERGE:          0
cpu0->cpu0_L1I WRITE        ACCESS:          0 HIT:          0 MISS:          0 MSHR_MERGE:          0
cpu0->cpu0_L1I TRANSLATION  ACCESS:          0 HIT:          0 MISS:          0 MSHR_MERGE:          0
cpu0->cpu0_L1I PREFETCH REQUESTED:          0 ISSUED:          0 USEFUL:          0 USELESS:          0 LATE:          0
cpu0->cpu0_L1I AVERAGE MISS LATENCY: - cycles
cpu0->cpu0_L1D TOTAL        ACCESS:   30114562 HIT:   23328583 MISS:    6785979 MSHR_MERGE:    1590079
cpu0->cpu0_L1D LOAD         ACCESS:   23545543 HIT:   18280457 MISS:    5265086 MSHR_MERGE:    1589743
cpu0->cpu0_L1D RFO          ACCESS:          0 HIT:          0 MISS:          0 MSHR_MERGE:          0
cpu0->cpu0_L1D PREFETCH     ACCESS:          0 HIT:          0 MISS:          0 MSHR_MERGE:          0
cpu0->cpu0_L1D WRITE        ACCESS:    2476227 HIT:    2476227 MISS:          0 MSHR_MERGE:          0
cpu0->cpu0_L1D TRANSLATION  ACCESS:    4092792 HIT:    2571899 MISS:    1520893 MSHR_MERGE:        336
cpu0->cpu0_L1D PREFETCH REQUESTED:          0 ISSUED:          0 USEFUL:          0 USELESS:          0 LATE:          0
cpu0->cpu0_L1D AVERAGE MISS LATENCY: 161.4 cycles
cpu0->cpu0_ITLB TOTAL        ACCESS:    5750842 HIT:    5750842 MISS:          0 MSHR_MERGE:          0
cpu0->cpu0_ITLB LOAD         ACCESS:    5750842 HIT:    5750842 MISS:          0 MSHR_MERGE:          0
cpu0->cpu0_ITLB RFO          ACCESS:          0 HIT:          0 MISS:          0 MSHR_MERGE:          0
cpu0->cpu0_ITLB PREFETCH     ACCESS:          0 HIT:          0 MISS:          0 MSHR_MERGE:          0
cpu0->cpu0_ITLB WRITE        ACCESS:          0 HIT:          0 MISS:          0 MSHR_MERGE:          0
cpu0->cpu0_ITLB TRANSLATION  ACCESS:          0 HIT:          0 MISS:          0 MSHR_MERGE:          0
cpu0->cpu0_ITLB PREFETCH REQUESTED:          0 ISSUED:          0 USEFUL:          0 USELESS:          0 LATE:          0
cpu0->cpu0_ITLB AVERAGE MISS LATENCY: - cycles
cpu0->cpu0_DTLB TOTAL        ACCESS:   25794984 HIT:   23604892 MISS:    2190092 MSHR_MERGE:     115720
cpu0->cpu0_DTLB LOAD         ACCESS:   25794984 HIT:   23604892 MISS:    2190092 MSHR_MERGE:     115720
cpu0->cpu0_DTLB RFO          ACCESS:          0 HIT:          0 MISS:          0 MSHR_MERGE:          0
cpu0->cpu0_DTLB PREFETCH     ACCESS:          0 HIT:          0 MISS:          0 MSHR_MERGE:          0
cpu0->cpu0_DTLB WRITE        ACCESS:          0 HIT:          0 MISS:          0 MSHR_MERGE:          0
cpu0->cpu0_DTLB TRANSLATION  ACCESS:          0 HIT:          0 MISS:          0 MSHR_MERGE:          0
cpu0->cpu0_DTLB PREFETCH REQUESTED:          0 ISSUED:          0 USEFUL:          0 USELESS:          0 LATE:          0
cpu0->cpu0_DTLB AVERAGE MISS LATENCY: 43.15 cycles
cpu0->LLC TOTAL        ACCESS:    4881611 HIT:    1019929 MISS:    3861682 MSHR_MERGE:          0
cpu0->LLC LOAD         ACCESS:    3545617 HIT:     187083 MISS:    3358534 MSHR_MERGE:          0
cpu0->LLC RFO          ACCESS:          0 HIT:          0 MISS:          0 MSHR_MERGE:          0
cpu0->LLC PREFETCH     ACCESS:          0 HIT:          0 MISS:          0 MSHR_MERGE:          0
cpu0->LLC WRITE        ACCESS:     545218 HIT:     107957 MISS:     437261 MSHR_MERGE:          0
cpu0->LLC TRANSLATION  ACCESS:     790776 HIT:     724889 MISS:      65887 MSHR_MERGE:          0
cpu0->LLC PREFETCH REQUESTED:          0 ISSUED:          0 USEFUL:          0 USELESS:          0 LATE:          0
cpu0->LLC AVERAGE MISS LATENCY: 188.5 cycles

DRAM Statistics

Channel 0 RQ ROW_BUFFER_HIT:      32078
  ROW_BUFFER_MISS:    3392268
  AVG DBUS CONGESTED CYCLE: 11.63
Channel 0 WQ ROW_BUFFER_HIT:     172383
  ROW_BUFFER_MISS:     355226
  FULL:          0
Channel 0 REFRESHES ISSUED:      28269

[ROI Statistics]
[System Configuration]
num_cpus 1
cpu_freq 4000
fetch_width 6
decode_width 6
dispatch_width 6
execute_width 6
lq_width 2
sq_width 2
retire_width 6
scheduler_size 128
branch_mispredict_penalty 15
rob_size 352
lq_size 128
sq_size 72
ifetch_buffer_size 64
decode_buffer_size 32
dispatch_buffer_size 32
register_file_size 288
decode_latency 1
dispatch_latency 1
schedule_latency 1
execute_latency 1
page_size 4096
block_size 64
core_0_itlb_set 16
core_0_itlb_way 4
core_0_itlb_rq_size 16
core_0_itlb_wq_size 16
core_0_itlb_pq_size 0
core_0_itlb_mshr_size 8
core_0_itlb_hit_latency 1
core_0_itlb_fill_latency 1
core_0_itlb_max_tag_check 2
core_0_itlb_max_fill 2
core_0_dtlb_set 16
core_0_dtlb_way 4
core_0_dtlb_rq_size 16
core_0_dtlb_wq_size 16
core_0_dtlb_pq_size 0
core_0_dtlb_mshr_size 8
core_0_dtlb_hit_latency 1
core_0_dtlb_fill_latency 1
core_0_dtlb_max_tag_check 2
core_0_dtlb_max_fill 2
core_0_stlb_set 128
core_0_stlb_way 12
core_0_stlb_rq_size 32
core_0_stlb_wq_size 32
core_0_stlb_pq_size 0
core_0_stlb_mshr_size 16
core_0_stlb_hit_latency 4
core_0_stlb_fill_latency 4
core_0_stlb_max_tag_check 1
core_0_stlb_max_fill 1
core_0_l1i_set 64
core_0_l1i_way 8
core_0_l1i_rq_size 64
core_0_l1i_wq_size 64
core_0_l1i_pq_size 32
core_0_l1i_mshr_size 8
core_0_l1i_hit_latency 2
core_0_l1i_fill_latency 2
core_0_l1i_max_tag_check 2
core_0_l1i_max_fill 2
core_0_l1d_set 64
core_0_l1d_way 12
core_0_l1d_rq_size 64
core_0_l1d_wq_size 64
core_0_l1d_pq_size 8
core_0_l1d_mshr_size 16
core_0_l1d_hit_latency 2
core_0_l1d_fill_latency 3
core_0_l1d_max_tag_check 2
core_0_l1d_max_fill 2
core_0_l2c_set 1024
core_0_l2c_way 8
core_0_l2c_rq_size 32
core_0_l2c_wq_size 32
core_0_l2c_pq_size 16
core_0_l2c_mshr_size 32
core_0_l2c_hit_latency 5
core_0_l2c_fill_latency 5
core_0_l2c_max_tag_check 1
core_0_l2c_max_fill 1
llc_set 2048
llc_way 16
llc_rq_size 32
llc_wq_size 32
llc_pq_size 32
llc_mshr_size 64
llc_hit_latency 10
llc_fill_latency 10
llc_max_tag_check 1
llc_max_fill 1
dram_channels 1
dram_ranks 1
dram_bankgroups 8
dram_banks 4
dram_rows 65536
dram_columns 1024
dram_channel_width 8
dram_rq_size 64
dram_wq_size 64
dram_size 17179869184
core_0_itlb_prefetcher no
core_0_dtlb_prefetcher no
core_0_stlb_prefetcher no
core_0_l1i_prefetcher no
core_0_l1d_prefetcher no
core_0_l2c_prefetcher no
llc_prefetcher no
llc_replacement drrip

Core_0_instructions 100000005
Core_0_cycles 339236397
Core_0_IPC 0.29478
Core_0_branch_prediction_accuracy 98.2195
Core_0_branch_MPKI 3.27037
Core_0_average_ROB_occupancy_at_mispredict 159.532

Core_0_ITLB_total_access 5750842
Core_0_ITLB_total_hit 5750842
Core_0_ITLB_total_miss 0
Core_0_ITLB_total_MPKI 0
Core_0_ITLB_total_miss_rate 0
Core_0_ITLB_demand_access 5750842
Core_0_ITLB_demand_hit 5750842
Core_0_ITLB_demand_miss 0
Core_0_ITLB_demand_MPKI 0
Core_0_ITLB_demand_miss_rate 0
Core_0_ITLB_load_access 5750842
Core_0_ITLB_load_hit 5750842
Core_0_ITLB_load_miss 0
Core_0_ITLB_load_MPKI 0
Core_0_ITLB_load_miss_rate 0
Core_0_ITLB_rfo_access 0
Core_0_ITLB_rfo_hit 0
Core_0_ITLB_rfo_miss 0
Core_0_ITLB_rfo_MPKI 0
Core_0_ITLB_rfo_miss_rate 0
Core_0_ITLB_prefetch_access 0
Core_0_ITLB_prefetch_hit 0
Core_0_ITLB_prefetch_miss 0
Core_0_ITLB_prefetch_MPKI 0
Core_0_ITLB_prefetch_miss_rate 0
Core_0_ITLB_writeback_access 0
Core_0_ITLB_writeback_hit 0
Core_0_ITLB_writeback_miss 0
Core_0_ITLB_writeback_MPKI 0
Core_0_ITLB_writeback_miss_rate 0
Core_0_ITLB_prefetch_requested 0
Core_0_ITLB_prefetch_issued 0
Core_0_ITLB_prefetch_useful 0
Core_0_ITLB_prefetch_useless 0
Core_0_ITLB_prefetch_late 0
Core_0_ITLB_prefetch_accuracy 0
Core_0_ITLB_prefetch_coverage 0

Core_0_DTLB_total_access 25794984
Core_0_DTLB_total_hit 23604892
Core_0_DTLB_total_miss 2190092
Core_0_DTLB_total_MPKI 21.9009
Core_0_DTLB_total_miss_rate 0.0849038
Core_0_DTLB_demand_access 25794984
Core_0_DTLB_demand_hit 23604892
Core_0_DTLB_demand_miss 2190092
Core_0_DTLB_demand_MPKI 21.9009
Core_0_DTLB_demand_miss_rate 0.0849038
Core_0_DTLB_load_access 25794984
Core_0_DTLB_load_hit 23604892
Core_0_DTLB_load_miss 2190092
Core_0_DTLB_load_MPKI 21.9009
Core_0_DTLB_load_miss_rate 0.0849038
Core_0_DTLB_rfo_access 0
Core_0_DTLB_rfo_hit 0
Core_0_DTLB_rfo_miss 0
Core_0_DTLB_rfo_MPKI 0
Core_0_DTLB_rfo_miss_rate 0
Core_0_DTLB_prefetch_access 0
Core_0_DTLB_prefetch_hit 0
Core_0_DTLB_prefetch_miss 0
Core_0_DTLB_prefetch_MPKI 0
Core_0_DTLB_prefetch_miss_rate 0
Core_0_DTLB_writeback_access 0
Core_0_DTLB_writeback_hit 0
Core_0_DTLB_writeback_miss 0
Core_0_DTLB_writeback_MPKI 0
Core_0_DTLB_writeback_miss_rate 0
Core_0_DTLB_prefetch_requested 0
Core_0_DTLB_prefetch_issued 0
Core_0_DTLB_prefetch_useful 0
Core_0_DTLB_prefetch_useless 0
Core_0_DTLB_prefetch_late 0
Core_0_DTLB_prefetch_accuracy 0
Core_0_DTLB_prefetch_coverage 0

Core_0_STLB_total_access 2074372
Core_0_STLB_total_hit 410419
Core_0_STLB_total_miss 1663953
Core_0_STLB_total_MPKI 16.6395
Core_0_STLB_total_miss_rate 0.802148
Core_0_STLB_demand_access 2074372
Core_0_STLB_demand_hit 410419
Core_0_STLB_demand_miss 1663953
Core_0_STLB_demand_MPKI 16.6395
Core_0_STLB_demand_miss_rate 0.802148
Core_0_STLB_load_access 2074372
Core_0_STLB_load_hit 410419
Core_0_STLB_load_miss 1663953
Core_0_STLB_load_MPKI 16.6395
Core_0_STLB_load_miss_rate 0.802148
Core_0_STLB_rfo_access 0
Core_0_STLB_rfo_hit 0
Core_0_STLB_rfo_miss 0
Core_0_STLB_rfo_MPKI 0
Core_0_STLB_rfo_miss_rate 0
Core_0_STLB_prefetch_access 0
Core_0_STLB_prefetch_hit 0
Core_0_STLB_prefetch_miss 0
Core_0_STLB_prefetch_MPKI 0
Core_0_STLB_prefetch_miss_rate 0
Core_0_STLB_writeback_access 0
Core_0_STLB_writeback_hit 0
Core_0_STLB_writeback_miss 0
Core_0_STLB_writeback_MPKI 0
Core_0_STLB_writeback_miss_rate 0
Core_0_STLB_prefetch_requested 0
Core_0_STLB_prefetch_issued 0
Core_0_STLB_prefetch_useful 0
Core_0_STLB_prefetch_useless 0
Core_0_STLB_prefetch_late 0
Core_0_STLB_prefetch_accuracy 0
Core_0_STLB_prefetch_coverage 0

Core_0_L1I_total_access 6661078
Core_0_L1I_total_hit 6661078
Core_0_L1I_total_miss 0
Core_0_L1I_total_MPKI 0
Core_0_L1I_total_miss_rate 0
Core_0_L1I_demand_access 6661078
Core_0_L1I_demand_hit 6661078
Core_0_L1I_demand_miss 0
Core_0_L1I_demand_MPKI 0
Core_0_L1I_demand_miss_rate 0
Core_0_L1I_load_access 6661078
Core_0_L1I_load_hit 6661078
Core_0_L1I_load_miss 0
Core_0_L1I_load_MPKI 0
Core_0_L1I_load_miss_rate 0
Core_0_L1I_rfo_access 0
Core_0_L1I_rfo_hit 0
Core_0_L1I_rfo_miss 0
Core_0_L1I_rfo_MPKI 0
Core_0_L1I_rfo_miss_rate 0
Core_0_L1I_prefetch_access 0
Core_0_L1I_prefetch_hit 0
Core_0_L1I_prefetch_miss 0
Core_0_L1I_prefetch_MPKI 0
Core_0_L1I_prefetch_miss_rate 0
Core_0_L1I_writeback_access 0
Core_0_L1I_writeback_hit 0
Core_0_L1I_writeback_miss 0
Core_0_L1I_writeback_MPKI 0
Core_0_L1I_writeback_miss_rate 0
Core_0_L1I_prefetch_requested 0
Core_0_L1I_prefetch_issued 0
Core_0_L1I_prefetch_useful 0
Core_0_L1I_prefetch_useless 0
Core_0_L1I_prefetch_late 0
Core_0_L1I_prefetch_accuracy 0
Core_0_L1I_prefetch_coverage 0

Core_0_L1D_total_access 26021770
Core_0_L1D_total_hit 20756684
Core_0_L1D_total_miss 5265086
Core_0_L1D_total_MPKI 52.6509
Core_0_L1D_total_miss_rate 0.202334
Core_0_L1D_demand_access 23545543
Core_0_L1D_demand_hit 18280457
Core_0_L1D_demand_miss 5265086
Core_0_L1D_demand_MPKI 52.6509
Core_0_L1D_demand_miss_rate 0.223613
Core_0_L1D_load_access 23545543
Core_0_L1D_load_hit 18280457
Core_0_L1D_load_miss 5265086
Core_0_L1D_load_MPKI 52.6509
Core_0_L1D_load_miss_rate 0.223613
Core_0_L1D_rfo_access 0
Core_0_L1D_rfo_hit 0
Core_0_L1D_rfo_miss 0
Core_0_L1D_rfo_MPKI 0
Core_0_L1D_rfo_miss_rate 0
Core_0_L1D_prefetch_access 0
Core_0_L1D_prefetch_hit 0
Core_0_L1D_prefetch_miss 0
Core_0_L1D_prefetch_MPKI 0
Core_0_L1D_prefetch_miss_rate 0
Core_0_L1D_writeback_access 2476227
Core_0_L1D_writeback_hit 2476227
Core_0_L1D_writeback_miss 0
Core_0_L1D_writeback_MPKI 0
Core_0_L1D_writeback_miss_rate 0
Core_0_L1D_prefetch_requested 0
Core_0_L1D_prefetch_issued 0
Core_0_L1D_prefetch_useful 0
Core_0_L1D_prefetch_useless 0
Core_0_L1D_prefetch_late 0
Core_0_L1D_prefetch_accuracy 0
Core_0_L1D_prefetch_coverage 0

Core_0_L2C_total_access 4226721
Core_0_L2C_total_hit 681070
Core_0_L2C_total_miss 3545651
Core_0_L2C_total_MPKI 35.4565
Core_0_L2C_total_miss_rate 0.838866
Core_0_L2C_demand_access 3675342
Core_0_L2C_demand_hit 129725
Core_0_L2C_demand_miss 3545617
Core_0_L2C_demand_MPKI 35.4562
Core_0_L2C_demand_miss_rate 0.964704
Core_0_L2C_load_access 3675342
Core_0_L2C_load_hit 129725
Core_0_L2C_load_miss 3545617
Core_0_L2C_load_MPKI 35.4562
Core_0_L2C_load_miss_rate 0.964704
Core_0_L2C_rfo_access 0
Core_0_L2C_rfo_hit 0
Core_0_L2C_rfo_miss 0
Core_0_L2C_rfo_MPKI 0
Core_0_L2C_rfo_miss_rate 0
Core_0_L2C_prefetch_access 0
Core_0_L2C_prefetch_hit 0
Core_0_L2C_prefetch_miss 0
Core_0_L2C_prefetch_MPKI 0
Core_0_L2C_prefetch_miss_rate 0
Core_0_L2C_writeback_access 551379
Core_0_L2C_writeback_hit 551345
Core_0_L2C_writeback_miss 34
Core_0_L2C_writeback_MPKI 0.00034
Core_0_L2C_writeback_miss_rate 6.16636e-05
Core_0_L2C_prefetch_requested 0
Core_0_L2C_prefetch_issued 0
Core_0_L2C_prefetch_useful 0
Core_0_L2C_prefetch_useless 0
Core_0_L2C_prefetch_late 0
Core_0_L2C_prefetch_accuracy 0
Core_0_L2C_prefetch_coverage 0

Core_0_LLC_total_access 4090835
Core_0_LLC_total_hit 295040
Core_0_LLC_total_miss 3795795
Core_0_LLC_total_MPKI 37.9579
Core_0_LLC_total_miss_rate 0.927878
Core_0_LLC_demand_access 3545617
Core_0_LLC_demand_hit 187083
Core_0_LLC_demand_miss 3358534
Core_0_LLC_demand_MPKI 33.5853
Core_0_LLC_demand_miss_rate 0.947235
Core_0_LLC_load_access 3545617
Core_0_LLC_load_hit 187083
Core_0_LLC_load_miss 3358534
Core_0_LLC_load_MPKI 33.5853
Core_0_LLC_load_miss_rate 0.947235
Core_0_LLC_rfo_access 0
Core_0_LLC_rfo_hit 0
Core_0_LLC_rfo_miss 0
Core_0_LLC_rfo_MPKI 0
Core_0_LLC_rfo_miss_rate 0
Core_0_LLC_prefetch_access 0
Core_0_LLC_prefetch_hit 0
Core_0_LLC_prefetch_miss 0
Core_0_LLC_prefetch_MPKI 0
Core_0_LLC_prefetch_miss_rate 0
Core_0_LLC_writeback_access 545218
Core_0_LLC_writeback_hit 107957
Core_0_LLC_writeback_miss 437261
Core_0_LLC_writeback_MPKI 4.37261
Core_0_LLC_writeback_miss_rate 0.801993
Core_0_LLC_prefetch_requested 0
Core_0_LLC_prefetch_issued 0
Core_0_LLC_prefetch_useful 0
Core_0_LLC_prefetch_useless 0
Core_0_LLC_prefetch_late 0
Core_0_LLC_prefetch_accuracy 0
Core_0_LLC_prefetch_coverage 0

[DRAM Statistics]
Channel_0_RQ_row_buffer_hit 32078
Channel_0_RQ_row_buffer_miss 3392268
Channel_0_WQ_row_buffer_hit 172383
Channel_0_WQ_row_buffer_miss 355226
Channel_0_WQ_full 0
Channel_0_dbus_congested 8683539
DRAM_total_RQ_row_buffer_hit 32078
DRAM_total_RQ_row_buffer_miss 3392268
DRAM_total_WQ_row_buffer_hit 172383
DRAM_total_WQ_row_buffer_miss 355226
DRAM_total_WQ_full 0
DRAM_total_dbus_congested 8683539
DRAM_avg_congested_cycle 11.6271

====== DRAM_RQ_TRAFFIC ========
DRAM_RQ_READ_TRAFFIC_BREAKDOWN:
data_demand_read.count = 3358534
data_demand_read.share = 98.08%

inst_demand_read.count = 0
inst_demand_read.share = 0.00%

cache_inst_prefetch.count = 0
cache_inst_prefetch.share = 0.00%

cache_data_prefetch.count = 0
cache_data_prefetch.share = 0.00%

stlb_data_demand.count = 65887
stlb_data_demand.share = 1.92%

stlb_inst_demand.count = 0
stlb_inst_demand.share = 0.00%

stlb_l1i_pref.count = 0
stlb_l1i_pref.share = 0.00%

stlb_l1d_pref.count = 0
stlb_l1d_pref.share = 0.00%

DRAM_RQ_READ_TRAFFIC_SUMMARY:
cache_demand.count = 3358534
cache_demand.share = 98.08%

cache_prefetch.count = 0
cache_prefetch.share = 0.00%

stlb_demand.count = 65887
stlb_demand.share = 1.92%

stlb_prefetch.count = 0
stlb_prefetch.share = 0.00%

DRAM_RQ_READ_TRAFFIC_DEBUG:
total_classified_read.count = 3424421
unclassified_read.count = 0
total_read_with_other.count = 3424421

classified_plus_unclassified_check.count = 3424421
dram_rq_read_total_observed.count = 3424421
dram_rq_read_total_observed.per_1K_instructions = 34.2442

STLB_MISS_PTW_DRAM_TOUCH_BREAKDOWN:
stlb_miss_total.count = 1663953

stlb_miss_touch_dram.count = 65854
stlb_miss_touch_dram.share = 3.96%

stlb_miss_no_dram_touch.count = 1598099
stlb_miss_no_dram_touch.share = 96.04%

STLB_MISS_PTW_DRAM_TOUCH_DEBUG:
stlb_miss_touch_plus_no_touch.count = 1663953
stlb_miss_total_check.count = 1663953

======STLB miss causes ========
Core_0_STLB_miss_cause_breakdown
Core_0_STLB_cause_Demand_Data_miss 1663953
Core_0_STLB_cause_Demand_Data_miss_rate 0.802148
Core_0_STLB_cause_Demand_Instruction_miss 0
Core_0_STLB_cause_Demand_Instruction_miss_rate 0
Core_0_STLB_cause_L1D_Prefetch_miss 0
Core_0_STLB_cause_L1D_Prefetch_miss_rate 0
Core_0_STLB_cause_L1I_Prefetch_miss 0
Core_0_STLB_cause_L1I_Prefetch_miss_rate 0
Core_0_STLB_cause_Other_miss 0
Core_0_STLB_cause_Other_miss_rate 0
Core_0_STLB_Demand_miss 1663953
Core_0_STLB_Demand_miss_rate 0.802148
Core_0_STLB_L1D_Prefetch_miss 0
Core_0_STLB_L1D_Prefetch_miss_rate 0
Core_0_STLB_Other_miss 0
Core_0_STLB_Other_miss_rate 0
