[VMEM] WARNING: physical memory size is smaller than virtual memory size.

*** ChampSim Multicore Out-of-Order Simulator ***
Warmup Instructions: 50000000
Simulation Instructions: 100000000
Number of CPUs: 1
Page size: 4096
Core 0: /data0/tzh/champsim_traces/QMM/compute_int_44_new.xz
Off-chip DRAM Size: 16 GiB Channels: 1 Width: 64-bit Data Rate: 3205 MT/s
[BTB] WARNING: target of return is a lower address than the corresponding call. This is usually a problem with your trace.
*** Reached end of trace: (0, "/data0/tzh/champsim_traces/QMM/compute_int_44_new.xz")
Warmup halting CPU 0 at instruction 50000001 cycle 11061325 for remainder of phase
Warmup finished CPU 0 instructions: 50000001 cycles: 11061325 cumulative IPC: 4.52 (Simulation time: 00 hr 01 min 50 sec)
Warmup complete CPU 0 instructions: 50000001 cycles: 11061325 cumulative IPC: 4.52 (Simulation time: 00 hr 01 min 50 sec)
[BTB] WARNING: target of return is a lower address than the corresponding call. This is usually a problem with your trace.
*** Reached end of trace: (0, "/data0/tzh/champsim_traces/QMM/compute_int_44_new.xz")
[BTB] WARNING: target of return is a lower address than the corresponding call. This is usually a problem with your trace.
*** Reached end of trace: (0, "/data0/tzh/champsim_traces/QMM/compute_int_44_new.xz")
[BTB] WARNING: target of return is a lower address than the corresponding call. This is usually a problem with your trace.
*** Reached end of trace: (0, "/data0/tzh/champsim_traces/QMM/compute_int_44_new.xz")
[BTB] WARNING: target of return is a lower address than the corresponding call. This is usually a problem with your trace.
Simulation finished CPU 0 instructions: 100000000 cycles: 84299572 cumulative IPC: 1.186 (Simulation time: 00 hr 09 min 17 sec)
Simulation complete CPU 0 instructions: 100000000 cycles: 84299572 cumulative IPC: 1.186 (Simulation time: 00 hr 09 min 17 sec)

ChampSim completed all CPUs

=== Simulation ===
CPU 0 runs /data0/tzh/champsim_traces/QMM/compute_int_44_new.xz

Region of Interest Statistics

CPU 0 cumulative IPC: 1.186 instructions: 100000000 cycles: 84299572
CPU 0 Branch Prediction Accuracy: 94.15% MPKI: 9.912 Average ROB Occupancy at Mispredict: 42.57
Branch type MPKI
BRANCH_DIRECT_JUMP: 0
BRANCH_INDIRECT: 0.8024
BRANCH_CONDITIONAL: 9.109
BRANCH_DIRECT_CALL: 0
BRANCH_INDIRECT_CALL: 0.00035
BRANCH_RETURN: 8e-05

cpu0->cpu0_STLB TOTAL        ACCESS:     542693 HIT:     463226 MISS:      79467 MSHR_MERGE:          0
cpu0->cpu0_STLB LOAD         ACCESS:     542693 HIT:     463226 MISS:      79467 MSHR_MERGE:          0
cpu0->cpu0_STLB RFO          ACCESS:          0 HIT:          0 MISS:          0 MSHR_MERGE:          0
cpu0->cpu0_STLB PREFETCH     ACCESS:          0 HIT:          0 MISS:          0 MSHR_MERGE:          0
cpu0->cpu0_STLB WRITE        ACCESS:          0 HIT:          0 MISS:          0 MSHR_MERGE:          0
cpu0->cpu0_STLB TRANSLATION  ACCESS:          0 HIT:          0 MISS:          0 MSHR_MERGE:          0
cpu0->cpu0_STLB PREFETCH REQUESTED:          0 ISSUED:          0 USEFUL:          0 USELESS:          0 LATE:          0
cpu0->cpu0_STLB AVERAGE MISS LATENCY: 23.79 cycles
cpu0->cpu0_L2C TOTAL        ACCESS:    1075620 HIT:     788455 MISS:     287165 MSHR_MERGE:          0
cpu0->cpu0_L2C LOAD         ACCESS:     467757 HIT:     239383 MISS:     228374 MSHR_MERGE:          0
cpu0->cpu0_L2C RFO          ACCESS:     125314 HIT:      79673 MISS:      45641 MSHR_MERGE:          0
cpu0->cpu0_L2C PREFETCH     ACCESS:          0 HIT:          0 MISS:          0 MSHR_MERGE:          0
cpu0->cpu0_L2C WRITE        ACCESS:     415662 HIT:     415246 MISS:        416 MSHR_MERGE:          0
cpu0->cpu0_L2C TRANSLATION  ACCESS:      66887 HIT:      54153 MISS:      12734 MSHR_MERGE:          0
cpu0->cpu0_L2C PREFETCH REQUESTED:          0 ISSUED:          0 USEFUL:          0 USELESS:          0 LATE:          0
cpu0->cpu0_L2C AVERAGE MISS LATENCY: 107.2 cycles
cpu0->cpu0_L1I TOTAL        ACCESS:    2862805 HIT:    2856670 MISS:       6135 MSHR_MERGE:       2159
cpu0->cpu0_L1I LOAD         ACCESS:    2862805 HIT:    2856670 MISS:       6135 MSHR_MERGE:       2159
cpu0->cpu0_L1I RFO          ACCESS:          0 HIT:          0 MISS:          0 MSHR_MERGE:          0
cpu0->cpu0_L1I PREFETCH     ACCESS:          0 HIT:          0 MISS:          0 MSHR_MERGE:          0
cpu0->cpu0_L1I WRITE        ACCESS:          0 HIT:          0 MISS:          0 MSHR_MERGE:          0
cpu0->cpu0_L1I TRANSLATION  ACCESS:          0 HIT:          0 MISS:          0 MSHR_MERGE:          0
cpu0->cpu0_L1I PREFETCH REQUESTED:          0 ISSUED:          0 USEFUL:          0 USELESS:          0 LATE:          0
cpu0->cpu0_L1I AVERAGE MISS LATENCY: 249 cycles
cpu0->cpu0_L1D TOTAL        ACCESS:   21265163 HIT:   20328041 MISS:     937122 MSHR_MERGE:     280850
cpu0->cpu0_L1D LOAD         ACCESS:   16769323 HIT:   16110110 MISS:     659213 MSHR_MERGE:     195424
cpu0->cpu0_L1D RFO          ACCESS:          0 HIT:          0 MISS:          0 MSHR_MERGE:          0
cpu0->cpu0_L1D PREFETCH     ACCESS:          0 HIT:          0 MISS:          0 MSHR_MERGE:          0
cpu0->cpu0_L1D WRITE        ACCESS:    4336749 HIT:    4125778 MISS:     210971 MSHR_MERGE:      85375
cpu0->cpu0_L1D TRANSLATION  ACCESS:     159091 HIT:      92153 MISS:      66938 MSHR_MERGE:         51
cpu0->cpu0_L1D PREFETCH REQUESTED:          0 ISSUED:          0 USEFUL:          0 USELESS:          0 LATE:          0
cpu0->cpu0_L1D AVERAGE MISS LATENCY: 53.93 cycles
cpu0->cpu0_ITLB TOTAL        ACCESS:    2521735 HIT:    2520769 MISS:        966 MSHR_MERGE:        606
cpu0->cpu0_ITLB LOAD         ACCESS:    2521735 HIT:    2520769 MISS:        966 MSHR_MERGE:        606
cpu0->cpu0_ITLB RFO          ACCESS:          0 HIT:          0 MISS:          0 MSHR_MERGE:          0
cpu0->cpu0_ITLB PREFETCH     ACCESS:          0 HIT:          0 MISS:          0 MSHR_MERGE:          0
cpu0->cpu0_ITLB WRITE        ACCESS:          0 HIT:          0 MISS:          0 MSHR_MERGE:          0
cpu0->cpu0_ITLB TRANSLATION  ACCESS:          0 HIT:          0 MISS:          0 MSHR_MERGE:          0
cpu0->cpu0_ITLB PREFETCH REQUESTED:          0 ISSUED:          0 USEFUL:          0 USELESS:          0 LATE:          0
cpu0->cpu0_ITLB AVERAGE MISS LATENCY: 150.3 cycles
cpu0->cpu0_DTLB TOTAL        ACCESS:   20566221 HIT:   19914742 MISS:     651479 MSHR_MERGE:     109146
cpu0->cpu0_DTLB LOAD         ACCESS:   20566221 HIT:   19914742 MISS:     651479 MSHR_MERGE:     109146
cpu0->cpu0_DTLB RFO          ACCESS:          0 HIT:          0 MISS:          0 MSHR_MERGE:          0
cpu0->cpu0_DTLB PREFETCH     ACCESS:          0 HIT:          0 MISS:          0 MSHR_MERGE:          0
cpu0->cpu0_DTLB WRITE        ACCESS:          0 HIT:          0 MISS:          0 MSHR_MERGE:          0
cpu0->cpu0_DTLB TRANSLATION  ACCESS:          0 HIT:          0 MISS:          0 MSHR_MERGE:          0
cpu0->cpu0_DTLB PREFETCH REQUESTED:          0 ISSUED:          0 USEFUL:          0 USELESS:          0 LATE:          0
cpu0->cpu0_DTLB AVERAGE MISS LATENCY: 8.536 cycles
cpu0->LLC TOTAL        ACCESS:     476471 HIT:     263061 MISS:     213410 MSHR_MERGE:          0
cpu0->LLC LOAD         ACCESS:     228374 HIT:     118792 MISS:     109582 MSHR_MERGE:          0
cpu0->LLC RFO          ACCESS:      45641 HIT:      19263 MISS:      26378 MSHR_MERGE:          0
cpu0->LLC PREFETCH     ACCESS:          0 HIT:          0 MISS:          0 MSHR_MERGE:          0
cpu0->LLC WRITE        ACCESS:     189722 HIT:     113620 MISS:      76102 MSHR_MERGE:          0
cpu0->LLC TRANSLATION  ACCESS:      12734 HIT:      11386 MISS:       1348 MSHR_MERGE:          0
cpu0->LLC PREFETCH REQUESTED:          0 ISSUED:          0 USEFUL:          0 USELESS:          0 LATE:          0
cpu0->LLC AVERAGE MISS LATENCY: 126.7 cycles

DRAM Statistics

Channel 0 RQ ROW_BUFFER_HIT:       1682
  ROW_BUFFER_MISS:     135618
  AVG DBUS CONGESTED CYCLE: 18.76
Channel 0 WQ ROW_BUFFER_HIT:      16430
  ROW_BUFFER_MISS:      80413
  FULL:         37
Channel 0 REFRESHES ISSUED:       7025

[ROI Statistics]
[System Configuration]
num_cpus 1
cpu_freq 4000
fetch_width 6
decode_width 6
dispatch_width 6
execute_width 6
lq_width 2
sq_width 2
retire_width 6
scheduler_size 128
branch_mispredict_penalty 15
rob_size 352
lq_size 128
sq_size 72
ifetch_buffer_size 64
decode_buffer_size 32
dispatch_buffer_size 32
register_file_size 288
decode_latency 1
dispatch_latency 1
schedule_latency 1
execute_latency 1
page_size 4096
block_size 64
core_0_itlb_set 16
core_0_itlb_way 4
core_0_itlb_rq_size 16
core_0_itlb_wq_size 16
core_0_itlb_pq_size 0
core_0_itlb_mshr_size 8
core_0_itlb_hit_latency 1
core_0_itlb_fill_latency 1
core_0_itlb_max_tag_check 2
core_0_itlb_max_fill 2
core_0_dtlb_set 16
core_0_dtlb_way 4
core_0_dtlb_rq_size 16
core_0_dtlb_wq_size 16
core_0_dtlb_pq_size 0
core_0_dtlb_mshr_size 8
core_0_dtlb_hit_latency 1
core_0_dtlb_fill_latency 1
core_0_dtlb_max_tag_check 2
core_0_dtlb_max_fill 2
core_0_stlb_set 128
core_0_stlb_way 12
core_0_stlb_rq_size 32
core_0_stlb_wq_size 32
core_0_stlb_pq_size 0
core_0_stlb_mshr_size 16
core_0_stlb_hit_latency 4
core_0_stlb_fill_latency 4
core_0_stlb_max_tag_check 1
core_0_stlb_max_fill 1
core_0_l1i_set 64
core_0_l1i_way 8
core_0_l1i_rq_size 64
core_0_l1i_wq_size 64
core_0_l1i_pq_size 32
core_0_l1i_mshr_size 8
core_0_l1i_hit_latency 2
core_0_l1i_fill_latency 2
core_0_l1i_max_tag_check 2
core_0_l1i_max_fill 2
core_0_l1d_set 64
core_0_l1d_way 12
core_0_l1d_rq_size 64
core_0_l1d_wq_size 64
core_0_l1d_pq_size 8
core_0_l1d_mshr_size 16
core_0_l1d_hit_latency 2
core_0_l1d_fill_latency 3
core_0_l1d_max_tag_check 2
core_0_l1d_max_fill 2
core_0_l2c_set 1024
core_0_l2c_way 8
core_0_l2c_rq_size 32
core_0_l2c_wq_size 32
core_0_l2c_pq_size 16
core_0_l2c_mshr_size 32
core_0_l2c_hit_latency 5
core_0_l2c_fill_latency 5
core_0_l2c_max_tag_check 1
core_0_l2c_max_fill 1
llc_set 2048
llc_way 16
llc_rq_size 32
llc_wq_size 32
llc_pq_size 32
llc_mshr_size 64
llc_hit_latency 10
llc_fill_latency 10
llc_max_tag_check 1
llc_max_fill 1
dram_channels 1
dram_ranks 1
dram_bankgroups 8
dram_banks 4
dram_rows 65536
dram_columns 1024
dram_channel_width 8
dram_rq_size 64
dram_wq_size 64
dram_size 17179869184
core_0_itlb_prefetcher no
core_0_dtlb_prefetcher no
core_0_stlb_prefetcher no
core_0_l1i_prefetcher no
core_0_l1d_prefetcher no
core_0_l2c_prefetcher no
llc_prefetcher no
llc_replacement drrip

Core_0_instructions 100000000
Core_0_cycles 84299572
Core_0_IPC 1.18625
Core_0_branch_prediction_accuracy 94.1512
Core_0_branch_MPKI 9.91204
Core_0_average_ROB_occupancy_at_mispredict 42.5653

Core_0_ITLB_total_access 2521735
Core_0_ITLB_total_hit 2520769
Core_0_ITLB_total_miss 966
Core_0_ITLB_total_MPKI 0.00966
Core_0_ITLB_total_miss_rate 0.00038307
Core_0_ITLB_demand_access 2521735
Core_0_ITLB_demand_hit 2520769
Core_0_ITLB_demand_miss 966
Core_0_ITLB_demand_MPKI 0.00966
Core_0_ITLB_demand_miss_rate 0.00038307
Core_0_ITLB_load_access 2521735
Core_0_ITLB_load_hit 2520769
Core_0_ITLB_load_miss 966
Core_0_ITLB_load_MPKI 0.00966
Core_0_ITLB_load_miss_rate 0.00038307
Core_0_ITLB_rfo_access 0
Core_0_ITLB_rfo_hit 0
Core_0_ITLB_rfo_miss 0
Core_0_ITLB_rfo_MPKI 0
Core_0_ITLB_rfo_miss_rate 0
Core_0_ITLB_prefetch_access 0
Core_0_ITLB_prefetch_hit 0
Core_0_ITLB_prefetch_miss 0
Core_0_ITLB_prefetch_MPKI 0
Core_0_ITLB_prefetch_miss_rate 0
Core_0_ITLB_writeback_access 0
Core_0_ITLB_writeback_hit 0
Core_0_ITLB_writeback_miss 0
Core_0_ITLB_writeback_MPKI 0
Core_0_ITLB_writeback_miss_rate 0
Core_0_ITLB_prefetch_requested 0
Core_0_ITLB_prefetch_issued 0
Core_0_ITLB_prefetch_useful 0
Core_0_ITLB_prefetch_useless 0
Core_0_ITLB_prefetch_late 0
Core_0_ITLB_prefetch_accuracy 0
Core_0_ITLB_prefetch_coverage 0

Core_0_DTLB_total_access 20566221
Core_0_DTLB_total_hit 19914742
Core_0_DTLB_total_miss 651479
Core_0_DTLB_total_MPKI 6.51479
Core_0_DTLB_total_miss_rate 0.0316771
Core_0_DTLB_demand_access 20566221
Core_0_DTLB_demand_hit 19914742
Core_0_DTLB_demand_miss 651479
Core_0_DTLB_demand_MPKI 6.51479
Core_0_DTLB_demand_miss_rate 0.0316771
Core_0_DTLB_load_access 20566221
Core_0_DTLB_load_hit 19914742
Core_0_DTLB_load_miss 651479
Core_0_DTLB_load_MPKI 6.51479
Core_0_DTLB_load_miss_rate 0.0316771
Core_0_DTLB_rfo_access 0
Core_0_DTLB_rfo_hit 0
Core_0_DTLB_rfo_miss 0
Core_0_DTLB_rfo_MPKI 0
Core_0_DTLB_rfo_miss_rate 0
Core_0_DTLB_prefetch_access 0
Core_0_DTLB_prefetch_hit 0
Core_0_DTLB_prefetch_miss 0
Core_0_DTLB_prefetch_MPKI 0
Core_0_DTLB_prefetch_miss_rate 0
Core_0_DTLB_writeback_access 0
Core_0_DTLB_writeback_hit 0
Core_0_DTLB_writeback_miss 0
Core_0_DTLB_writeback_MPKI 0
Core_0_DTLB_writeback_miss_rate 0
Core_0_DTLB_prefetch_requested 0
Core_0_DTLB_prefetch_issued 0
Core_0_DTLB_prefetch_useful 0
Core_0_DTLB_prefetch_useless 0
Core_0_DTLB_prefetch_late 0
Core_0_DTLB_prefetch_accuracy 0
Core_0_DTLB_prefetch_coverage 0

Core_0_STLB_total_access 542693
Core_0_STLB_total_hit 463226
Core_0_STLB_total_miss 79467
Core_0_STLB_total_MPKI 0.79467
Core_0_STLB_total_miss_rate 0.146431
Core_0_STLB_demand_access 542693
Core_0_STLB_demand_hit 463226
Core_0_STLB_demand_miss 79467
Core_0_STLB_demand_MPKI 0.79467
Core_0_STLB_demand_miss_rate 0.146431
Core_0_STLB_load_access 542693
Core_0_STLB_load_hit 463226
Core_0_STLB_load_miss 79467
Core_0_STLB_load_MPKI 0.79467
Core_0_STLB_load_miss_rate 0.146431
Core_0_STLB_rfo_access 0
Core_0_STLB_rfo_hit 0
Core_0_STLB_rfo_miss 0
Core_0_STLB_rfo_MPKI 0
Core_0_STLB_rfo_miss_rate 0
Core_0_STLB_prefetch_access 0
Core_0_STLB_prefetch_hit 0
Core_0_STLB_prefetch_miss 0
Core_0_STLB_prefetch_MPKI 0
Core_0_STLB_prefetch_miss_rate 0
Core_0_STLB_writeback_access 0
Core_0_STLB_writeback_hit 0
Core_0_STLB_writeback_miss 0
Core_0_STLB_writeback_MPKI 0
Core_0_STLB_writeback_miss_rate 0
Core_0_STLB_prefetch_requested 0
Core_0_STLB_prefetch_issued 0
Core_0_STLB_prefetch_useful 0
Core_0_STLB_prefetch_useless 0
Core_0_STLB_prefetch_late 0
Core_0_STLB_prefetch_accuracy 0
Core_0_STLB_prefetch_coverage 0

Core_0_L1I_total_access 2862805
Core_0_L1I_total_hit 2856670
Core_0_L1I_total_miss 6135
Core_0_L1I_total_MPKI 0.06135
Core_0_L1I_total_miss_rate 0.002143
Core_0_L1I_demand_access 2862805
Core_0_L1I_demand_hit 2856670
Core_0_L1I_demand_miss 6135
Core_0_L1I_demand_MPKI 0.06135
Core_0_L1I_demand_miss_rate 0.002143
Core_0_L1I_load_access 2862805
Core_0_L1I_load_hit 2856670
Core_0_L1I_load_miss 6135
Core_0_L1I_load_MPKI 0.06135
Core_0_L1I_load_miss_rate 0.002143
Core_0_L1I_rfo_access 0
Core_0_L1I_rfo_hit 0
Core_0_L1I_rfo_miss 0
Core_0_L1I_rfo_MPKI 0
Core_0_L1I_rfo_miss_rate 0
Core_0_L1I_prefetch_access 0
Core_0_L1I_prefetch_hit 0
Core_0_L1I_prefetch_miss 0
Core_0_L1I_prefetch_MPKI 0
Core_0_L1I_prefetch_miss_rate 0
Core_0_L1I_writeback_access 0
Core_0_L1I_writeback_hit 0
Core_0_L1I_writeback_miss 0
Core_0_L1I_writeback_MPKI 0
Core_0_L1I_writeback_miss_rate 0
Core_0_L1I_prefetch_requested 0
Core_0_L1I_prefetch_issued 0
Core_0_L1I_prefetch_useful 0
Core_0_L1I_prefetch_useless 0
Core_0_L1I_prefetch_late 0
Core_0_L1I_prefetch_accuracy 0
Core_0_L1I_prefetch_coverage 0

Core_0_L1D_total_access 21106072
Core_0_L1D_total_hit 20235888
Core_0_L1D_total_miss 870184
Core_0_L1D_total_MPKI 8.70184
Core_0_L1D_total_miss_rate 0.0412291
Core_0_L1D_demand_access 16769323
Core_0_L1D_demand_hit 16110110
Core_0_L1D_demand_miss 659213
Core_0_L1D_demand_MPKI 6.59213
Core_0_L1D_demand_miss_rate 0.0393107
Core_0_L1D_load_access 16769323
Core_0_L1D_load_hit 16110110
Core_0_L1D_load_miss 659213
Core_0_L1D_load_MPKI 6.59213
Core_0_L1D_load_miss_rate 0.0393107
Core_0_L1D_rfo_access 0
Core_0_L1D_rfo_hit 0
Core_0_L1D_rfo_miss 0
Core_0_L1D_rfo_MPKI 0
Core_0_L1D_rfo_miss_rate 0
Core_0_L1D_prefetch_access 0
Core_0_L1D_prefetch_hit 0
Core_0_L1D_prefetch_miss 0
Core_0_L1D_prefetch_MPKI 0
Core_0_L1D_prefetch_miss_rate 0
Core_0_L1D_writeback_access 4336749
Core_0_L1D_writeback_hit 4125778
Core_0_L1D_writeback_miss 210971
Core_0_L1D_writeback_MPKI 2.10971
Core_0_L1D_writeback_miss_rate 0.0486473
Core_0_L1D_prefetch_requested 0
Core_0_L1D_prefetch_issued 0
Core_0_L1D_prefetch_useful 0
Core_0_L1D_prefetch_useless 0
Core_0_L1D_prefetch_late 0
Core_0_L1D_prefetch_accuracy 0
Core_0_L1D_prefetch_coverage 0

Core_0_L2C_total_access 1008733
Core_0_L2C_total_hit 734302
Core_0_L2C_total_miss 274431
Core_0_L2C_total_MPKI 2.74431
Core_0_L2C_total_miss_rate 0.272055
Core_0_L2C_demand_access 593071
Core_0_L2C_demand_hit 319056
Core_0_L2C_demand_miss 274015
Core_0_L2C_demand_MPKI 2.74015
Core_0_L2C_demand_miss_rate 0.462027
Core_0_L2C_load_access 467757
Core_0_L2C_load_hit 239383
Core_0_L2C_load_miss 228374
Core_0_L2C_load_MPKI 2.28374
Core_0_L2C_load_miss_rate 0.488232
Core_0_L2C_rfo_access 125314
Core_0_L2C_rfo_hit 79673
Core_0_L2C_rfo_miss 45641
Core_0_L2C_rfo_MPKI 0.45641
Core_0_L2C_rfo_miss_rate 0.364213
Core_0_L2C_prefetch_access 0
Core_0_L2C_prefetch_hit 0
Core_0_L2C_prefetch_miss 0
Core_0_L2C_prefetch_MPKI 0
Core_0_L2C_prefetch_miss_rate 0
Core_0_L2C_writeback_access 415662
Core_0_L2C_writeback_hit 415246
Core_0_L2C_writeback_miss 416
Core_0_L2C_writeback_MPKI 0.00416
Core_0_L2C_writeback_miss_rate 0.00100081
Core_0_L2C_prefetch_requested 0
Core_0_L2C_prefetch_issued 0
Core_0_L2C_prefetch_useful 0
Core_0_L2C_prefetch_useless 0
Core_0_L2C_prefetch_late 0
Core_0_L2C_prefetch_accuracy 0
Core_0_L2C_prefetch_coverage 0

Core_0_LLC_total_access 463737
Core_0_LLC_total_hit 251675
Core_0_LLC_total_miss 212062
Core_0_LLC_total_MPKI 2.12062
Core_0_LLC_total_miss_rate 0.457289
Core_0_LLC_demand_access 274015
Core_0_LLC_demand_hit 138055
Core_0_LLC_demand_miss 135960
Core_0_LLC_demand_MPKI 1.3596
Core_0_LLC_demand_miss_rate 0.496177
Core_0_LLC_load_access 228374
Core_0_LLC_load_hit 118792
Core_0_LLC_load_miss 109582
Core_0_LLC_load_MPKI 1.09582
Core_0_LLC_load_miss_rate 0.479836
Core_0_LLC_rfo_access 45641
Core_0_LLC_rfo_hit 19263
Core_0_LLC_rfo_miss 26378
Core_0_LLC_rfo_MPKI 0.26378
Core_0_LLC_rfo_miss_rate 0.577945
Core_0_LLC_prefetch_access 0
Core_0_LLC_prefetch_hit 0
Core_0_LLC_prefetch_miss 0
Core_0_LLC_prefetch_MPKI 0
Core_0_LLC_prefetch_miss_rate 0
Core_0_LLC_writeback_access 189722
Core_0_LLC_writeback_hit 113620
Core_0_LLC_writeback_miss 76102
Core_0_LLC_writeback_MPKI 0.76102
Core_0_LLC_writeback_miss_rate 0.401124
Core_0_LLC_prefetch_requested 0
Core_0_LLC_prefetch_issued 0
Core_0_LLC_prefetch_useful 0
Core_0_LLC_prefetch_useless 0
Core_0_LLC_prefetch_late 0
Core_0_LLC_prefetch_accuracy 0
Core_0_LLC_prefetch_coverage 0

[DRAM Statistics]
Channel_0_RQ_row_buffer_hit 1682
Channel_0_RQ_row_buffer_miss 135618
Channel_0_WQ_row_buffer_hit 16430
Channel_0_WQ_row_buffer_miss 80413
Channel_0_WQ_full 37
Channel_0_dbus_congested 829190
DRAM_total_RQ_row_buffer_hit 1682
DRAM_total_RQ_row_buffer_miss 135618
DRAM_total_WQ_row_buffer_hit 16430
DRAM_total_WQ_row_buffer_miss 80413
DRAM_total_WQ_full 37
DRAM_total_dbus_congested 829190
DRAM_avg_congested_cycle 18.761

====== DRAM_RQ_TRAFFIC ========
DRAM_RQ_READ_TRAFFIC_BREAKDOWN:
data_demand_read.count = 132247
data_demand_read.share = 96.31%

inst_demand_read.count = 3713
inst_demand_read.share = 2.70%

cache_inst_prefetch.count = 0
cache_inst_prefetch.share = 0.00%

cache_data_prefetch.count = 0
cache_data_prefetch.share = 0.00%

stlb_data_demand.count = 1199
stlb_data_demand.share = 0.87%

stlb_inst_demand.count = 149
stlb_inst_demand.share = 0.11%

stlb_l1i_pref.count = 0
stlb_l1i_pref.share = 0.00%

stlb_l1d_pref.count = 0
stlb_l1d_pref.share = 0.00%

DRAM_RQ_READ_TRAFFIC_SUMMARY:
cache_demand.count = 135960
cache_demand.share = 99.02%

cache_prefetch.count = 0
cache_prefetch.share = 0.00%

stlb_demand.count = 1348
stlb_demand.share = 0.98%

stlb_prefetch.count = 0
stlb_prefetch.share = 0.00%

DRAM_RQ_READ_TRAFFIC_DEBUG:
total_classified_read.count = 137308
unclassified_read.count = 0
total_read_with_other.count = 137308

classified_plus_unclassified_check.count = 137308
dram_rq_read_total_observed.count = 137308
dram_rq_read_total_observed.per_1K_instructions = 1.37308

STLB_MISS_PTW_DRAM_TOUCH_BREAKDOWN:
stlb_miss_total.count = 79467

stlb_miss_touch_dram.count = 1291
stlb_miss_touch_dram.share = 1.62%

stlb_miss_no_dram_touch.count = 78176
stlb_miss_no_dram_touch.share = 98.38%

STLB_MISS_PTW_DRAM_TOUCH_DEBUG:
stlb_miss_touch_plus_no_touch.count = 79467
stlb_miss_total_check.count = 79467

======STLB miss causes ========
Core_0_STLB_miss_cause_breakdown
Core_0_STLB_cause_Demand_Data_miss 79151
Core_0_STLB_cause_Demand_Data_miss_rate 0.145849
Core_0_STLB_cause_Demand_Instruction_miss 316
Core_0_STLB_cause_Demand_Instruction_miss_rate 0.000582281
Core_0_STLB_cause_L1D_Prefetch_miss 0
Core_0_STLB_cause_L1D_Prefetch_miss_rate 0
Core_0_STLB_cause_L1I_Prefetch_miss 0
Core_0_STLB_cause_L1I_Prefetch_miss_rate 0
Core_0_STLB_cause_Other_miss 0
Core_0_STLB_cause_Other_miss_rate 0
Core_0_STLB_Demand_miss 79467
Core_0_STLB_Demand_miss_rate 0.146431
Core_0_STLB_L1D_Prefetch_miss 0
Core_0_STLB_L1D_Prefetch_miss_rate 0
Core_0_STLB_Other_miss 0
Core_0_STLB_Other_miss_rate 0
