[VMEM] WARNING: physical memory size is smaller than virtual memory size.

*** ChampSim Multicore Out-of-Order Simulator ***
Warmup Instructions: 50000000
Simulation Instructions: 100000000
Number of CPUs: 1
Page size: 4096
Core 0: /data2/zcq/champsim_traces_xsbench/xs.XXL100hash-552B.champsimtrace.xz
Off-chip DRAM Size: 16 GiB Channels: 1 Width: 64-bit Data Rate: 3205 MT/s
Warmup halting CPU 0 at instruction 50000001 cycle 32571416 for remainder of phase
Warmup finished CPU 0 instructions: 50000001 cycles: 32571416 cumulative IPC: 1.535 (Simulation time: 00 hr 04 min 54 sec)
Warmup complete CPU 0 instructions: 50000001 cycles: 32571416 cumulative IPC: 1.535 (Simulation time: 00 hr 04 min 54 sec)
Simulation finished CPU 0 instructions: 100000005 cycles: 508911958 cumulative IPC: 0.1965 (Simulation time: 00 hr 38 min 27 sec)
Simulation complete CPU 0 instructions: 100000005 cycles: 508911958 cumulative IPC: 0.1965 (Simulation time: 00 hr 38 min 27 sec)

ChampSim completed all CPUs

=== Simulation ===
CPU 0 runs /data2/zcq/champsim_traces_xsbench/xs.XXL100hash-552B.champsimtrace.xz

Region of Interest Statistics

CPU 0 cumulative IPC: 0.1965 instructions: 100000005 cycles: 508911958
CPU 0 Branch Prediction Accuracy: 92.93% MPKI: 10.21 Average ROB Occupancy at Mispredict: 65.78
Branch type MPKI
BRANCH_DIRECT_JUMP: 1e-05
BRANCH_INDIRECT: 0
BRANCH_CONDITIONAL: 10.21
BRANCH_DIRECT_CALL: 0
BRANCH_INDIRECT_CALL: 0
BRANCH_RETURN: 0

cpu0->cpu0_STLB TOTAL        ACCESS:     946847 HIT:      12876 MISS:     933971 MSHR_MERGE:          0
cpu0->cpu0_STLB LOAD         ACCESS:     946847 HIT:      12876 MISS:     933971 MSHR_MERGE:          0
cpu0->cpu0_STLB RFO          ACCESS:          0 HIT:          0 MISS:          0 MSHR_MERGE:          0
cpu0->cpu0_STLB PREFETCH     ACCESS:          0 HIT:          0 MISS:          0 MSHR_MERGE:          0
cpu0->cpu0_STLB WRITE        ACCESS:          0 HIT:          0 MISS:          0 MSHR_MERGE:          0
cpu0->cpu0_STLB TRANSLATION  ACCESS:          0 HIT:          0 MISS:          0 MSHR_MERGE:          0
cpu0->cpu0_STLB PREFETCH REQUESTED:          0 ISSUED:          0 USEFUL:          0 USELESS:          0 LATE:          0
cpu0->cpu0_STLB AVERAGE MISS LATENCY: 366.7 cycles
cpu0->cpu0_L2C TOTAL        ACCESS:    5721684 HIT:     552770 MISS:    5168914 MSHR_MERGE:          0
cpu0->cpu0_L2C LOAD         ACCESS:    4543777 HIT:     110526 MISS:    4433251 MSHR_MERGE:          0
cpu0->cpu0_L2C RFO          ACCESS:      12766 HIT:      12740 MISS:         26 MSHR_MERGE:          0
cpu0->cpu0_L2C PREFETCH     ACCESS:          0 HIT:          0 MISS:          0 MSHR_MERGE:          0
cpu0->cpu0_L2C WRITE        ACCESS:      17208 HIT:      17178 MISS:         30 MSHR_MERGE:          0
cpu0->cpu0_L2C TRANSLATION  ACCESS:    1147933 HIT:     412326 MISS:     735607 MSHR_MERGE:          0
cpu0->cpu0_L2C PREFETCH REQUESTED:          0 ISSUED:          0 USEFUL:          0 USELESS:          0 LATE:          0
cpu0->cpu0_L2C AVERAGE MISS LATENCY: 218.5 cycles
cpu0->cpu0_L1I TOTAL        ACCESS:     321399 HIT:     321399 MISS:          0 MSHR_MERGE:          0
cpu0->cpu0_L1I LOAD         ACCESS:     321399 HIT:     321399 MISS:          0 MSHR_MERGE:          0
cpu0->cpu0_L1I RFO          ACCESS:          0 HIT:          0 MISS:          0 MSHR_MERGE:          0
cpu0->cpu0_L1I PREFETCH     ACCESS:          0 HIT:          0 MISS:          0 MSHR_MERGE:          0
cpu0->cpu0_L1I WRITE        ACCESS:          0 HIT:          0 MISS:          0 MSHR_MERGE:          0
cpu0->cpu0_L1I TRANSLATION  ACCESS:          0 HIT:          0 MISS:          0 MSHR_MERGE:          0
cpu0->cpu0_L1I PREFETCH REQUESTED:          0 ISSUED:          0 USEFUL:          0 USELESS:          0 LATE:          0
cpu0->cpu0_L1I AVERAGE MISS LATENCY: - cycles
cpu0->cpu0_L1D TOTAL        ACCESS:   19395444 HIT:   12351418 MISS:    7044026 MSHR_MERGE:    1339513
cpu0->cpu0_L1D LOAD         ACCESS:   13906021 HIT:    8365425 MISS:    5540596 MSHR_MERGE:     996819
cpu0->cpu0_L1D RFO          ACCESS:          0 HIT:          0 MISS:          0 MSHR_MERGE:          0
cpu0->cpu0_L1D PREFETCH     ACCESS:          0 HIT:          0 MISS:          0 MSHR_MERGE:          0
cpu0->cpu0_L1D WRITE        ACCESS:    3259753 HIT:    3228068 MISS:      31685 MSHR_MERGE:      18881
cpu0->cpu0_L1D TRANSLATION  ACCESS:    2229670 HIT:     757925 MISS:    1471745 MSHR_MERGE:     323813
cpu0->cpu0_L1D PREFETCH REQUESTED:          0 ISSUED:          0 USEFUL:          0 USELESS:          0 LATE:          0
cpu0->cpu0_L1D AVERAGE MISS LATENCY: 207.5 cycles
cpu0->cpu0_ITLB TOTAL        ACCESS:     264984 HIT:     264984 MISS:          0 MSHR_MERGE:          0
cpu0->cpu0_ITLB LOAD         ACCESS:     264984 HIT:     264984 MISS:          0 MSHR_MERGE:          0
cpu0->cpu0_ITLB RFO          ACCESS:          0 HIT:          0 MISS:          0 MSHR_MERGE:          0
cpu0->cpu0_ITLB PREFETCH     ACCESS:          0 HIT:          0 MISS:          0 MSHR_MERGE:          0
cpu0->cpu0_ITLB WRITE        ACCESS:          0 HIT:          0 MISS:          0 MSHR_MERGE:          0
cpu0->cpu0_ITLB TRANSLATION  ACCESS:          0 HIT:          0 MISS:          0 MSHR_MERGE:          0
cpu0->cpu0_ITLB PREFETCH REQUESTED:          0 ISSUED:          0 USEFUL:          0 USELESS:          0 LATE:          0
cpu0->cpu0_ITLB AVERAGE MISS LATENCY: - cycles
cpu0->cpu0_DTLB TOTAL        ACCESS:   17048538 HIT:   13655570 MISS:    3392968 MSHR_MERGE:    2446121
cpu0->cpu0_DTLB LOAD         ACCESS:   17048538 HIT:   13655570 MISS:    3392968 MSHR_MERGE:    2446121
cpu0->cpu0_DTLB RFO          ACCESS:          0 HIT:          0 MISS:          0 MSHR_MERGE:          0
cpu0->cpu0_DTLB PREFETCH     ACCESS:          0 HIT:          0 MISS:          0 MSHR_MERGE:          0
cpu0->cpu0_DTLB WRITE        ACCESS:          0 HIT:          0 MISS:          0 MSHR_MERGE:          0
cpu0->cpu0_DTLB TRANSLATION  ACCESS:          0 HIT:          0 MISS:          0 MSHR_MERGE:          0
cpu0->cpu0_DTLB PREFETCH REQUESTED:          0 ISSUED:          0 USEFUL:          0 USELESS:          0 LATE:          0
cpu0->cpu0_DTLB AVERAGE MISS LATENCY: 367.7 cycles
cpu0->LLC TOTAL        ACCESS:    5169180 HIT:     149014 MISS:    5020166 MSHR_MERGE:          0
cpu0->LLC LOAD         ACCESS:    4433251 HIT:      18559 MISS:    4414692 MSHR_MERGE:          0
cpu0->LLC RFO          ACCESS:         26 HIT:         26 MISS:          0 MSHR_MERGE:          0
cpu0->LLC PREFETCH     ACCESS:          0 HIT:          0 MISS:          0 MSHR_MERGE:          0
cpu0->LLC WRITE        ACCESS:        296 HIT:        276 MISS:         20 MSHR_MERGE:          0
cpu0->LLC TRANSLATION  ACCESS:     735607 HIT:     130153 MISS:     605454 MSHR_MERGE:          0
cpu0->LLC PREFETCH REQUESTED:          0 ISSUED:          0 USEFUL:          0 USELESS:          0 LATE:          0
cpu0->LLC AVERAGE MISS LATENCY: 208.5 cycles

DRAM Statistics

Channel 0 RQ ROW_BUFFER_HIT:      75316
  ROW_BUFFER_MISS:    4944829
  AVG DBUS CONGESTED CYCLE: 3.003
Channel 0 WQ ROW_BUFFER_HIT:          3
  ROW_BUFFER_MISS:         15
  FULL:          0
Channel 0 REFRESHES ISSUED:      42409

[ROI Statistics]
[System Configuration]
num_cpus 1
cpu_freq 4000
fetch_width 6
decode_width 6
dispatch_width 6
execute_width 6
lq_width 2
sq_width 2
retire_width 6
scheduler_size 128
branch_mispredict_penalty 15
rob_size 352
lq_size 128
sq_size 72
ifetch_buffer_size 64
decode_buffer_size 32
dispatch_buffer_size 32
register_file_size 288
decode_latency 1
dispatch_latency 1
schedule_latency 1
execute_latency 1
page_size 4096
block_size 64
core_0_itlb_set 16
core_0_itlb_way 4
core_0_itlb_rq_size 16
core_0_itlb_wq_size 16
core_0_itlb_pq_size 0
core_0_itlb_mshr_size 8
core_0_itlb_hit_latency 1
core_0_itlb_fill_latency 1
core_0_itlb_max_tag_check 2
core_0_itlb_max_fill 2
core_0_dtlb_set 16
core_0_dtlb_way 4
core_0_dtlb_rq_size 16
core_0_dtlb_wq_size 16
core_0_dtlb_pq_size 0
core_0_dtlb_mshr_size 8
core_0_dtlb_hit_latency 1
core_0_dtlb_fill_latency 1
core_0_dtlb_max_tag_check 2
core_0_dtlb_max_fill 2
core_0_stlb_set 128
core_0_stlb_way 12
core_0_stlb_rq_size 32
core_0_stlb_wq_size 32
core_0_stlb_pq_size 0
core_0_stlb_mshr_size 16
core_0_stlb_hit_latency 4
core_0_stlb_fill_latency 4
core_0_stlb_max_tag_check 1
core_0_stlb_max_fill 1
core_0_l1i_set 64
core_0_l1i_way 8
core_0_l1i_rq_size 64
core_0_l1i_wq_size 64
core_0_l1i_pq_size 32
core_0_l1i_mshr_size 8
core_0_l1i_hit_latency 2
core_0_l1i_fill_latency 2
core_0_l1i_max_tag_check 2
core_0_l1i_max_fill 2
core_0_l1d_set 64
core_0_l1d_way 12
core_0_l1d_rq_size 64
core_0_l1d_wq_size 64
core_0_l1d_pq_size 8
core_0_l1d_mshr_size 16
core_0_l1d_hit_latency 2
core_0_l1d_fill_latency 3
core_0_l1d_max_tag_check 2
core_0_l1d_max_fill 2
core_0_l2c_set 1024
core_0_l2c_way 8
core_0_l2c_rq_size 32
core_0_l2c_wq_size 32
core_0_l2c_pq_size 16
core_0_l2c_mshr_size 32
core_0_l2c_hit_latency 5
core_0_l2c_fill_latency 5
core_0_l2c_max_tag_check 1
core_0_l2c_max_fill 1
llc_set 2048
llc_way 16
llc_rq_size 32
llc_wq_size 32
llc_pq_size 32
llc_mshr_size 64
llc_hit_latency 10
llc_fill_latency 10
llc_max_tag_check 1
llc_max_fill 1
dram_channels 1
dram_ranks 1
dram_bankgroups 8
dram_banks 4
dram_rows 65536
dram_columns 1024
dram_channel_width 8
dram_rq_size 64
dram_wq_size 64
dram_size 17179869184
core_0_itlb_prefetcher no
core_0_dtlb_prefetcher no
core_0_stlb_prefetcher no
core_0_l1i_prefetcher no
core_0_l1d_prefetcher no
core_0_l2c_prefetcher no
llc_prefetcher no
llc_replacement drrip

Core_0_instructions 100000005
Core_0_cycles 508911958
Core_0_IPC 0.196498
Core_0_branch_prediction_accuracy 92.9319
Core_0_branch_MPKI 10.2116
Core_0_average_ROB_occupancy_at_mispredict 65.7771

Core_0_ITLB_total_access 264984
Core_0_ITLB_total_hit 264984
Core_0_ITLB_total_miss 0
Core_0_ITLB_total_MPKI 0
Core_0_ITLB_total_miss_rate 0
Core_0_ITLB_demand_access 264984
Core_0_ITLB_demand_hit 264984
Core_0_ITLB_demand_miss 0
Core_0_ITLB_demand_MPKI 0
Core_0_ITLB_demand_miss_rate 0
Core_0_ITLB_load_access 264984
Core_0_ITLB_load_hit 264984
Core_0_ITLB_load_miss 0
Core_0_ITLB_load_MPKI 0
Core_0_ITLB_load_miss_rate 0
Core_0_ITLB_rfo_access 0
Core_0_ITLB_rfo_hit 0
Core_0_ITLB_rfo_miss 0
Core_0_ITLB_rfo_MPKI 0
Core_0_ITLB_rfo_miss_rate 0
Core_0_ITLB_prefetch_access 0
Core_0_ITLB_prefetch_hit 0
Core_0_ITLB_prefetch_miss 0
Core_0_ITLB_prefetch_MPKI 0
Core_0_ITLB_prefetch_miss_rate 0
Core_0_ITLB_writeback_access 0
Core_0_ITLB_writeback_hit 0
Core_0_ITLB_writeback_miss 0
Core_0_ITLB_writeback_MPKI 0
Core_0_ITLB_writeback_miss_rate 0
Core_0_ITLB_prefetch_requested 0
Core_0_ITLB_prefetch_issued 0
Core_0_ITLB_prefetch_useful 0
Core_0_ITLB_prefetch_useless 0
Core_0_ITLB_prefetch_late 0
Core_0_ITLB_prefetch_accuracy 0
Core_0_ITLB_prefetch_coverage 0

Core_0_DTLB_total_access 17048538
Core_0_DTLB_total_hit 13655570
Core_0_DTLB_total_miss 3392968
Core_0_DTLB_total_MPKI 33.9297
Core_0_DTLB_total_miss_rate 0.199018
Core_0_DTLB_demand_access 17048538
Core_0_DTLB_demand_hit 13655570
Core_0_DTLB_demand_miss 3392968
Core_0_DTLB_demand_MPKI 33.9297
Core_0_DTLB_demand_miss_rate 0.199018
Core_0_DTLB_load_access 17048538
Core_0_DTLB_load_hit 13655570
Core_0_DTLB_load_miss 3392968
Core_0_DTLB_load_MPKI 33.9297
Core_0_DTLB_load_miss_rate 0.199018
Core_0_DTLB_rfo_access 0
Core_0_DTLB_rfo_hit 0
Core_0_DTLB_rfo_miss 0
Core_0_DTLB_rfo_MPKI 0
Core_0_DTLB_rfo_miss_rate 0
Core_0_DTLB_prefetch_access 0
Core_0_DTLB_prefetch_hit 0
Core_0_DTLB_prefetch_miss 0
Core_0_DTLB_prefetch_MPKI 0
Core_0_DTLB_prefetch_miss_rate 0
Core_0_DTLB_writeback_access 0
Core_0_DTLB_writeback_hit 0
Core_0_DTLB_writeback_miss 0
Core_0_DTLB_writeback_MPKI 0
Core_0_DTLB_writeback_miss_rate 0
Core_0_DTLB_prefetch_requested 0
Core_0_DTLB_prefetch_issued 0
Core_0_DTLB_prefetch_useful 0
Core_0_DTLB_prefetch_useless 0
Core_0_DTLB_prefetch_late 0
Core_0_DTLB_prefetch_accuracy 0
Core_0_DTLB_prefetch_coverage 0

Core_0_STLB_total_access 946847
Core_0_STLB_total_hit 12876
Core_0_STLB_total_miss 933971
Core_0_STLB_total_MPKI 9.33971
Core_0_STLB_total_miss_rate 0.986401
Core_0_STLB_demand_access 946847
Core_0_STLB_demand_hit 12876
Core_0_STLB_demand_miss 933971
Core_0_STLB_demand_MPKI 9.33971
Core_0_STLB_demand_miss_rate 0.986401
Core_0_STLB_load_access 946847
Core_0_STLB_load_hit 12876
Core_0_STLB_load_miss 933971
Core_0_STLB_load_MPKI 9.33971
Core_0_STLB_load_miss_rate 0.986401
Core_0_STLB_rfo_access 0
Core_0_STLB_rfo_hit 0
Core_0_STLB_rfo_miss 0
Core_0_STLB_rfo_MPKI 0
Core_0_STLB_rfo_miss_rate 0
Core_0_STLB_prefetch_access 0
Core_0_STLB_prefetch_hit 0
Core_0_STLB_prefetch_miss 0
Core_0_STLB_prefetch_MPKI 0
Core_0_STLB_prefetch_miss_rate 0
Core_0_STLB_writeback_access 0
Core_0_STLB_writeback_hit 0
Core_0_STLB_writeback_miss 0
Core_0_STLB_writeback_MPKI 0
Core_0_STLB_writeback_miss_rate 0
Core_0_STLB_prefetch_requested 0
Core_0_STLB_prefetch_issued 0
Core_0_STLB_prefetch_useful 0
Core_0_STLB_prefetch_useless 0
Core_0_STLB_prefetch_late 0
Core_0_STLB_prefetch_accuracy 0
Core_0_STLB_prefetch_coverage 0

Core_0_L1I_total_access 321399
Core_0_L1I_total_hit 321399
Core_0_L1I_total_miss 0
Core_0_L1I_total_MPKI 0
Core_0_L1I_total_miss_rate 0
Core_0_L1I_demand_access 321399
Core_0_L1I_demand_hit 321399
Core_0_L1I_demand_miss 0
Core_0_L1I_demand_MPKI 0
Core_0_L1I_demand_miss_rate 0
Core_0_L1I_load_access 321399
Core_0_L1I_load_hit 321399
Core_0_L1I_load_miss 0
Core_0_L1I_load_MPKI 0
Core_0_L1I_load_miss_rate 0
Core_0_L1I_rfo_access 0
Core_0_L1I_rfo_hit 0
Core_0_L1I_rfo_miss 0
Core_0_L1I_rfo_MPKI 0
Core_0_L1I_rfo_miss_rate 0
Core_0_L1I_prefetch_access 0
Core_0_L1I_prefetch_hit 0
Core_0_L1I_prefetch_miss 0
Core_0_L1I_prefetch_MPKI 0
Core_0_L1I_prefetch_miss_rate 0
Core_0_L1I_writeback_access 0
Core_0_L1I_writeback_hit 0
Core_0_L1I_writeback_miss 0
Core_0_L1I_writeback_MPKI 0
Core_0_L1I_writeback_miss_rate 0
Core_0_L1I_prefetch_requested 0
Core_0_L1I_prefetch_issued 0
Core_0_L1I_prefetch_useful 0
Core_0_L1I_prefetch_useless 0
Core_0_L1I_prefetch_late 0
Core_0_L1I_prefetch_accuracy 0
Core_0_L1I_prefetch_coverage 0

Core_0_L1D_total_access 17165774
Core_0_L1D_total_hit 11593493
Core_0_L1D_total_miss 5572281
Core_0_L1D_total_MPKI 55.7228
Core_0_L1D_total_miss_rate 0.324616
Core_0_L1D_demand_access 13906021
Core_0_L1D_demand_hit 8365425
Core_0_L1D_demand_miss 5540596
Core_0_L1D_demand_MPKI 55.406
Core_0_L1D_demand_miss_rate 0.398431
Core_0_L1D_load_access 13906021
Core_0_L1D_load_hit 8365425
Core_0_L1D_load_miss 5540596
Core_0_L1D_load_MPKI 55.406
Core_0_L1D_load_miss_rate 0.398431
Core_0_L1D_rfo_access 0
Core_0_L1D_rfo_hit 0
Core_0_L1D_rfo_miss 0
Core_0_L1D_rfo_MPKI 0
Core_0_L1D_rfo_miss_rate 0
Core_0_L1D_prefetch_access 0
Core_0_L1D_prefetch_hit 0
Core_0_L1D_prefetch_miss 0
Core_0_L1D_prefetch_MPKI 0
Core_0_L1D_prefetch_miss_rate 0
Core_0_L1D_writeback_access 3259753
Core_0_L1D_writeback_hit 3228068
Core_0_L1D_writeback_miss 31685
Core_0_L1D_writeback_MPKI 0.31685
Core_0_L1D_writeback_miss_rate 0.00972006
Core_0_L1D_prefetch_requested 0
Core_0_L1D_prefetch_issued 0
Core_0_L1D_prefetch_useful 0
Core_0_L1D_prefetch_useless 0
Core_0_L1D_prefetch_late 0
Core_0_L1D_prefetch_accuracy 0
Core_0_L1D_prefetch_coverage 0

Core_0_L2C_total_access 4573751
Core_0_L2C_total_hit 140444
Core_0_L2C_total_miss 4433307
Core_0_L2C_total_MPKI 44.3331
Core_0_L2C_total_miss_rate 0.969293
Core_0_L2C_demand_access 4556543
Core_0_L2C_demand_hit 123266
Core_0_L2C_demand_miss 4433277
Core_0_L2C_demand_MPKI 44.3328
Core_0_L2C_demand_miss_rate 0.972947
Core_0_L2C_load_access 4543777
Core_0_L2C_load_hit 110526
Core_0_L2C_load_miss 4433251
Core_0_L2C_load_MPKI 44.3325
Core_0_L2C_load_miss_rate 0.975675
Core_0_L2C_rfo_access 12766
Core_0_L2C_rfo_hit 12740
Core_0_L2C_rfo_miss 26
Core_0_L2C_rfo_MPKI 0.00026
Core_0_L2C_rfo_miss_rate 0.00203666
Core_0_L2C_prefetch_access 0
Core_0_L2C_prefetch_hit 0
Core_0_L2C_prefetch_miss 0
Core_0_L2C_prefetch_MPKI 0
Core_0_L2C_prefetch_miss_rate 0
Core_0_L2C_writeback_access 17208
Core_0_L2C_writeback_hit 17178
Core_0_L2C_writeback_miss 30
Core_0_L2C_writeback_MPKI 0.0003
Core_0_L2C_writeback_miss_rate 0.00174338
Core_0_L2C_prefetch_requested 0
Core_0_L2C_prefetch_issued 0
Core_0_L2C_prefetch_useful 0
Core_0_L2C_prefetch_useless 0
Core_0_L2C_prefetch_late 0
Core_0_L2C_prefetch_accuracy 0
Core_0_L2C_prefetch_coverage 0

Core_0_LLC_total_access 4433573
Core_0_LLC_total_hit 18861
Core_0_LLC_total_miss 4414712
Core_0_LLC_total_MPKI 44.1471
Core_0_LLC_total_miss_rate 0.995746
Core_0_LLC_demand_access 4433277
Core_0_LLC_demand_hit 18585
Core_0_LLC_demand_miss 4414692
Core_0_LLC_demand_MPKI 44.1469
Core_0_LLC_demand_miss_rate 0.995808
Core_0_LLC_load_access 4433251
Core_0_LLC_load_hit 18559
Core_0_LLC_load_miss 4414692
Core_0_LLC_load_MPKI 44.1469
Core_0_LLC_load_miss_rate 0.995814
Core_0_LLC_rfo_access 26
Core_0_LLC_rfo_hit 26
Core_0_LLC_rfo_miss 0
Core_0_LLC_rfo_MPKI 0
Core_0_LLC_rfo_miss_rate 0
Core_0_LLC_prefetch_access 0
Core_0_LLC_prefetch_hit 0
Core_0_LLC_prefetch_miss 0
Core_0_LLC_prefetch_MPKI 0
Core_0_LLC_prefetch_miss_rate 0
Core_0_LLC_writeback_access 296
Core_0_LLC_writeback_hit 276
Core_0_LLC_writeback_miss 20
Core_0_LLC_writeback_MPKI 0.0002
Core_0_LLC_writeback_miss_rate 0.0675676
Core_0_LLC_prefetch_requested 0
Core_0_LLC_prefetch_issued 0
Core_0_LLC_prefetch_useful 0
Core_0_LLC_prefetch_useless 0
Core_0_LLC_prefetch_late 0
Core_0_LLC_prefetch_accuracy 0
Core_0_LLC_prefetch_coverage 0

[DRAM Statistics]
Channel_0_RQ_row_buffer_hit 75316
Channel_0_RQ_row_buffer_miss 4944829
Channel_0_WQ_row_buffer_hit 3
Channel_0_WQ_row_buffer_miss 15
Channel_0_WQ_full 0
Channel_0_dbus_congested 7474661
DRAM_total_RQ_row_buffer_hit 75316
DRAM_total_RQ_row_buffer_miss 4944829
DRAM_total_WQ_row_buffer_hit 3
DRAM_total_WQ_row_buffer_miss 15
DRAM_total_WQ_full 0
DRAM_total_dbus_congested 7474661
DRAM_avg_congested_cycle 3.00311

====== DRAM_RQ_TRAFFIC ========
DRAM_RQ_READ_TRAFFIC_BREAKDOWN:
data_demand_read.count = 4414692
data_demand_read.share = 87.94%

inst_demand_read.count = 0
inst_demand_read.share = 0.00%

cache_inst_prefetch.count = 0
cache_inst_prefetch.share = 0.00%

cache_data_prefetch.count = 0
cache_data_prefetch.share = 0.00%

stlb_data_demand.count = 605454
stlb_data_demand.share = 12.06%

stlb_inst_demand.count = 0
stlb_inst_demand.share = 0.00%

stlb_l1i_pref.count = 0
stlb_l1i_pref.share = 0.00%

stlb_l1d_pref.count = 0
stlb_l1d_pref.share = 0.00%

DRAM_RQ_READ_TRAFFIC_SUMMARY:
cache_demand.count = 4414692
cache_demand.share = 87.94%

cache_prefetch.count = 0
cache_prefetch.share = 0.00%

stlb_demand.count = 605454
stlb_demand.share = 12.06%

stlb_prefetch.count = 0
stlb_prefetch.share = 0.00%

DRAM_RQ_READ_TRAFFIC_DEBUG:
total_classified_read.count = 5020146
unclassified_read.count = 0
total_read_with_other.count = 5020146

classified_plus_unclassified_check.count = 5020146
dram_rq_read_total_observed.count = 5020146
dram_rq_read_total_observed.per_1K_instructions = 50.2015

STLB_MISS_PTW_DRAM_TOUCH_BREAKDOWN:
stlb_miss_total.count = 933970

stlb_miss_touch_dram.count = 833699
stlb_miss_touch_dram.share = 89.26%

stlb_miss_no_dram_touch.count = 100271
stlb_miss_no_dram_touch.share = 10.74%

STLB_MISS_PTW_DRAM_TOUCH_DEBUG:
stlb_miss_touch_plus_no_touch.count = 933970
stlb_miss_total_check.count = 933970

======STLB miss causes ========
Core_0_STLB_miss_cause_breakdown
Core_0_STLB_cause_Demand_Data_miss 933971
Core_0_STLB_cause_Demand_Data_miss_rate 0.986401
Core_0_STLB_cause_Demand_Instruction_miss 0
Core_0_STLB_cause_Demand_Instruction_miss_rate 0
Core_0_STLB_cause_L1D_Prefetch_miss 0
Core_0_STLB_cause_L1D_Prefetch_miss_rate 0
Core_0_STLB_cause_L1I_Prefetch_miss 0
Core_0_STLB_cause_L1I_Prefetch_miss_rate 0
Core_0_STLB_cause_Other_miss 0
Core_0_STLB_cause_Other_miss_rate 0
Core_0_STLB_Demand_miss 933971
Core_0_STLB_Demand_miss_rate 0.986401
Core_0_STLB_L1D_Prefetch_miss 0
Core_0_STLB_L1D_Prefetch_miss_rate 0
Core_0_STLB_Other_miss 0
Core_0_STLB_Other_miss_rate 0
